MODEL 1
REMARK VINA RESULT:      -9.1      0.000      0.000
REMARK  5 active torsions:
REMARK  status: ('A' for Active; 'I' for Inactive)
REMARK    1  A    between atoms: C_4  and  N_5 
REMARK    2  A    between atoms: N_5  and  N_6 
REMARK       I    between atoms: N_6  and  C_7 
REMARK    3  A    between atoms: C_7  and  C_8 
REMARK    4  A    between atoms: C_12  and  C_13 
REMARK    5  A    between atoms: C_13  and  C_14 
ROOT
HETATM    1  C   UNL     1      26.079  47.004  50.284  1.00  0.00     0.102 A 
HETATM    2  N   UNL     1      26.523  45.859  49.661  1.00  0.00    -0.360 N 
HETATM    3  H   UNL     1      26.764  45.815  48.677  1.00  0.00     0.165 HD
HETATM    4  C   UNL     1      26.599  44.826  50.558  1.00  0.00     0.104 A 
HETATM    5  C   UNL     1      26.181  45.288  51.793  1.00  0.00     0.033 A 
HETATM    6  C   UNL     1      25.832  46.660  51.602  1.00  0.00     0.052 A 
ENDROOT
BRANCH   1   7
HETATM    7  C   UNL     1      25.944  48.255  49.569  1.00  0.00     0.282 C 
HETATM    8  N   UNL     1      24.641  48.660  49.333  1.00  0.00    -0.281 N 
HETATM    9  H   UNL     1      23.858  48.238  49.821  1.00  0.00     0.184 HD
HETATM   10  O   UNL     1      26.914  48.922  49.213  1.00  0.00    -0.265 OA
BRANCH   8  11
HETATM   11  N   UNL     1      24.430  49.982  48.890  1.00  0.00    -0.203 NA
HETATM   12  H   UNL     1      24.816  50.092  47.941  1.00  0.00     0.153 HD
BRANCH  11  13
HETATM   13  C   UNL     1      23.059  50.352  48.862  1.00  0.00     0.027 A 
HETATM   14  C   UNL     1      22.367  50.204  47.653  1.00  0.00     0.025 A 
HETATM   15  C   UNL     1      21.004  50.499  47.564  1.00  0.00     0.002 A 
HETATM   16  C   UNL     1      20.310  50.921  48.694  1.00  0.00     0.000 A 
HETATM   17  C   UNL     1      20.975  51.037  49.913  1.00  0.00     0.002 A 
HETATM   18  C   UNL     1      22.339  50.745  49.998  1.00  0.00     0.025 A 
ENDBRANCH  11  13
ENDBRANCH   8  11
ENDBRANCH   1   7
BRANCH   5  19
HETATM   19  C   UNL     1      26.093  44.554  53.053  1.00  0.00     0.195 C 
HETATM   20  O   UNL     1      25.022  44.202  53.536  1.00  0.00    -0.287 OA
BRANCH  19  21
HETATM   21  C   UNL     1      27.328  44.297  53.816  1.00  0.00     0.037 A 
HETATM   22  C   UNL     1      27.901  45.282  54.626  1.00  0.00     0.049 A 
HETATM   23 CL   UNL     1      27.155  46.816  54.883  1.00  0.00    -0.083 Cl
HETATM   24  C   UNL     1      29.106  45.022  55.285  1.00  0.00     0.048 A 
HETATM   25  C   UNL     1      29.729  43.784  55.128  1.00  0.00     0.035 A 
HETATM   26 CL   UNL     1      31.214  43.468  55.938  1.00  0.00    -0.084 Cl
HETATM   27  C   UNL     1      29.162  42.799  54.320  1.00  0.00     0.025 A 
HETATM   28  C   UNL     1      27.962  43.054  53.657  1.00  0.00     0.019 A 
ENDBRANCH  19  21
ENDBRANCH   5  19
TORSDOF 5
ENDMDL
MODEL 2
REMARK VINA RESULT:      -9.0      3.538      9.165
REMARK  5 active torsions:
REMARK  status: ('A' for Active; 'I' for Inactive)
REMARK    1  A    between atoms: C_4  and  N_5 
REMARK    2  A    between atoms: N_5  and  N_6 
REMARK       I    between atoms: N_6  and  C_7 
REMARK    3  A    between atoms: C_7  and  C_8 
REMARK    4  A    between atoms: C_12  and  C_13 
REMARK    5  A    between atoms: C_13  and  C_14 
ROOT
HETATM    1  C   UNL     1      26.005  46.230  53.389  1.00  0.00     0.102 A 
HETATM    2  N   UNL     1      25.251  45.082  53.290  1.00  0.00    -0.360 N 
HETATM    3  H   UNL     1      25.062  44.468  54.074  1.00  0.00     0.165 HD
HETATM    4  C   UNL     1      24.798  44.918  52.006  1.00  0.00     0.104 A 
HETATM    5  C   UNL     1      25.275  45.964  51.238  1.00  0.00     0.033 A 
HETATM    6  C   UNL     1      26.057  46.774  52.117  1.00  0.00     0.052 A 
ENDROOT
BRANCH   1   7
HETATM    7  C   UNL     1      26.574  46.659  54.649  1.00  0.00     0.282 C 
HETATM    8  N   UNL     1      27.716  45.981  55.040  1.00  0.00    -0.281 N 
HETATM    9  H   UNL     1      28.235  45.400  54.391  1.00  0.00     0.184 HD
HETATM   10  O   UNL     1      26.091  47.573  55.316  1.00  0.00    -0.265 OA
BRANCH   8  11
HETATM   11  N   UNL     1      28.471  46.517  56.103  1.00  0.00    -0.203 NA
HETATM   12  H   UNL     1      27.854  46.692  56.909  1.00  0.00     0.153 HD
BRANCH  11  13
HETATM   13  C   UNL     1      29.528  45.668  56.524  1.00  0.00     0.027 A 
HETATM   14  C   UNL     1      29.999  45.810  57.837  1.00  0.00     0.025 A 
HETATM   15  C   UNL     1      31.001  44.975  58.336  1.00  0.00     0.002 A 
HETATM   16  C   UNL     1      31.527  43.966  57.535  1.00  0.00     0.000 A 
HETATM   17  C   UNL     1      31.045  43.787  56.240  1.00  0.00     0.002 A 
HETATM   18  C   UNL     1      30.044  44.626  55.741  1.00  0.00     0.025 A 
ENDBRANCH  11  13
ENDBRANCH   8  11
ENDBRANCH   1   7
BRANCH   5  19
HETATM   19  C   UNL     1      25.054  46.218  49.816  1.00  0.00     0.195 C 
HETATM   20  O   UNL     1      25.492  45.480  48.940  1.00  0.00    -0.287 OA
BRANCH  19  21
HETATM   21  C   UNL     1      24.349  47.449  49.413  1.00  0.00     0.037 A 
HETATM   22  C   UNL     1      25.044  48.637  49.166  1.00  0.00     0.049 A 
HETATM   23 CL   UNL     1      26.766  48.725  49.200  1.00  0.00    -0.083 Cl
HETATM   24  C   UNL     1      24.336  49.799  48.846  1.00  0.00     0.048 A 
HETATM   25  C   UNL     1      22.943  49.766  48.779  1.00  0.00     0.035 A 
HETATM   26 CL   UNL     1      22.074  51.199  48.388  1.00  0.00    -0.084 Cl
HETATM   27  C   UNL     1      22.245  48.584  49.026  1.00  0.00     0.025 A 
HETATM   28  C   UNL     1      22.947  47.422  49.349  1.00  0.00     0.019 A 
ENDBRANCH  19  21
ENDBRANCH   5  19
TORSDOF 5
ENDMDL
MODEL 3
REMARK VINA RESULT:      -8.8      3.615      9.289
REMARK  5 active torsions:
REMARK  status: ('A' for Active; 'I' for Inactive)
REMARK    1  A    between atoms: C_4  and  N_5 
REMARK    2  A    between atoms: N_5  and  N_6 
REMARK       I    between atoms: N_6  and  C_7 
REMARK    3  A    between atoms: C_7  and  C_8 
REMARK    4  A    between atoms: C_12  and  C_13 
REMARK    5  A    between atoms: C_13  and  C_14 
ROOT
HETATM    1  C   UNL     1      25.311  47.010  50.730  1.00  0.00     0.102 A 
HETATM    2  N   UNL     1      26.411  47.646  50.198  1.00  0.00    -0.360 N 
HETATM    3  H   UNL     1      27.365  47.423  50.458  1.00  0.00     0.165 HD
HETATM    4  C   UNL     1      26.021  48.586  49.280  1.00  0.00     0.104 A 
HETATM    5  C   UNL     1      24.640  48.588  49.215  1.00  0.00     0.033 A 
HETATM    6  C   UNL     1      24.201  47.605  50.154  1.00  0.00     0.052 A 
ENDROOT
BRANCH   1   7
HETATM    7  C   UNL     1      25.444  45.944  51.700  1.00  0.00     0.282 C 
HETATM    8  N   UNL     1      26.582  46.002  52.486  1.00  0.00    -0.281 N 
HETATM    9  H   UNL     1      27.149  46.841  52.536  1.00  0.00     0.184 HD
HETATM   10  O   UNL     1      24.598  45.060  51.831  1.00  0.00    -0.265 OA
BRANCH   8  11
HETATM   11  N   UNL     1      26.646  45.166  53.619  1.00  0.00    -0.203 NA
HETATM   12  H   UNL     1      25.847  44.515  53.611  1.00  0.00     0.153 HD
BRANCH  11  13
HETATM   13  C   UNL     1      27.843  44.406  53.690  1.00  0.00     0.027 A 
HETATM   14  C   UNL     1      28.253  43.724  52.536  1.00  0.00     0.025 A 
HETATM   15  C   UNL     1      29.447  42.999  52.516  1.00  0.00     0.002 A 
HETATM   16  C   UNL     1      30.260  42.969  53.645  1.00  0.00     0.000 A 
HETATM   17  C   UNL     1      29.885  43.672  54.788  1.00  0.00     0.002 A 
HETATM   18  C   UNL     1      28.689  44.394  54.807  1.00  0.00     0.025 A 
ENDBRANCH  11  13
ENDBRANCH   8  11
ENDBRANCH   1   7
BRANCH   5  19
HETATM   19  C   UNL     1      23.773  49.414  48.379  1.00  0.00     0.195 C 
HETATM   20  O   UNL     1      24.182  49.990  47.376  1.00  0.00    -0.287 OA
BRANCH  19  21
HETATM   21  C   UNL     1      22.376  49.632  48.796  1.00  0.00     0.037 A 
HETATM   22  C   UNL     1      21.345  48.798  48.351  1.00  0.00     0.049 A 
HETATM   23 CL   UNL     1      21.640  47.400  47.385  1.00  0.00    -0.083 Cl
HETATM   24  C   UNL     1      20.025  49.074  48.717  1.00  0.00     0.048 A 
HETATM   25  C   UNL     1      19.745  50.179  49.521  1.00  0.00     0.035 A 
HETATM   26 CL   UNL     1      18.118  50.517  49.968  1.00  0.00    -0.084 Cl
HETATM   27  C   UNL     1      20.769  51.014  49.967  1.00  0.00     0.025 A 
HETATM   28  C   UNL     1      22.088  50.745  49.601  1.00  0.00     0.019 A 
ENDBRANCH  19  21
ENDBRANCH   5  19
TORSDOF 5
ENDMDL
MODEL 4
REMARK VINA RESULT:      -8.8      1.979      2.846
REMARK  5 active torsions:
REMARK  status: ('A' for Active; 'I' for Inactive)
REMARK    1  A    between atoms: C_4  and  N_5 
REMARK    2  A    between atoms: N_5  and  N_6 
REMARK       I    between atoms: N_6  and  C_7 
REMARK    3  A    between atoms: C_7  and  C_8 
REMARK    4  A    between atoms: C_12  and  C_13 
REMARK    5  A    between atoms: C_13  and  C_14 
ROOT
HETATM    1  C   UNL     1      24.503  48.463  49.310  1.00  0.00     0.102 A 
HETATM    2  N   UNL     1      25.877  48.371  49.255  1.00  0.00    -0.360 N 
HETATM    3  H   UNL     1      26.452  48.959  48.663  1.00  0.00     0.165 HD
HETATM    4  C   UNL     1      26.325  47.401  50.113  1.00  0.00     0.104 A 
HETATM    5  C   UNL     1      25.231  46.827  50.733  1.00  0.00     0.033 A 
HETATM    6  C   UNL     1      24.084  47.489  50.200  1.00  0.00     0.052 A 
ENDROOT
BRANCH   1   7
HETATM    7  C   UNL     1      23.774  49.438  48.528  1.00  0.00     0.282 C 
HETATM    8  N   UNL     1      22.606  49.903  49.108  1.00  0.00    -0.281 N 
HETATM    9  H   UNL     1      22.405  49.750  50.090  1.00  0.00     0.184 HD
HETATM   10  O   UNL     1      24.171  49.840  47.435  1.00  0.00    -0.265 OA
BRANCH   8  11
HETATM   11  N   UNL     1      21.993  51.038  48.540  1.00  0.00    -0.203 NA
HETATM   12  H   UNL     1      21.993  50.951  47.513  1.00  0.00     0.153 HD
BRANCH  11  13
HETATM   13  C   UNL     1      20.654  51.229  48.973  1.00  0.00     0.027 A 
HETATM   14  C   UNL     1      19.893  52.215  48.332  1.00  0.00     0.025 A 
HETATM   15  C   UNL     1      18.554  52.424  48.670  1.00  0.00     0.002 A 
HETATM   16  C   UNL     1      17.950  51.626  49.638  1.00  0.00     0.000 A 
HETATM   17  C   UNL     1      18.682  50.616  50.259  1.00  0.00     0.002 A 
HETATM   18  C   UNL     1      20.022  50.412  49.921  1.00  0.00     0.025 A 
ENDBRANCH  11  13
ENDBRANCH   8  11
ENDBRANCH   1   7
BRANCH   5  19
HETATM   19  C   UNL     1      25.212  45.756  51.727  1.00  0.00     0.195 C 
HETATM   20  O   UNL     1      24.357  44.877  51.731  1.00  0.00    -0.287 OA
BRANCH  19  21
HETATM   21  C   UNL     1      26.206  45.776  52.816  1.00  0.00     0.037 A 
HETATM   22  C   UNL     1      27.206  44.803  52.905  1.00  0.00     0.049 A 
HETATM   23 CL   UNL     1      27.423  43.588  51.700  1.00  0.00    -0.083 Cl
HETATM   24  C   UNL     1      28.093  44.818  53.986  1.00  0.00     0.048 A 
HETATM   25  C   UNL     1      27.971  45.801  54.968  1.00  0.00     0.035 A 
HETATM   26 CL   UNL     1      29.061  45.815  56.299  1.00  0.00    -0.084 Cl
HETATM   27  C   UNL     1      26.974  46.773  54.884  1.00  0.00     0.025 A 
HETATM   28  C   UNL     1      26.085  46.760  53.810  1.00  0.00     0.019 A 
ENDBRANCH  19  21
ENDBRANCH   5  19
TORSDOF 5
ENDMDL
MODEL 5
REMARK VINA RESULT:      -8.6      2.306      3.196
REMARK  5 active torsions:
REMARK  status: ('A' for Active; 'I' for Inactive)
REMARK    1  A    between atoms: C_4  and  N_5 
REMARK    2  A    between atoms: N_5  and  N_6 
REMARK       I    between atoms: N_6  and  C_7 
REMARK    3  A    between atoms: C_7  and  C_8 
REMARK    4  A    between atoms: C_12  and  C_13 
REMARK    5  A    between atoms: C_13  and  C_14 
ROOT
HETATM    1  C   UNL     1      25.353  45.301  52.601  1.00  0.00     0.102 A 
HETATM    2  N   UNL     1      25.326  44.275  53.519  1.00  0.00    -0.360 N 
HETATM    3  H   UNL     1      24.684  43.492  53.464  1.00  0.00     0.165 HD
HETATM    4  C   UNL     1      26.287  44.466  54.478  1.00  0.00     0.104 A 
HETATM    5  C   UNL     1      26.949  45.649  54.202  1.00  0.00     0.033 A 
HETATM    6  C   UNL     1      26.334  46.180  53.028  1.00  0.00     0.052 A 
ENDROOT
BRANCH   1   7
HETATM    7  C   UNL     1      24.463  45.324  51.460  1.00  0.00     0.282 C 
HETATM    8  N   UNL     1      24.360  46.547  50.819  1.00  0.00    -0.281 N 
HETATM    9  H   UNL     1      25.025  47.293  50.991  1.00  0.00     0.184 HD
HETATM   10  O   UNL     1      23.856  44.326  51.075  1.00  0.00    -0.265 OA
BRANCH   8  11
HETATM   11  N   UNL     1      23.734  46.580  49.556  1.00  0.00    -0.203 NA
HETATM   12  H   UNL     1      22.827  46.094  49.609  1.00  0.00     0.153 HD
BRANCH  11  13
HETATM   13  C   UNL     1      23.509  47.897  49.076  1.00  0.00     0.027 A 
HETATM   14  C   UNL     1      24.620  48.738  48.926  1.00  0.00     0.025 A 
HETATM   15  C   UNL     1      24.481  50.028  48.410  1.00  0.00     0.002 A 
HETATM   16  C   UNL     1      23.228  50.485  48.011  1.00  0.00     0.000 A 
HETATM   17  C   UNL     1      22.119  49.649  48.118  1.00  0.00     0.002 A 
HETATM   18  C   UNL     1      22.260  48.359  48.638  1.00  0.00     0.025 A 
ENDBRANCH  11  13
ENDBRANCH   8  11
ENDBRANCH   1   7
BRANCH   5  19
HETATM   19  C   UNL     1      28.049  46.264  54.940  1.00  0.00     0.195 C 
HETATM   20  O   UNL     1      28.194  47.480  55.013  1.00  0.00    -0.287 OA
BRANCH  19  21
HETATM   21  C   UNL     1      29.071  45.396  55.553  1.00  0.00     0.037 A 
HETATM   22  C   UNL     1      29.440  45.542  56.895  1.00  0.00     0.049 A 
HETATM   23 CL   UNL     1      28.658  46.659  57.952  1.00  0.00    -0.083 Cl
HETATM   24  C   UNL     1      30.457  44.742  57.424  1.00  0.00     0.048 A 
HETATM   25  C   UNL     1      31.097  43.806  56.612  1.00  0.00     0.035 A 
HETATM   26 CL   UNL     1      32.350  42.825  57.265  1.00  0.00    -0.084 Cl
HETATM   27  C   UNL     1      30.733  43.657  55.273  1.00  0.00     0.025 A 
HETATM   28  C   UNL     1      29.721  44.456  54.739  1.00  0.00     0.019 A 
ENDBRANCH  19  21
ENDBRANCH   5  19
TORSDOF 5
ENDMDL
MODEL 6
REMARK VINA RESULT:      -8.5      1.603      1.977
REMARK  5 active torsions:
REMARK  status: ('A' for Active; 'I' for Inactive)
REMARK    1  A    between atoms: C_4  and  N_5 
REMARK    2  A    between atoms: N_5  and  N_6 
REMARK       I    between atoms: N_6  and  C_7 
REMARK    3  A    between atoms: C_7  and  C_8 
REMARK    4  A    between atoms: C_12  and  C_13 
REMARK    5  A    between atoms: C_13  and  C_14 
ROOT
HETATM    1  C   UNL     1      25.024  46.820  50.445  1.00  0.00     0.102 A 
HETATM    2  N   UNL     1      25.577  45.772  49.742  1.00  0.00    -0.360 N 
HETATM    3  H   UNL     1      25.713  45.784  48.737  1.00  0.00     0.165 HD
HETATM    4  C   UNL     1      25.917  44.753  50.593  1.00  0.00     0.104 A 
HETATM    5  C   UNL     1      25.567  45.122  51.879  1.00  0.00     0.033 A 
HETATM    6  C   UNL     1      24.981  46.420  51.770  1.00  0.00     0.052 A 
ENDROOT
BRANCH   1   7
HETATM    7  C   UNL     1      24.610  48.042  49.789  1.00  0.00     0.282 C 
HETATM    8  N   UNL     1      23.297  48.416  50.017  1.00  0.00    -0.281 N 
HETATM    9  H   UNL     1      22.749  47.999  50.761  1.00  0.00     0.184 HD
HETATM   10  O   UNL     1      25.374  48.711  49.095  1.00  0.00    -0.265 OA
BRANCH   8  11
HETATM   11  N   UNL     1      22.906  49.717  49.640  1.00  0.00    -0.203 NA
HETATM   12  H   UNL     1      23.615  50.120  49.010  1.00  0.00     0.153 HD
BRANCH  11  13
HETATM   13  C   UNL     1      21.648  49.757  48.984  1.00  0.00     0.027 A 
HETATM   14  C   UNL     1      20.857  48.601  49.014  1.00  0.00     0.025 A 
HETATM   15  C   UNL     1      19.586  48.583  48.435  1.00  0.00     0.002 A 
HETATM   16  C   UNL     1      19.078  49.734  47.840  1.00  0.00     0.000 A 
HETATM   17  C   UNL     1      19.836  50.904  47.834  1.00  0.00     0.002 A 
HETATM   18  C   UNL     1      21.108  50.918  48.412  1.00  0.00     0.025 A 
ENDBRANCH  11  13
ENDBRANCH   8  11
ENDBRANCH   1   7
BRANCH   5  19
HETATM   19  C   UNL     1      25.737  44.366  53.117  1.00  0.00     0.195 C 
HETATM   20  O   UNL     1      24.789  43.891  53.734  1.00  0.00    -0.287 OA
BRANCH  19  21
HETATM   21  C   UNL     1      27.088  44.234  53.692  1.00  0.00     0.037 A 
HETATM   22  C   UNL     1      27.893  43.125  53.411  1.00  0.00     0.049 A 
HETATM   23 CL   UNL     1      27.420  41.899  52.294  1.00  0.00    -0.083 Cl
HETATM   24  C   UNL     1      29.144  43.005  54.024  1.00  0.00     0.048 A 
HETATM   25  C   UNL     1      29.578  43.988  54.913  1.00  0.00     0.035 A 
HETATM   26 CL   UNL     1      31.116  43.836  55.668  1.00  0.00    -0.084 Cl
HETATM   27  C   UNL     1      28.778  45.095  55.197  1.00  0.00     0.025 A 
HETATM   28  C   UNL     1      27.528  45.219  54.590  1.00  0.00     0.019 A 
ENDBRANCH  19  21
ENDBRANCH   5  19
TORSDOF 5
ENDMDL
MODEL 7
REMARK VINA RESULT:      -8.5      3.799      9.457
REMARK  5 active torsions:
REMARK  status: ('A' for Active; 'I' for Inactive)
REMARK    1  A    between atoms: C_4  and  N_5 
REMARK    2  A    between atoms: N_5  and  N_6 
REMARK       I    between atoms: N_6  and  C_7 
REMARK    3  A    between atoms: C_7  and  C_8 
REMARK    4  A    between atoms: C_12  and  C_13 
REMARK    5  A    between atoms: C_13  and  C_14 
ROOT
HETATM    1  C   UNL     1      24.198  45.134  50.441  1.00  0.00     0.102 A 
HETATM    2  N   UNL     1      24.753  46.361  50.729  1.00  0.00    -0.360 N 
HETATM    3  H   UNL     1      25.483  46.496  51.419  1.00  0.00     0.165 HD
HETATM    4  C   UNL     1      24.189  47.336  49.948  1.00  0.00     0.104 A 
HETATM    5  C   UNL     1      23.231  46.749  49.141  1.00  0.00     0.033 A 
HETATM    6  C   UNL     1      23.229  45.362  49.478  1.00  0.00     0.052 A 
ENDROOT
BRANCH   1   7
HETATM    7  C   UNL     1      24.642  43.925  51.100  1.00  0.00     0.282 C 
HETATM    8  N   UNL     1      25.913  43.985  51.645  1.00  0.00    -0.281 N 
HETATM    9  H   UNL     1      26.393  44.868  51.774  1.00  0.00     0.184 HD
HETATM   10  O   UNL     1      23.935  42.922  51.187  1.00  0.00    -0.265 OA
BRANCH   8  11
HETATM   11  N   UNL     1      26.303  42.955  52.526  1.00  0.00    -0.203 NA
HETATM   12  H   UNL     1      26.246  42.048  52.041  1.00  0.00     0.153 HD
BRANCH  11  13
HETATM   13  C   UNL     1      27.622  43.115  53.026  1.00  0.00     0.027 A 
HETATM   14  C   UNL     1      27.785  43.802  54.236  1.00  0.00     0.025 A 
HETATM   15  C   UNL     1      29.048  43.952  54.814  1.00  0.00     0.002 A 
HETATM   16  C   UNL     1      30.163  43.390  54.201  1.00  0.00     0.000 A 
HETATM   17  C   UNL     1      30.014  42.670  53.017  1.00  0.00     0.002 A 
HETATM   18  C   UNL     1      28.750  42.525  52.439  1.00  0.00     0.025 A 
ENDBRANCH  11  13
ENDBRANCH   8  11
ENDBRANCH   1   7
BRANCH   5  19
HETATM   19  C   UNL     1      22.374  47.385  48.143  1.00  0.00     0.195 C 
HETATM   20  O   UNL     1      22.376  47.049  46.964  1.00  0.00    -0.287 OA
BRANCH  19  21
HETATM   21  C   UNL     1      21.535  48.527  48.548  1.00  0.00     0.037 A 
HETATM   22  C   UNL     1      21.984  49.845  48.410  1.00  0.00     0.049 A 
HETATM   23 CL   UNL     1      23.487  50.235  47.659  1.00  0.00    -0.083 Cl
HETATM   24  C   UNL     1      21.185  50.900  48.863  1.00  0.00     0.048 A 
HETATM   25  C   UNL     1      19.949  50.631  49.450  1.00  0.00     0.035 A 
HETATM   26 CL   UNL     1      18.970  51.930  50.009  1.00  0.00    -0.084 Cl
HETATM   27  C   UNL     1      19.498  49.318  49.591  1.00  0.00     0.025 A 
HETATM   28  C   UNL     1      20.292  48.262  49.145  1.00  0.00     0.019 A 
ENDBRANCH  19  21
ENDBRANCH   5  19
TORSDOF 5
ENDMDL
MODEL 8
REMARK VINA RESULT:      -8.4      2.274      2.824
REMARK  5 active torsions:
REMARK  status: ('A' for Active; 'I' for Inactive)
REMARK    1  A    between atoms: C_4  and  N_5 
REMARK    2  A    between atoms: N_5  and  N_6 
REMARK       I    between atoms: N_6  and  C_7 
REMARK    3  A    between atoms: C_7  and  C_8 
REMARK    4  A    between atoms: C_12  and  C_13 
REMARK    5  A    between atoms: C_13  and  C_14 
ROOT
HETATM    1  C   UNL     1      25.085  44.719  50.594  1.00  0.00     0.102 A 
HETATM    2  N   UNL     1      26.291  45.078  50.034  1.00  0.00    -0.360 N 
HETATM    3  H   UNL     1      26.372  45.661  49.208  1.00  0.00     0.165 HD
HETATM    4  C   UNL     1      27.329  44.552  50.758  1.00  0.00     0.104 A 
HETATM    5  C   UNL     1      26.803  43.816  51.804  1.00  0.00     0.033 A 
HETATM    6  C   UNL     1      25.384  43.908  51.676  1.00  0.00     0.052 A 
ENDROOT
BRANCH   1   7
HETATM    7  C   UNL     1      23.825  45.174  50.044  1.00  0.00     0.282 C 
HETATM    8  N   UNL     1      23.704  46.546  49.913  1.00  0.00    -0.281 N 
HETATM    9  H   UNL     1      24.509  47.159  49.976  1.00  0.00     0.184 HD
HETATM   10  O   UNL     1      22.935  44.398  49.701  1.00  0.00    -0.265 OA
BRANCH   8  11
HETATM   11  N   UNL     1      22.631  47.043  49.144  1.00  0.00    -0.203 NA
HETATM   12  H   UNL     1      21.739  46.799  49.600  1.00  0.00     0.153 HD
BRANCH  11  13
HETATM   13  C   UNL     1      22.672  48.452  48.967  1.00  0.00     0.027 A 
HETATM   14  C   UNL     1      23.848  49.012  48.450  1.00  0.00     0.025 A 
HETATM   15  C   UNL     1      23.942  50.382  48.200  1.00  0.00     0.002 A 
HETATM   16  C   UNL     1      22.848  51.209  48.441  1.00  0.00     0.000 A 
HETATM   17  C   UNL     1      21.659  50.663  48.920  1.00  0.00     0.002 A 
HETATM   18  C   UNL     1      21.568  49.291  49.172  1.00  0.00     0.025 A 
ENDBRANCH  11  13
ENDBRANCH   8  11
ENDBRANCH   1   7
BRANCH   5  19
HETATM   19  C   UNL     1      27.519  43.077  52.841  1.00  0.00     0.195 C 
HETATM   20  O   UNL     1      27.492  41.853  52.914  1.00  0.00    -0.287 OA
BRANCH  19  21
HETATM   21  C   UNL     1      28.235  43.829  53.888  1.00  0.00     0.037 A 
HETATM   22  C   UNL     1      29.576  43.564  54.184  1.00  0.00     0.049 A 
HETATM   23 CL   UNL     1      30.517  42.434  53.283  1.00  0.00    -0.083 Cl
HETATM   24  C   UNL     1      30.204  44.254  55.226  1.00  0.00     0.048 A 
HETATM   25  C   UNL     1      29.488  45.198  55.963  1.00  0.00     0.035 A 
HETATM   26 CL   UNL     1      30.261  46.043  57.246  1.00  0.00    -0.084 Cl
HETATM   27  C   UNL     1      28.150  45.464  55.671  1.00  0.00     0.025 A 
HETATM   28  C   UNL     1      27.518  44.776  54.635  1.00  0.00     0.019 A 
ENDBRANCH  19  21
ENDBRANCH   5  19
TORSDOF 5
ENDMDL
MODEL 9
REMARK VINA RESULT:      -8.2      4.584      8.316
REMARK  5 active torsions:
REMARK  status: ('A' for Active; 'I' for Inactive)
REMARK    1  A    between atoms: C_4  and  N_5 
REMARK    2  A    between atoms: N_5  and  N_6 
REMARK       I    between atoms: N_6  and  C_7 
REMARK    3  A    between atoms: C_7  and  C_8 
REMARK    4  A    between atoms: C_12  and  C_13 
REMARK    5  A    between atoms: C_13  and  C_14 
ROOT
HETATM    1  C   UNL     1      26.468  46.058  53.424  1.00  0.00     0.102 A 
HETATM    2  N   UNL     1      25.840  46.797  52.447  1.00  0.00    -0.360 N 
HETATM    3  H   UNL     1      25.865  47.810  52.410  1.00  0.00     0.165 HD
HETATM    4  C   UNL     1      25.212  45.971  51.552  1.00  0.00     0.104 A 
HETATM    5  C   UNL     1      25.409  44.662  51.953  1.00  0.00     0.033 A 
HETATM    6  C   UNL     1      26.184  44.730  53.151  1.00  0.00     0.052 A 
ENDROOT
BRANCH   1   7
HETATM    7  C   UNL     1      27.240  46.686  54.476  1.00  0.00     0.282 C 
HETATM    8  N   UNL     1      27.817  45.813  55.382  1.00  0.00    -0.281 N 
HETATM    9  H   UNL     1      27.887  44.820  55.192  1.00  0.00     0.184 HD
HETATM   10  O   UNL     1      27.389  47.904  54.549  1.00  0.00    -0.265 OA
BRANCH   8  11
HETATM   11  N   UNL     1      28.793  46.325  56.262  1.00  0.00    -0.203 NA
HETATM   12  H   UNL     1      28.336  46.668  57.119  1.00  0.00     0.153 HD
BRANCH  11  13
HETATM   13  C   UNL     1      29.775  45.368  56.630  1.00  0.00     0.027 A 
HETATM   14  C   UNL     1      30.084  44.359  55.707  1.00  0.00     0.025 A 
HETATM   15  C   UNL     1      31.075  43.414  55.979  1.00  0.00     0.002 A 
HETATM   16  C   UNL     1      31.792  43.483  57.170  1.00  0.00     0.000 A 
HETATM   17  C   UNL     1      31.524  44.502  58.082  1.00  0.00     0.002 A 
HETATM   18  C   UNL     1      30.529  45.444  57.809  1.00  0.00     0.025 A 
ENDBRANCH  11  13
ENDBRANCH   8  11
ENDBRANCH   1   7
BRANCH   5  19
HETATM   19  C   UNL     1      24.934  43.437  51.315  1.00  0.00     0.195 C 
HETATM   20  O   UNL     1      23.787  43.026  51.454  1.00  0.00    -0.287 OA
BRANCH  19  21
HETATM   21  C   UNL     1      25.886  42.620  50.541  1.00  0.00     0.037 A 
HETATM   22  C   UNL     1      25.742  42.449  49.160  1.00  0.00     0.049 A 
HETATM   23 CL   UNL     1      24.524  43.263  48.249  1.00  0.00    -0.083 Cl
HETATM   24  C   UNL     1      26.628  41.616  48.470  1.00  0.00     0.048 A 
HETATM   25  C   UNL     1      27.645  40.961  49.163  1.00  0.00     0.035 A 
HETATM   26 CL   UNL     1      28.732  39.934  48.311  1.00  0.00    -0.084 Cl
HETATM   27  C   UNL     1      27.792  41.127  50.540  1.00  0.00     0.025 A 
HETATM   28  C   UNL     1      26.908  41.954  51.234  1.00  0.00     0.019 A 
ENDBRANCH  19  21
ENDBRANCH   5  19
TORSDOF 5
ENDMDL
MODEL 10
REMARK VINA RESULT:      -8.1      4.326      9.244
REMARK  5 active torsions:
REMARK  status: ('A' for Active; 'I' for Inactive)
REMARK    1  A    between atoms: C_4  and  N_5 
REMARK    2  A    between atoms: N_5  and  N_6 
REMARK       I    between atoms: N_6  and  C_7 
REMARK    3  A    between atoms: C_7  and  C_8 
REMARK    4  A    between atoms: C_12  and  C_13 
REMARK    5  A    between atoms: C_13  and  C_14 
ROOT
HETATM    1  C   UNL     1      27.709  43.203  52.522  1.00  0.00     0.102 A 
HETATM    2  N   UNL     1      26.367  43.170  52.833  1.00  0.00    -0.360 N 
HETATM    3  H   UNL     1      25.997  42.723  53.665  1.00  0.00     0.165 HD
HETATM    4  C   UNL     1      25.639  43.830  51.878  1.00  0.00     0.104 A 
HETATM    5  C   UNL     1      26.509  44.292  50.907  1.00  0.00     0.033 A 
HETATM    6  C   UNL     1      27.812  43.869  51.313  1.00  0.00     0.052 A 
ENDROOT
BRANCH   1   7
HETATM    7  C   UNL     1      28.705  42.610  53.388  1.00  0.00     0.282 C 
HETATM    8  N   UNL     1      29.763  43.439  53.721  1.00  0.00    -0.281 N 
HETATM    9  H   UNL     1      29.722  44.440  53.563  1.00  0.00     0.184 HD
HETATM   10  O   UNL     1      28.611  41.460  53.814  1.00  0.00    -0.265 OA
BRANCH   8  11
HETATM   11  N   UNL     1      30.620  43.031  54.764  1.00  0.00    -0.203 NA
HETATM   12  H   UNL     1      31.590  43.001  54.419  1.00  0.00     0.153 HD
BRANCH  11  13
HETATM   13  C   UNL     1      30.572  43.885  55.897  1.00  0.00     0.027 A 
HETATM   14  C   UNL     1      31.414  43.586  56.977  1.00  0.00     0.025 A 
HETATM   15  C   UNL     1      31.458  44.411  58.103  1.00  0.00     0.002 A 
HETATM   16  C   UNL     1      30.679  45.563  58.151  1.00  0.00     0.000 A 
HETATM   17  C   UNL     1      29.865  45.895  57.070  1.00  0.00     0.002 A 
HETATM   18  C   UNL     1      29.820  45.066  55.946  1.00  0.00     0.025 A 
ENDBRANCH  11  13
ENDBRANCH   8  11
ENDBRANCH   1   7
BRANCH   5  19
HETATM   19  C   UNL     1      26.198  45.052  49.699  1.00  0.00     0.195 C 
HETATM   20  O   UNL     1      27.021  45.772  49.144  1.00  0.00    -0.287 OA
BRANCH  19  21
HETATM   21  C   UNL     1      24.822  45.019  49.170  1.00  0.00     0.037 A 
HETATM   22  C   UNL     1      23.933  46.077  49.389  1.00  0.00     0.049 A 
HETATM   23 CL   UNL     1      24.407  47.532  50.185  1.00  0.00    -0.083 Cl
HETATM   24  C   UNL     1      22.617  45.983  48.927  1.00  0.00     0.048 A 
HETATM   25  C   UNL     1      22.200  44.835  48.253  1.00  0.00     0.035 A 
HETATM   26 CL   UNL     1      20.579  44.721  47.687  1.00  0.00    -0.084 Cl
HETATM   27  C   UNL     1      23.082  43.777  48.033  1.00  0.00     0.025 A 
HETATM   28  C   UNL     1      24.395  43.864  48.496  1.00  0.00     0.019 A 
ENDBRANCH  19  21
ENDBRANCH   5  19
TORSDOF 5
ENDMDL
