MODEL 1
REMARK VINA RESULT:      -8.3      0.000      0.000
REMARK  7 active torsions:
REMARK  status: ('A' for Active; 'I' for Inactive)
REMARK    1  A    between atoms: C_2  and  N_3 
REMARK    2  A    between atoms: N_3  and  C_4 
REMARK    3  A    between atoms: C_6  and  N_7 
REMARK    4  A    between atoms: N_7  and  C_8 
REMARK    5  A    between atoms: C_8  and  C_9 
REMARK    6  A    between atoms: C_10  and  O_11 
REMARK    7  A    between atoms: C_14  and  O_15 
ROOT
HETATM    1  C   UNL     1      29.339  44.228  54.418  1.00  0.00     0.135 A 
HETATM    2  N   UNL     1      28.510  45.237  54.095  1.00  0.00    -0.052 NA
HETATM    3  C   UNL     1      28.352  46.252  54.958  1.00  0.00     0.702 A 
HETATM    4  N   UNL     1      28.997  46.295  56.121  1.00  0.00    -0.189 N 
HETATM    5  H   UNL     1      28.847  47.102  56.708  1.00  0.00     0.184 HD
HETATM    6  C   UNL     1      29.852  45.333  56.484  1.00  0.00     0.062 A 
HETATM    7  C   UNL     1      30.069  44.240  55.623  1.00  0.00     0.032 A 
HETATM    8  C   UNL     1      30.538  45.429  57.705  1.00  0.00     0.031 A 
HETATM    9  C   UNL     1      31.453  44.443  58.077  1.00  0.00     0.002 A 
HETATM   10  C   UNL     1      31.689  43.363  57.232  1.00  0.00     0.001 A 
HETATM   11  C   UNL     1      31.007  43.259  56.018  1.00  0.00     0.017 A 
ENDROOT
BRANCH   3  12
HETATM   12  N   UNL     1      27.545  47.317  54.651  1.00  0.00    -0.220 N 
HETATM   13  H   UNL     1      27.826  48.278  54.773  1.00  0.00     0.178 HD
BRANCH  12  14
HETATM   14  C   UNL     1      26.105  47.119  54.509  1.00  0.00     0.179 C 
BRANCH  14  15
HETATM   15  C   UNL     1      25.748  46.507  53.168  1.00  0.00    -0.006 A 
HETATM   16  C   UNL     1      25.079  45.265  53.133  1.00  0.00     0.078 A 
HETATM   17  C   UNL     1      24.778  44.658  51.905  1.00  0.00     0.074 A 
HETATM   18  C   UNL     1      25.158  45.263  50.706  1.00  0.00     0.070 A 
HETATM   19  C   UNL     1      25.834  46.481  50.738  1.00  0.00     0.037 A 
HETATM   20  C   UNL     1      26.137  47.094  51.953  1.00  0.00     0.014 A 
BRANCH  16  21
HETATM   21  O   UNL     1      24.767  44.732  54.360  1.00  0.00    -0.355 OA
HETATM   22  C   UNL     1      25.560  43.645  54.825  1.00  0.00     0.210 C 
ENDBRANCH  16  21
BRANCH  18  23
HETATM   23  O   UNL     1      24.933  44.776  49.447  1.00  0.00    -0.356 OA
HETATM   24  C   UNL     1      25.251  43.409  49.213  1.00  0.00     0.210 C 
ENDBRANCH  18  23
ENDBRANCH  14  15
ENDBRANCH  12  14
ENDBRANCH   3  12
BRANCH   1  25
HETATM   25  N   UNL     1      29.524  43.191  53.501  1.00  0.00    -0.272 NA
HETATM   26  H   UNL     1      30.332  42.615  53.731  1.00  0.00     0.129 HD
BRANCH  25  27
HETATM   27  C   UNL     1      28.364  42.378  53.111  1.00  0.00     0.053 C 
HETATM   28  C   UNL     1      28.691  40.887  53.199  1.00  0.00     0.026 C 
HETATM   29  C   UNL     1      27.991  42.748  51.675  1.00  0.00     0.026 C 
ENDBRANCH  25  27
ENDBRANCH   1  25
TORSDOF 7
ENDMDL
MODEL 2
REMARK VINA RESULT:      -8.1      1.901      4.132
REMARK  7 active torsions:
REMARK  status: ('A' for Active; 'I' for Inactive)
REMARK    1  A    between atoms: C_2  and  N_3 
REMARK    2  A    between atoms: N_3  and  C_4 
REMARK    3  A    between atoms: C_6  and  N_7 
REMARK    4  A    between atoms: N_7  and  C_8 
REMARK    5  A    between atoms: C_8  and  C_9 
REMARK    6  A    between atoms: C_10  and  O_11 
REMARK    7  A    between atoms: C_14  and  O_15 
ROOT
HETATM    1  C   UNL     1      27.172  45.026  54.468  1.00  0.00     0.135 A 
HETATM    2  N   UNL     1      26.408  44.412  53.548  1.00  0.00    -0.052 NA
HETATM    3  C   UNL     1      26.905  43.355  52.888  1.00  0.00     0.702 A 
HETATM    4  N   UNL     1      28.130  42.891  53.122  1.00  0.00    -0.189 N 
HETATM    5  H   UNL     1      28.427  42.076  52.606  1.00  0.00     0.184 HD
HETATM    6  C   UNL     1      28.924  43.444  54.044  1.00  0.00     0.062 A 
HETATM    7  C   UNL     1      28.464  44.556  54.776  1.00  0.00     0.032 A 
HETATM    8  C   UNL     1      30.199  42.906  54.286  1.00  0.00     0.031 A 
HETATM    9  C   UNL     1      31.022  43.462  55.265  1.00  0.00     0.002 A 
HETATM   10  C   UNL     1      30.578  44.552  56.008  1.00  0.00     0.001 A 
HETATM   11  C   UNL     1      29.313  45.095  55.770  1.00  0.00     0.017 A 
ENDROOT
BRANCH   3  12
HETATM   12  N   UNL     1      26.145  42.679  51.969  1.00  0.00    -0.220 N 
HETATM   13  H   UNL     1      25.736  41.775  52.146  1.00  0.00     0.178 HD
BRANCH  12  14
HETATM   14  C   UNL     1      26.219  43.046  50.557  1.00  0.00     0.179 C 
BRANCH  14  15
HETATM   15  C   UNL     1      25.932  44.520  50.340  1.00  0.00    -0.006 A 
HETATM   16  C   UNL     1      24.610  44.992  50.486  1.00  0.00     0.078 A 
HETATM   17  C   UNL     1      24.311  46.342  50.248  1.00  0.00     0.074 A 
HETATM   18  C   UNL     1      25.313  47.226  49.843  1.00  0.00     0.070 A 
HETATM   19  C   UNL     1      26.615  46.758  49.681  1.00  0.00     0.037 A 
HETATM   20  C   UNL     1      26.923  45.419  49.916  1.00  0.00     0.014 A 
BRANCH  16  21
HETATM   21  O   UNL     1      23.688  44.048  50.863  1.00  0.00    -0.355 OA
HETATM   22  C   UNL     1      22.620  43.774  49.962  1.00  0.00     0.210 C 
ENDBRANCH  16  21
BRANCH  18  23
HETATM   23  O   UNL     1      25.155  48.558  49.572  1.00  0.00    -0.356 OA
HETATM   24  C   UNL     1      23.994  48.940  48.844  1.00  0.00     0.210 C 
ENDBRANCH  18  23
ENDBRANCH  14  15
ENDBRANCH  12  14
ENDBRANCH   3  12
BRANCH   1  25
HETATM   25  N   UNL     1      26.637  46.106  55.175  1.00  0.00    -0.272 NA
HETATM   26  H   UNL     1      26.905  46.093  56.157  1.00  0.00     0.129 HD
BRANCH  25  27
HETATM   27  C   UNL     1      26.744  47.452  54.595  1.00  0.00     0.053 C 
HETATM   28  C   UNL     1      26.459  48.522  55.649  1.00  0.00     0.026 C 
HETATM   29  C   UNL     1      25.729  47.556  53.456  1.00  0.00     0.026 C 
ENDBRANCH  25  27
ENDBRANCH   1  25
TORSDOF 7
ENDMDL
MODEL 3
REMARK VINA RESULT:      -8.1      2.354      4.713
REMARK  7 active torsions:
REMARK  status: ('A' for Active; 'I' for Inactive)
REMARK    1  A    between atoms: C_2  and  N_3 
REMARK    2  A    between atoms: N_3  and  C_4 
REMARK    3  A    between atoms: C_6  and  N_7 
REMARK    4  A    between atoms: N_7  and  C_8 
REMARK    5  A    between atoms: C_8  and  C_9 
REMARK    6  A    between atoms: C_10  and  O_11 
REMARK    7  A    between atoms: C_14  and  O_15 
ROOT
HETATM    1  C   UNL     1      28.685  44.946  54.548  1.00  0.00     0.135 A 
HETATM    2  N   UNL     1      28.715  44.068  53.531  1.00  0.00    -0.052 NA
HETATM    3  C   UNL     1      29.620  43.077  53.551  1.00  0.00     0.702 A 
HETATM    4  N   UNL     1      30.485  42.934  54.553  1.00  0.00    -0.189 N 
HETATM    5  H   UNL     1      31.120  42.150  54.512  1.00  0.00     0.184 HD
HETATM    6  C   UNL     1      30.483  43.761  55.603  1.00  0.00     0.062 A 
HETATM    7  C   UNL     1      29.557  44.821  55.648  1.00  0.00     0.032 A 
HETATM    8  C   UNL     1      31.390  43.558  56.656  1.00  0.00     0.031 A 
HETATM    9  C   UNL     1      31.375  44.402  57.768  1.00  0.00     0.002 A 
HETATM   10  C   UNL     1      30.457  45.445  57.835  1.00  0.00     0.001 A 
HETATM   11  C   UNL     1      29.556  45.656  56.789  1.00  0.00     0.017 A 
ENDROOT
BRANCH   3  12
HETATM   12  N   UNL     1      29.660  42.140  52.552  1.00  0.00    -0.220 N 
HETATM   13  H   UNL     1      30.270  42.210  51.751  1.00  0.00     0.178 HD
BRANCH  12  14
HETATM   14  C   UNL     1      28.551  41.204  52.390  1.00  0.00     0.179 C 
BRANCH  14  15
HETATM   15  C   UNL     1      28.233  40.954  50.927  1.00  0.00    -0.006 A 
HETATM   16  C   UNL     1      27.497  41.920  50.208  1.00  0.00     0.078 A 
HETATM   17  C   UNL     1      27.152  41.693  48.868  1.00  0.00     0.074 A 
HETATM   18  C   UNL     1      27.512  40.500  48.238  1.00  0.00     0.070 A 
HETATM   19  C   UNL     1      28.224  39.537  48.951  1.00  0.00     0.037 A 
HETATM   20  C   UNL     1      28.573  39.754  50.283  1.00  0.00     0.014 A 
BRANCH  16  21
HETATM   21  O   UNL     1      27.165  43.050  50.914  1.00  0.00    -0.355 OA
HETATM   22  C   UNL     1      27.070  44.274  50.192  1.00  0.00     0.210 C 
ENDBRANCH  16  21
BRANCH  18  23
HETATM   23  O   UNL     1      27.233  40.152  46.945  1.00  0.00    -0.356 OA
HETATM   24  C   UNL     1      27.893  40.882  45.918  1.00  0.00     0.210 C 
ENDBRANCH  18  23
ENDBRANCH  14  15
ENDBRANCH  12  14
ENDBRANCH   3  12
BRANCH   1  25
HETATM   25  N   UNL     1      27.718  45.955  54.536  1.00  0.00    -0.272 NA
HETATM   26  H   UNL     1      28.134  46.884  54.518  1.00  0.00     0.129 HD
BRANCH  25  27
HETATM   27  C   UNL     1      26.590  45.840  53.603  1.00  0.00     0.053 C 
HETATM   28  C   UNL     1      26.072  47.221  53.204  1.00  0.00     0.026 C 
HETATM   29  C   UNL     1      25.482  45.047  54.299  1.00  0.00     0.026 C 
ENDBRANCH  25  27
ENDBRANCH   1  25
TORSDOF 7
ENDMDL
MODEL 4
REMARK VINA RESULT:      -8.1      3.183      4.834
REMARK  7 active torsions:
REMARK  status: ('A' for Active; 'I' for Inactive)
REMARK    1  A    between atoms: C_2  and  N_3 
REMARK    2  A    between atoms: N_3  and  C_4 
REMARK    3  A    between atoms: C_6  and  N_7 
REMARK    4  A    between atoms: N_7  and  C_8 
REMARK    5  A    between atoms: C_8  and  C_9 
REMARK    6  A    between atoms: C_10  and  O_11 
REMARK    7  A    between atoms: C_14  and  O_15 
ROOT
HETATM    1  C   UNL     1      26.807  44.009  53.191  1.00  0.00     0.135 A 
HETATM    2  N   UNL     1      25.807  43.981  52.293  1.00  0.00    -0.052 NA
HETATM    3  C   UNL     1      25.093  45.097  52.077  1.00  0.00     0.702 A 
HETATM    4  N   UNL     1      25.351  46.234  52.720  1.00  0.00    -0.189 N 
HETATM    5  H   UNL     1      24.789  47.039  52.488  1.00  0.00     0.184 HD
HETATM    6  C   UNL     1      26.350  46.327  53.604  1.00  0.00     0.062 A 
HETATM    7  C   UNL     1      27.141  45.194  53.876  1.00  0.00     0.032 A 
HETATM    8  C   UNL     1      26.612  47.551  54.240  1.00  0.00     0.031 A 
HETATM    9  C   UNL     1      27.669  47.663  55.142  1.00  0.00     0.002 A 
HETATM   10  C   UNL     1      28.470  46.557  55.412  1.00  0.00     0.001 A 
HETATM   11  C   UNL     1      28.213  45.335  54.788  1.00  0.00     0.017 A 
ENDROOT
BRANCH   3  12
HETATM   12  N   UNL     1      24.090  45.121  51.144  1.00  0.00    -0.220 N 
HETATM   13  H   UNL     1      23.179  44.716  51.299  1.00  0.00     0.178 HD
BRANCH  12  14
HETATM   14  C   UNL     1      24.408  45.377  49.741  1.00  0.00     0.179 C 
BRANCH  14  15
HETATM   15  C   UNL     1      23.685  46.602  49.213  1.00  0.00    -0.006 A 
HETATM   16  C   UNL     1      24.163  47.885  49.553  1.00  0.00     0.078 A 
HETATM   17  C   UNL     1      23.486  49.032  49.114  1.00  0.00     0.074 A 
HETATM   18  C   UNL     1      22.320  48.916  48.356  1.00  0.00     0.070 A 
HETATM   19  C   UNL     1      21.836  47.650  48.033  1.00  0.00     0.037 A 
HETATM   20  C   UNL     1      22.502  46.504  48.463  1.00  0.00     0.014 A 
BRANCH  16  21
HETATM   21  O   UNL     1      25.301  47.901  50.323  1.00  0.00    -0.355 OA
HETATM   22  C   UNL     1      26.518  48.282  49.689  1.00  0.00     0.210 C 
ENDBRANCH  16  21
BRANCH  18  23
HETATM   23  O   UNL     1      21.563  49.949  47.873  1.00  0.00    -0.356 OA
HETATM   24  C   UNL     1      21.247  51.001  48.777  1.00  0.00     0.210 C 
ENDBRANCH  18  23
ENDBRANCH  14  15
ENDBRANCH  12  14
ENDBRANCH   3  12
BRANCH   1  25
HETATM   25  N   UNL     1      27.567  42.853  53.387  1.00  0.00    -0.272 NA
HETATM   26  H   UNL     1      26.991  42.056  53.653  1.00  0.00     0.129 HD
BRANCH  25  27
HETATM   27  C   UNL     1      28.573  42.491  52.379  1.00  0.00     0.053 C 
HETATM   28  C   UNL     1      28.440  41.021  51.982  1.00  0.00     0.026 C 
HETATM   29  C   UNL     1      29.955  42.747  52.982  1.00  0.00     0.026 C 
ENDBRANCH  25  27
ENDBRANCH   1  25
TORSDOF 7
ENDMDL
MODEL 5
REMARK VINA RESULT:      -8.0      2.254      4.529
REMARK  7 active torsions:
REMARK  status: ('A' for Active; 'I' for Inactive)
REMARK    1  A    between atoms: C_2  and  N_3 
REMARK    2  A    between atoms: N_3  and  C_4 
REMARK    3  A    between atoms: C_6  and  N_7 
REMARK    4  A    between atoms: N_7  and  C_8 
REMARK    5  A    between atoms: C_8  and  C_9 
REMARK    6  A    between atoms: C_10  and  O_11 
REMARK    7  A    between atoms: C_14  and  O_15 
ROOT
HETATM    1  C   UNL     1      28.730  45.052  54.694  1.00  0.00     0.135 A 
HETATM    2  N   UNL     1      28.783  44.219  53.641  1.00  0.00    -0.052 NA
HETATM    3  C   UNL     1      29.713  43.252  53.621  1.00  0.00     0.702 A 
HETATM    4  N   UNL     1      30.580  43.088  54.617  1.00  0.00    -0.189 N 
HETATM    5  H   UNL     1      31.235  42.324  54.545  1.00  0.00     0.184 HD
HETATM    6  C   UNL     1      30.558  43.871  55.701  1.00  0.00     0.062 A 
HETATM    7  C   UNL     1      29.605  44.903  55.789  1.00  0.00     0.032 A 
HETATM    8  C   UNL     1      31.468  43.647  56.746  1.00  0.00     0.031 A 
HETATM    9  C   UNL     1      31.432  44.442  57.892  1.00  0.00     0.002 A 
HETATM   10  C   UNL     1      30.488  45.458  58.001  1.00  0.00     0.001 A 
HETATM   11  C   UNL     1      29.582  45.689  56.964  1.00  0.00     0.017 A 
ENDROOT
BRANCH   3  12
HETATM   12  N   UNL     1      29.777  42.359  52.584  1.00  0.00    -0.220 N 
HETATM   13  H   UNL     1      30.144  42.592  51.673  1.00  0.00     0.178 HD
BRANCH  12  14
HETATM   14  C   UNL     1      28.959  41.149  52.615  1.00  0.00     0.179 C 
BRANCH  14  15
HETATM   15  C   UNL     1      27.793  41.231  51.648  1.00  0.00    -0.006 A 
HETATM   16  C   UNL     1      27.724  40.320  50.572  1.00  0.00     0.078 A 
HETATM   17  C   UNL     1      26.680  40.404  49.639  1.00  0.00     0.074 A 
HETATM   18  C   UNL     1      25.711  41.403  49.752  1.00  0.00     0.070 A 
HETATM   19  C   UNL     1      25.786  42.314  50.803  1.00  0.00     0.037 A 
HETATM   20  C   UNL     1      26.819  42.239  51.736  1.00  0.00     0.014 A 
BRANCH  16  21
HETATM   21  O   UNL     1      28.733  39.389  50.527  1.00  0.00    -0.355 OA
HETATM   22  C   UNL     1      29.100  38.878  49.250  1.00  0.00     0.210 C 
ENDBRANCH  16  21
BRANCH  18  23
HETATM   23  O   UNL     1      24.651  41.599  48.910  1.00  0.00    -0.356 OA
HETATM   24  C   UNL     1      24.503  40.688  47.827  1.00  0.00     0.210 C 
ENDBRANCH  18  23
ENDBRANCH  14  15
ENDBRANCH  12  14
ENDBRANCH   3  12
BRANCH   1  25
HETATM   25  N   UNL     1      27.738  46.036  54.724  1.00  0.00    -0.272 NA
HETATM   26  H   UNL     1      28.129  46.975  54.759  1.00  0.00     0.129 HD
BRANCH  25  27
HETATM   27  C   UNL     1      26.623  45.942  53.771  1.00  0.00     0.053 C 
HETATM   28  C   UNL     1      25.971  47.309  53.562  1.00  0.00     0.026 C 
HETATM   29  C   UNL     1      25.600  44.956  54.339  1.00  0.00     0.026 C 
ENDBRANCH  25  27
ENDBRANCH   1  25
TORSDOF 7
ENDMDL
MODEL 6
REMARK VINA RESULT:      -7.9      3.499      7.744
REMARK  7 active torsions:
REMARK  status: ('A' for Active; 'I' for Inactive)
REMARK    1  A    between atoms: C_2  and  N_3 
REMARK    2  A    between atoms: N_3  and  C_4 
REMARK    3  A    between atoms: C_6  and  N_7 
REMARK    4  A    between atoms: N_7  and  C_8 
REMARK    5  A    between atoms: C_8  and  C_9 
REMARK    6  A    between atoms: C_10  and  O_11 
REMARK    7  A    between atoms: C_14  and  O_15 
ROOT
HETATM    1  C   UNL     1      24.072  47.424  49.809  1.00  0.00     0.135 A 
HETATM    2  N   UNL     1      24.362  46.395  50.624  1.00  0.00    -0.052 NA
HETATM    3  C   UNL     1      25.640  46.179  50.972  1.00  0.00     0.702 A 
HETATM    4  N   UNL     1      26.629  46.958  50.540  1.00  0.00    -0.189 N 
HETATM    5  H   UNL     1      27.562  46.750  50.863  1.00  0.00     0.184 HD
HETATM    6  C   UNL     1      26.396  48.011  49.749  1.00  0.00     0.062 A 
HETATM    7  C   UNL     1      25.077  48.297  49.348  1.00  0.00     0.032 A 
HETATM    8  C   UNL     1      27.462  48.828  49.339  1.00  0.00     0.031 A 
HETATM    9  C   UNL     1      27.223  49.944  48.536  1.00  0.00     0.002 A 
HETATM   10  C   UNL     1      25.924  50.250  48.142  1.00  0.00     0.001 A 
HETATM   11  C   UNL     1      24.859  49.438  48.542  1.00  0.00     0.017 A 
ENDROOT
BRANCH   3  12
HETATM   12  N   UNL     1      25.974  45.164  51.830  1.00  0.00    -0.220 N 
HETATM   13  H   UNL     1      26.163  44.221  51.526  1.00  0.00     0.178 HD
BRANCH  12  14
HETATM   14  C   UNL     1      25.686  45.294  53.256  1.00  0.00     0.179 C 
BRANCH  14  15
HETATM   15  C   UNL     1      26.955  45.381  54.083  1.00  0.00    -0.006 A 
HETATM   16  C   UNL     1      27.253  46.580  54.764  1.00  0.00     0.078 A 
HETATM   17  C   UNL     1      28.442  46.700  55.498  1.00  0.00     0.074 A 
HETATM   18  C   UNL     1      29.353  45.644  55.544  1.00  0.00     0.070 A 
HETATM   19  C   UNL     1      29.069  44.464  54.858  1.00  0.00     0.037 A 
HETATM   20  C   UNL     1      27.890  44.334  54.127  1.00  0.00     0.014 A 
BRANCH  16  21
HETATM   21  O   UNL     1      26.312  47.573  54.642  1.00  0.00    -0.355 OA
HETATM   22  C   UNL     1      26.287  48.582  55.646  1.00  0.00     0.210 C 
ENDBRANCH  16  21
BRANCH  18  23
HETATM   23  O   UNL     1      30.546  45.633  56.213  1.00  0.00    -0.356 OA
HETATM   24  C   UNL     1      30.513  45.307  57.597  1.00  0.00     0.210 C 
ENDBRANCH  18  23
ENDBRANCH  14  15
ENDBRANCH  12  14
ENDBRANCH   3  12
BRANCH   1  25
HETATM   25  N   UNL     1      22.735  47.662  49.478  1.00  0.00    -0.272 NA
HETATM   26  H   UNL     1      22.456  48.620  49.679  1.00  0.00     0.129 HD
BRANCH  25  27
HETATM   27  C   UNL     1      22.241  47.209  48.170  1.00  0.00     0.053 C 
HETATM   28  C   UNL     1      21.311  48.252  47.550  1.00  0.00     0.026 C 
HETATM   29  C   UNL     1      21.488  45.895  48.381  1.00  0.00     0.026 C 
ENDBRANCH  25  27
ENDBRANCH   1  25
TORSDOF 7
ENDMDL
MODEL 7
REMARK VINA RESULT:      -7.9      3.234      7.448
REMARK  7 active torsions:
REMARK  status: ('A' for Active; 'I' for Inactive)
REMARK    1  A    between atoms: C_2  and  N_3 
REMARK    2  A    between atoms: N_3  and  C_4 
REMARK    3  A    between atoms: C_6  and  N_7 
REMARK    4  A    between atoms: N_7  and  C_8 
REMARK    5  A    between atoms: C_8  and  C_9 
REMARK    6  A    between atoms: C_10  and  O_11 
REMARK    7  A    between atoms: C_14  and  O_15 
ROOT
HETATM    1  C   UNL     1      27.217  41.525  49.604  1.00  0.00     0.135 A 
HETATM    2  N   UNL     1      27.573  41.949  50.830  1.00  0.00    -0.052 NA
HETATM    3  C   UNL     1      28.363  41.170  51.584  1.00  0.00     0.702 A 
HETATM    4  N   UNL     1      28.812  39.994  51.153  1.00  0.00    -0.189 N 
HETATM    5  H   UNL     1      29.423  39.475  51.766  1.00  0.00     0.184 HD
HETATM    6  C   UNL     1      28.513  39.534  49.933  1.00  0.00     0.062 A 
HETATM    7  C   UNL     1      27.690  40.303  49.088  1.00  0.00     0.032 A 
HETATM    8  C   UNL     1      29.032  38.303  49.501  1.00  0.00     0.031 A 
HETATM    9  C   UNL     1      28.746  37.831  48.220  1.00  0.00     0.002 A 
HETATM   10  C   UNL     1      27.946  38.584  47.366  1.00  0.00     0.001 A 
HETATM   11  C   UNL     1      27.422  39.807  47.790  1.00  0.00     0.017 A 
ENDROOT
BRANCH   3  12
HETATM   12  N   UNL     1      28.778  41.581  52.824  1.00  0.00    -0.220 N 
HETATM   13  H   UNL     1      28.184  41.569  53.640  1.00  0.00     0.178 HD
BRANCH  12  14
HETATM   14  C   UNL     1      29.963  42.426  52.950  1.00  0.00     0.179 C 
BRANCH  14  15
HETATM   15  C   UNL     1      29.851  43.383  54.122  1.00  0.00    -0.006 A 
HETATM   16  C   UNL     1      28.864  44.391  54.096  1.00  0.00     0.078 A 
HETATM   17  C   UNL     1      28.770  45.316  55.147  1.00  0.00     0.074 A 
HETATM   18  C   UNL     1      29.665  45.263  56.217  1.00  0.00     0.070 A 
HETATM   19  C   UNL     1      30.651  44.279  56.236  1.00  0.00     0.037 A 
HETATM   20  C   UNL     1      30.753  43.354  55.198  1.00  0.00     0.014 A 
BRANCH  16  21
HETATM   21  O   UNL     1      28.045  44.382  52.994  1.00  0.00    -0.355 OA
HETATM   22  C   UNL     1      26.646  44.526  53.213  1.00  0.00     0.210 C 
ENDBRANCH  16  21
BRANCH  18  23
HETATM   23  O   UNL     1      29.686  46.104  57.295  1.00  0.00    -0.356 OA
HETATM   24  C   UNL     1      30.307  45.625  58.482  1.00  0.00     0.210 C 
ENDBRANCH  18  23
ENDBRANCH  14  15
ENDBRANCH  12  14
ENDBRANCH   3  12
BRANCH   1  25
HETATM   25  N   UNL     1      26.421  42.356  48.811  1.00  0.00    -0.272 NA
HETATM   26  H   UNL     1      26.523  42.152  47.819  1.00  0.00     0.129 HD
BRANCH  25  27
HETATM   27  C   UNL     1      25.015  42.555  49.188  1.00  0.00     0.053 C 
HETATM   28  C   UNL     1      24.112  41.553  48.468  1.00  0.00     0.026 C 
HETATM   29  C   UNL     1      24.622  43.983  48.805  1.00  0.00     0.026 C 
ENDBRANCH  25  27
ENDBRANCH   1  25
TORSDOF 7
ENDMDL
MODEL 8
REMARK VINA RESULT:      -7.9      3.408      7.977
REMARK  7 active torsions:
REMARK  status: ('A' for Active; 'I' for Inactive)
REMARK    1  A    between atoms: C_2  and  N_3 
REMARK    2  A    between atoms: N_3  and  C_4 
REMARK    3  A    between atoms: C_6  and  N_7 
REMARK    4  A    between atoms: N_7  and  C_8 
REMARK    5  A    between atoms: C_8  and  C_9 
REMARK    6  A    between atoms: C_10  and  O_11 
REMARK    7  A    between atoms: C_14  and  O_15 
ROOT
HETATM    1  C   UNL     1      23.953  47.591  49.485  1.00  0.00     0.135 A 
HETATM    2  N   UNL     1      24.826  47.903  50.459  1.00  0.00    -0.052 NA
HETATM    3  C   UNL     1      25.243  46.940  51.294  1.00  0.00     0.702 A 
HETATM    4  N   UNL     1      24.825  45.681  51.182  1.00  0.00    -0.189 N 
HETATM    5  H   UNL     1      25.202  45.005  51.830  1.00  0.00     0.184 HD
HETATM    6  C   UNL     1      23.978  45.307  50.216  1.00  0.00     0.062 A 
HETATM    7  C   UNL     1      23.503  46.268  49.304  1.00  0.00     0.032 A 
HETATM    8  C   UNL     1      23.585  43.964  50.111  1.00  0.00     0.031 A 
HETATM    9  C   UNL     1      22.723  43.562  49.089  1.00  0.00     0.002 A 
HETATM   10  C   UNL     1      22.255  44.496  48.170  1.00  0.00     0.001 A 
HETATM   11  C   UNL     1      22.638  45.835  48.272  1.00  0.00     0.017 A 
ENDROOT
BRANCH   3  12
HETATM   12  N   UNL     1      26.160  47.208  52.276  1.00  0.00    -0.220 N 
HETATM   13  H   UNL     1      27.120  47.454  52.087  1.00  0.00     0.178 HD
BRANCH  12  14
HETATM   14  C   UNL     1      25.906  46.769  53.646  1.00  0.00     0.179 C 
BRANCH  14  15
HETATM   15  C   UNL     1      27.156  46.211  54.301  1.00  0.00    -0.006 A 
HETATM   16  C   UNL     1      27.655  44.961  53.879  1.00  0.00     0.078 A 
HETATM   17  C   UNL     1      28.784  44.405  54.499  1.00  0.00     0.074 A 
HETATM   18  C   UNL     1      29.410  45.070  55.555  1.00  0.00     0.070 A 
HETATM   19  C   UNL     1      28.908  46.297  55.984  1.00  0.00     0.037 A 
HETATM   20  C   UNL     1      27.788  46.859  55.374  1.00  0.00     0.014 A 
BRANCH  16  21
HETATM   21  O   UNL     1      26.962  44.368  52.853  1.00  0.00    -0.355 OA
HETATM   22  C   UNL     1      27.707  43.607  51.908  1.00  0.00     0.210 C 
ENDBRANCH  16  21
BRANCH  18  23
HETATM   23  O   UNL     1      30.507  44.636  56.247  1.00  0.00    -0.356 OA
HETATM   24  C   UNL     1      30.972  43.320  55.971  1.00  0.00     0.210 C 
ENDBRANCH  18  23
ENDBRANCH  14  15
ENDBRANCH  12  14
ENDBRANCH   3  12
BRANCH   1  25
HETATM   25  N   UNL     1      23.548  48.593  48.599  1.00  0.00    -0.272 NA
HETATM   26  H   UNL     1      23.338  48.225  47.674  1.00  0.00     0.129 HD
BRANCH  25  27
HETATM   27  C   UNL     1      22.538  49.563  49.045  1.00  0.00     0.053 C 
HETATM   28  C   UNL     1      21.247  49.412  48.240  1.00  0.00     0.026 C 
HETATM   29  C   UNL     1      23.115  50.966  48.851  1.00  0.00     0.026 C 
ENDBRANCH  25  27
ENDBRANCH   1  25
TORSDOF 7
ENDMDL
MODEL 9
REMARK VINA RESULT:      -7.7      3.455      5.867
REMARK  7 active torsions:
REMARK  status: ('A' for Active; 'I' for Inactive)
REMARK    1  A    between atoms: C_2  and  N_3 
REMARK    2  A    between atoms: N_3  and  C_4 
REMARK    3  A    between atoms: C_6  and  N_7 
REMARK    4  A    between atoms: N_7  and  C_8 
REMARK    5  A    between atoms: C_8  and  C_9 
REMARK    6  A    between atoms: C_10  and  O_11 
REMARK    7  A    between atoms: C_14  and  O_15 
ROOT
HETATM    1  C   UNL     1      27.308  44.389  54.163  1.00  0.00     0.135 A 
HETATM    2  N   UNL     1      27.000  43.325  53.401  1.00  0.00    -0.052 NA
HETATM    3  C   UNL     1      27.898  42.337  53.267  1.00  0.00     0.702 A 
HETATM    4  N   UNL     1      29.082  42.375  53.872  1.00  0.00    -0.189 N 
HETATM    5  H   UNL     1      29.697  41.584  53.746  1.00  0.00     0.184 HD
HETATM    6  C   UNL     1      29.433  43.395  54.663  1.00  0.00     0.062 A 
HETATM    7  C   UNL     1      28.536  44.464  54.851  1.00  0.00     0.032 A 
HETATM    8  C   UNL     1      30.678  43.384  55.311  1.00  0.00     0.031 A 
HETATM    9  C   UNL     1      31.038  44.431  56.159  1.00  0.00     0.002 A 
HETATM   10  C   UNL     1      30.159  45.489  56.367  1.00  0.00     0.001 A 
HETATM   11  C   UNL     1      28.920  45.509  55.722  1.00  0.00     0.017 A 
ENDROOT
BRANCH   3  12
HETATM   12  N   UNL     1      27.609  41.219  52.528  1.00  0.00    -0.220 N 
HETATM   13  H   UNL     1      26.692  40.801  52.491  1.00  0.00     0.178 HD
BRANCH  12  14
HETATM   14  C   UNL     1      28.691  40.348  52.077  1.00  0.00     0.179 C 
BRANCH  14  15
HETATM   15  C   UNL     1      28.476  39.874  50.652  1.00  0.00    -0.006 A 
HETATM   16  C   UNL     1      29.191  38.750  50.185  1.00  0.00     0.078 A 
HETATM   17  C   UNL     1      29.043  38.319  48.858  1.00  0.00     0.074 A 
HETATM   18  C   UNL     1      28.206  39.010  47.980  1.00  0.00     0.070 A 
HETATM   19  C   UNL     1      27.512  40.130  48.434  1.00  0.00     0.037 A 
HETATM   20  C   UNL     1      27.651  40.566  49.751  1.00  0.00     0.014 A 
BRANCH  16  21
HETATM   21  O   UNL     1      30.010  38.150  51.109  1.00  0.00    -0.355 OA
HETATM   22  C   UNL     1      29.789  36.770  51.385  1.00  0.00     0.210 C 
ENDBRANCH  16  21
BRANCH  18  23
HETATM   23  O   UNL     1      27.980  38.701  46.667  1.00  0.00    -0.356 OA
HETATM   24  C   UNL     1      26.947  39.415  46.000  1.00  0.00     0.210 C 
ENDBRANCH  18  23
ENDBRANCH  14  15
ENDBRANCH  12  14
ENDBRANCH   3  12
BRANCH   1  25
HETATM   25  N   UNL     1      26.356  45.398  54.325  1.00  0.00    -0.272 NA
HETATM   26  H   UNL     1      26.137  45.566  55.305  1.00  0.00     0.129 HD
BRANCH  25  27
HETATM   27  C   UNL     1      26.524  46.653  53.578  1.00  0.00     0.053 C 
HETATM   28  C   UNL     1      26.265  47.860  54.479  1.00  0.00     0.026 C 
HETATM   29  C   UNL     1      25.530  46.645  52.416  1.00  0.00     0.026 C 
ENDBRANCH  25  27
ENDBRANCH   1  25
TORSDOF 7
ENDMDL
MODEL 10
REMARK VINA RESULT:      -7.5      3.174      4.838
REMARK  7 active torsions:
REMARK  status: ('A' for Active; 'I' for Inactive)
REMARK    1  A    between atoms: C_2  and  N_3 
REMARK    2  A    between atoms: N_3  and  C_4 
REMARK    3  A    between atoms: C_6  and  N_7 
REMARK    4  A    between atoms: N_7  and  C_8 
REMARK    5  A    between atoms: C_8  and  C_9 
REMARK    6  A    between atoms: C_10  and  O_11 
REMARK    7  A    between atoms: C_14  and  O_15 
ROOT
HETATM    1  C   UNL     1      26.803  44.003  53.408  1.00  0.00     0.135 A 
HETATM    2  N   UNL     1      25.835  43.917  52.479  1.00  0.00    -0.052 NA
HETATM    3  C   UNL     1      25.096  45.003  52.206  1.00  0.00     0.702 A 
HETATM    4  N   UNL     1      25.297  46.165  52.822  1.00  0.00    -0.189 N 
HETATM    5  H   UNL     1      24.719  46.946  52.547  1.00  0.00     0.184 HD
HETATM    6  C   UNL     1      26.262  46.316  53.736  1.00  0.00     0.062 A 
HETATM    7  C   UNL     1      27.078  45.217  54.068  1.00  0.00     0.032 A 
HETATM    8  C   UNL     1      26.465  47.566  54.341  1.00  0.00     0.031 A 
HETATM    9  C   UNL     1      27.488  47.737  55.275  1.00  0.00     0.002 A 
HETATM   10  C   UNL     1      28.312  46.666  55.604  1.00  0.00     0.001 A 
HETATM   11  C   UNL     1      28.114  45.418  55.009  1.00  0.00     0.017 A 
ENDROOT
BRANCH   3  12
HETATM   12  N   UNL     1      24.124  44.968  51.241  1.00  0.00    -0.220 N 
HETATM   13  H   UNL     1      23.231  44.516  51.369  1.00  0.00     0.178 HD
BRANCH  12  14
HETATM   14  C   UNL     1      24.475  45.233  49.847  1.00  0.00     0.179 C 
BRANCH  14  15
HETATM   15  C   UNL     1      23.856  46.524  49.345  1.00  0.00    -0.006 A 
HETATM   16  C   UNL     1      22.603  46.482  48.698  1.00  0.00     0.078 A 
HETATM   17  C   UNL     1      22.031  47.656  48.186  1.00  0.00     0.074 A 
HETATM   18  C   UNL     1      22.706  48.874  48.291  1.00  0.00     0.070 A 
HETATM   19  C   UNL     1      23.951  48.915  48.915  1.00  0.00     0.037 A 
HETATM   20  C   UNL     1      24.528  47.755  49.428  1.00  0.00     0.014 A 
BRANCH  16  21
HETATM   21  O   UNL     1      22.026  45.238  48.618  1.00  0.00    -0.355 OA
HETATM   22  C   UNL     1      20.617  45.179  48.416  1.00  0.00     0.210 C 
ENDBRANCH  16  21
BRANCH  18  23
HETATM   23  O   UNL     1      22.266  50.084  47.830  1.00  0.00    -0.356 OA
HETATM   24  C   UNL     1      21.670  50.963  48.777  1.00  0.00     0.210 C 
ENDBRANCH  18  23
ENDBRANCH  14  15
ENDBRANCH  12  14
ENDBRANCH   3  12
BRANCH   1  25
HETATM   25  N   UNL     1      27.591  42.877  53.664  1.00  0.00    -0.272 NA
HETATM   26  H   UNL     1      27.055  42.121  54.084  1.00  0.00     0.129 HD
BRANCH  25  27
HETATM   27  C   UNL     1      28.490  42.391  52.608  1.00  0.00     0.053 C 
HETATM   28  C   UNL     1      28.614  40.868  52.659  1.00  0.00     0.026 C 
HETATM   29  C   UNL     1      29.860  43.036  52.823  1.00  0.00     0.026 C 
ENDBRANCH  25  27
ENDBRANCH   1  25
TORSDOF 7
ENDMDL
