MODEL 1
REMARK VINA RESULT:      -8.5      0.000      0.000
REMARK  6 active torsions:
REMARK  status: ('A' for Active; 'I' for Inactive)
REMARK    1  A    between atoms: C_2  and  N_3 
REMARK    2  A    between atoms: C_2  and  C_21 
REMARK    3  A    between atoms: N_3  and  C_6 
REMARK    4  A    between atoms: C_6  and  C_7 
REMARK       I    between atoms: C_7  and  N_8 
REMARK    5  A    between atoms: N_8  and  C_9 
REMARK    6  A    between atoms: C_16  and  C_17 
REMARK       I    between atoms: C_17  and  N_18 
ROOT
HETATM    1  C   UNL     1      25.579  44.689  53.085  1.00  0.00     0.248 C 
HETATM    2  N   UNL     1      26.932  44.875  52.927  1.00  0.00    -0.319 N 
HETATM    3  O   UNL     1      24.960  44.285  54.066  1.00  0.00    -0.271 OA
HETATM    4  H   UNL     1      27.294  45.250  52.048  1.00  0.00     0.169 HD
ENDROOT
BRANCH   2   5
HETATM    5  C   UNL     1      27.917  44.765  53.901  1.00  0.00     0.093 A 
HETATM    6  S   UNL     1      28.202  46.013  55.031  1.00  0.00    -0.075 SA
HETATM    7  C   UNL     1      29.467  45.154  55.693  1.00  0.00    -0.008 A 
HETATM    8  C   UNL     1      29.685  43.931  55.118  1.00  0.00    -0.026 A 
HETATM    9  C   UNL     1      30.417  45.512  56.772  1.00  0.00     0.047 C 
HETATM   10  C   UNL     1      30.856  43.266  55.752  1.00  0.00     0.041 C 
HETATM   11  C   UNL     1      28.776  43.669  54.049  1.00  0.00     0.072 A 
HETATM   12  C   UNL     1      31.121  44.147  57.013  1.00  0.00     0.010 C 
BRANCH  11  13
HETATM   13  C   UNL     1      28.690  42.521  53.146  1.00  0.00     0.252 C 
HETATM   14  N   UNL     1      29.832  42.122  52.523  1.00  0.00    -0.366 N 
HETATM   15  H   UNL     1      30.743  42.474  52.767  1.00  0.00     0.159 HD
HETATM   16  H   UNL     1      29.792  41.279  51.965  1.00  0.00     0.159 HD
HETATM   17  O   UNL     1      27.633  41.914  52.965  1.00  0.00    -0.268 OA
ENDBRANCH  11  13
ENDBRANCH   2   5
BRANCH   1  18
HETATM   18  C   UNL     1      24.761  45.157  51.884  1.00  0.00     0.335 C 
BRANCH  18  19
HETATM   19  N   UNL     1      24.980  46.629  51.624  1.00  0.00    -0.057 N 
HETATM   20  H   UNL     1      26.010  46.755  51.659  1.00  0.00     0.278 HD
HETATM   21  H   UNL     1      24.599  47.190  52.391  1.00  0.00     0.278 HD
BRANCH  19  22
HETATM   22  C   UNL     1      24.549  47.199  50.300  1.00  0.00     0.239 C 
HETATM   23  C   UNL     1      24.034  46.092  49.387  1.00  0.00     0.047 C 
BRANCH  22  24
HETATM   24  C   UNL     1      25.600  48.052  49.685  1.00  0.00     0.082 A 
HETATM   25  O   UNL     1      25.125  49.019  48.846  1.00  0.00    -0.325 OA
HETATM   26  C   UNL     1      26.195  49.723  48.397  1.00  0.00     0.142 A 
HETATM   27  C   UNL     1      27.356  49.221  48.936  1.00  0.00     0.027 A 
HETATM   28  C   UNL     1      26.975  48.139  49.768  1.00  0.00     0.037 A 
ENDBRANCH  22  24
ENDBRANCH  19  22
ENDBRANCH  18  19
ENDBRANCH   1  18
TORSDOF 6
ENDMDL
MODEL 2
REMARK VINA RESULT:      -8.2      1.043      1.833
REMARK  6 active torsions:
REMARK  status: ('A' for Active; 'I' for Inactive)
REMARK    1  A    between atoms: C_2  and  N_3 
REMARK    2  A    between atoms: C_2  and  C_21 
REMARK    3  A    between atoms: N_3  and  C_6 
REMARK    4  A    between atoms: C_6  and  C_7 
REMARK       I    between atoms: C_7  and  N_8 
REMARK    5  A    between atoms: N_8  and  C_9 
REMARK    6  A    between atoms: C_16  and  C_17 
REMARK       I    between atoms: C_17  and  N_18 
ROOT
HETATM    1  C   UNL     1      25.609  44.709  53.133  1.00  0.00     0.248 C 
HETATM    2  N   UNL     1      26.960  44.918  52.983  1.00  0.00    -0.319 N 
HETATM    3  O   UNL     1      24.994  44.276  54.105  1.00  0.00    -0.271 OA
HETATM    4  H   UNL     1      27.318  45.315  52.111  1.00  0.00     0.169 HD
ENDROOT
BRANCH   2   5
HETATM    5  C   UNL     1      27.944  44.803  53.957  1.00  0.00     0.093 A 
HETATM    6  S   UNL     1      28.249  46.057  55.073  1.00  0.00    -0.075 SA
HETATM    7  C   UNL     1      29.502  45.186  55.742  1.00  0.00    -0.008 A 
HETATM    8  C   UNL     1      29.700  43.954  55.180  1.00  0.00    -0.026 A 
HETATM    9  C   UNL     1      30.458  45.541  56.817  1.00  0.00     0.047 C 
HETATM   10  C   UNL     1      30.862  43.278  55.820  1.00  0.00     0.041 C 
HETATM   11  C   UNL     1      28.787  43.695  54.115  1.00  0.00     0.072 A 
HETATM   12  C   UNL     1      31.142  44.168  57.071  1.00  0.00     0.010 C 
BRANCH  11  13
HETATM   13  C   UNL     1      28.681  42.539  53.224  1.00  0.00     0.252 C 
HETATM   14  N   UNL     1      29.790  42.182  52.521  1.00  0.00    -0.366 N 
HETATM   15  H   UNL     1      30.702  42.571  52.698  1.00  0.00     0.159 HD
HETATM   16  H   UNL     1      29.745  41.335  51.970  1.00  0.00     0.159 HD
HETATM   17  O   UNL     1      27.640  41.890  53.120  1.00  0.00    -0.268 OA
ENDBRANCH  11  13
ENDBRANCH   2   5
BRANCH   1  18
HETATM   18  C   UNL     1      24.787  45.189  51.940  1.00  0.00     0.335 C 
BRANCH  18  19
HETATM   19  N   UNL     1      25.112  46.626  51.605  1.00  0.00    -0.057 N 
HETATM   20  H   UNL     1      26.043  46.794  52.031  1.00  0.00     0.278 HD
HETATM   21  H   UNL     1      24.464  47.260  52.080  1.00  0.00     0.278 HD
BRANCH  19  22
HETATM   22  C   UNL     1      25.253  47.014  50.159  1.00  0.00     0.239 C 
HETATM   23  C   UNL     1      26.463  47.922  49.968  1.00  0.00     0.047 C 
BRANCH  22  24
HETATM   24  C   UNL     1      23.990  47.560  49.596  1.00  0.00     0.082 A 
HETATM   25  O   UNL     1      23.761  48.874  49.889  1.00  0.00    -0.325 OA
HETATM   26  C   UNL     1      22.598  49.224  49.283  1.00  0.00     0.142 A 
HETATM   27  C   UNL     1      22.072  48.151  48.604  1.00  0.00     0.027 A 
HETATM   28  C   UNL     1      22.969  47.073  48.805  1.00  0.00     0.037 A 
ENDBRANCH  22  24
ENDBRANCH  19  22
ENDBRANCH  18  19
ENDBRANCH   1  18
TORSDOF 6
ENDMDL
MODEL 3
REMARK VINA RESULT:      -7.9      1.811      3.013
REMARK  6 active torsions:
REMARK  status: ('A' for Active; 'I' for Inactive)
REMARK    1  A    between atoms: C_2  and  N_3 
REMARK    2  A    between atoms: C_2  and  C_21 
REMARK    3  A    between atoms: N_3  and  C_6 
REMARK    4  A    between atoms: C_6  and  C_7 
REMARK       I    between atoms: C_7  and  N_8 
REMARK    5  A    between atoms: N_8  and  C_9 
REMARK    6  A    between atoms: C_16  and  C_17 
REMARK       I    between atoms: C_17  and  N_18 
ROOT
HETATM    1  C   UNL     1      25.444  44.585  52.568  1.00  0.00     0.248 C 
HETATM    2  N   UNL     1      26.759  44.982  52.489  1.00  0.00    -0.319 N 
HETATM    3  O   UNL     1      24.896  43.882  53.413  1.00  0.00    -0.271 OA
HETATM    4  H   UNL     1      27.057  45.598  51.730  1.00  0.00     0.169 HD
ENDROOT
BRANCH   2   5
HETATM    5  C   UNL     1      27.759  44.777  53.431  1.00  0.00     0.093 A 
HETATM    6  S   UNL     1      28.765  43.399  53.385  1.00  0.00    -0.075 SA
HETATM    7  C   UNL     1      29.534  43.887  54.780  1.00  0.00    -0.008 A 
HETATM    8  C   UNL     1      29.088  45.078  55.286  1.00  0.00    -0.026 A 
HETATM    9  C   UNL     1      30.591  43.227  55.580  1.00  0.00     0.047 C 
HETATM   10  C   UNL     1      29.809  45.401  56.548  1.00  0.00     0.041 C 
HETATM   11  C   UNL     1      28.032  45.634  54.505  1.00  0.00     0.072 A 
HETATM   12  C   UNL     1      30.981  44.370  56.558  1.00  0.00     0.010 C 
BRANCH  11  13
HETATM   13  C   UNL     1      27.247  46.851  54.713  1.00  0.00     0.252 C 
HETATM   14  N   UNL     1      27.913  48.037  54.724  1.00  0.00    -0.366 N 
HETATM   15  H   UNL     1      28.878  48.128  54.448  1.00  0.00     0.159 HD
HETATM   16  H   UNL     1      27.364  48.885  54.784  1.00  0.00     0.159 HD
HETATM   17  O   UNL     1      26.023  46.820  54.852  1.00  0.00    -0.268 OA
ENDBRANCH  11  13
ENDBRANCH   2   5
BRANCH   1  18
HETATM   18  C   UNL     1      24.559  45.210  51.493  1.00  0.00     0.335 C 
BRANCH  18  19
HETATM   19  N   UNL     1      24.864  46.681  51.332  1.00  0.00    -0.057 N 
HETATM   20  H   UNL     1      25.791  46.811  51.782  1.00  0.00     0.278 HD
HETATM   21  H   UNL     1      24.204  47.246  51.873  1.00  0.00     0.278 HD
BRANCH  19  22
HETATM   22  C   UNL     1      25.010  47.239  49.942  1.00  0.00     0.239 C 
HETATM   23  C   UNL     1      26.302  48.037  49.822  1.00  0.00     0.047 C 
BRANCH  22  24
HETATM   24  C   UNL     1      23.797  47.978  49.502  1.00  0.00     0.082 A 
HETATM   25  O   UNL     1      23.856  49.329  49.694  1.00  0.00    -0.325 OA
HETATM   26  C   UNL     1      22.699  49.853  49.218  1.00  0.00     0.142 A 
HETATM   27  C   UNL     1      21.892  48.858  48.722  1.00  0.00     0.027 A 
HETATM   28  C   UNL     1      22.598  47.642  48.906  1.00  0.00     0.037 A 
ENDBRANCH  22  24
ENDBRANCH  19  22
ENDBRANCH  18  19
ENDBRANCH   1  18
TORSDOF 6
ENDMDL
MODEL 4
REMARK VINA RESULT:      -7.7      2.772      3.748
REMARK  6 active torsions:
REMARK  status: ('A' for Active; 'I' for Inactive)
REMARK    1  A    between atoms: C_2  and  N_3 
REMARK    2  A    between atoms: C_2  and  C_21 
REMARK    3  A    between atoms: N_3  and  C_6 
REMARK    4  A    between atoms: C_6  and  C_7 
REMARK       I    between atoms: C_7  and  N_8 
REMARK    5  A    between atoms: N_8  and  C_9 
REMARK    6  A    between atoms: C_16  and  C_17 
REMARK       I    between atoms: C_17  and  N_18 
ROOT
HETATM    1  C   UNL     1      25.560  44.590  53.154  1.00  0.00     0.248 C 
HETATM    2  N   UNL     1      26.897  44.875  53.005  1.00  0.00    -0.319 N 
HETATM    3  O   UNL     1      24.975  44.092  54.113  1.00  0.00    -0.271 OA
HETATM    4  H   UNL     1      27.227  45.321  52.146  1.00  0.00     0.169 HD
ENDROOT
BRANCH   2   5
HETATM    5  C   UNL     1      27.891  44.781  53.970  1.00  0.00     0.093 A 
HETATM    6  S   UNL     1      28.201  46.053  55.065  1.00  0.00    -0.075 SA
HETATM    7  C   UNL     1      29.467  45.199  55.733  1.00  0.00    -0.008 A 
HETATM    8  C   UNL     1      29.666  43.960  55.186  1.00  0.00    -0.026 A 
HETATM    9  C   UNL     1      30.432  45.575  56.792  1.00  0.00     0.047 C 
HETATM   10  C   UNL     1      30.839  43.300  55.823  1.00  0.00     0.041 C 
HETATM   11  C   UNL     1      28.743  43.681  54.135  1.00  0.00     0.072 A 
HETATM   12  C   UNL     1      31.127  44.210  57.058  1.00  0.00     0.010 C 
BRANCH  11  13
HETATM   13  C   UNL     1      28.635  42.511  53.262  1.00  0.00     0.252 C 
HETATM   14  N   UNL     1      29.688  42.235  52.446  1.00  0.00    -0.366 N 
HETATM   15  H   UNL     1      30.581  42.696  52.524  1.00  0.00     0.159 HD
HETATM   16  H   UNL     1      29.652  41.381  51.904  1.00  0.00     0.159 HD
HETATM   17  O   UNL     1      27.643  41.781  53.271  1.00  0.00    -0.268 OA
ENDBRANCH  11  13
ENDBRANCH   2   5
BRANCH   1  18
HETATM   18  C   UNL     1      24.706  45.065  51.982  1.00  0.00     0.335 C 
BRANCH  18  19
HETATM   19  N   UNL     1      25.366  44.731  50.665  1.00  0.00    -0.057 N 
HETATM   20  H   UNL     1      26.355  44.525  50.907  1.00  0.00     0.278 HD
HETATM   21  H   UNL     1      25.389  45.554  50.055  1.00  0.00     0.278 HD
BRANCH  19  22
HETATM   22  C   UNL     1      24.880  43.531  49.899  1.00  0.00     0.239 C 
HETATM   23  C   UNL     1      23.461  43.170  50.320  1.00  0.00     0.047 C 
BRANCH  22  24
HETATM   24  C   UNL     1      25.839  42.396  49.963  1.00  0.00     0.082 A 
HETATM   25  O   UNL     1      25.311  41.235  50.453  1.00  0.00    -0.325 OA
HETATM   26  C   UNL     1      26.294  40.301  50.417  1.00  0.00     0.142 A 
HETATM   27  C   UNL     1      27.451  40.844  49.912  1.00  0.00     0.027 A 
HETATM   28  C   UNL     1      27.161  42.200  49.618  1.00  0.00     0.037 A 
ENDBRANCH  22  24
ENDBRANCH  19  22
ENDBRANCH  18  19
ENDBRANCH   1  18
TORSDOF 6
ENDMDL
MODEL 5
REMARK VINA RESULT:      -7.6      3.263      5.326
REMARK  6 active torsions:
REMARK  status: ('A' for Active; 'I' for Inactive)
REMARK    1  A    between atoms: C_2  and  N_3 
REMARK    2  A    between atoms: C_2  and  C_21 
REMARK    3  A    between atoms: N_3  and  C_6 
REMARK    4  A    between atoms: C_6  and  C_7 
REMARK       I    between atoms: C_7  and  N_8 
REMARK    5  A    between atoms: N_8  and  C_9 
REMARK    6  A    between atoms: C_16  and  C_17 
REMARK       I    between atoms: C_17  and  N_18 
ROOT
HETATM    1  C   UNL     1      26.008  43.580  51.580  1.00  0.00     0.248 C 
HETATM    2  N   UNL     1      26.208  43.284  52.909  1.00  0.00    -0.319 N 
HETATM    3  O   UNL     1      26.631  44.352  50.855  1.00  0.00    -0.271 OA
HETATM    4  H   UNL     1      25.615  42.590  53.368  1.00  0.00     0.169 HD
ENDROOT
BRANCH   2   5
HETATM    5  C   UNL     1      27.257  43.704  53.716  1.00  0.00     0.093 A 
HETATM    6  S   UNL     1      27.213  45.202  54.535  1.00  0.00    -0.075 SA
HETATM    7  C   UNL     1      28.746  44.944  55.135  1.00  0.00    -0.008 A 
HETATM    8  C   UNL     1      29.304  43.749  54.770  1.00  0.00    -0.026 A 
HETATM    9  C   UNL     1      29.616  45.810  55.963  1.00  0.00     0.047 C 
HETATM   10  C   UNL     1      30.682  43.636  55.321  1.00  0.00     0.041 C 
HETATM   11  C   UNL     1      28.442  42.987  53.926  1.00  0.00     0.072 A 
HETATM   12  C   UNL     1      30.753  44.818  56.338  1.00  0.00     0.010 C 
BRANCH  11  13
HETATM   13  C   UNL     1      28.660  41.693  53.278  1.00  0.00     0.252 C 
HETATM   14  N   UNL     1      29.709  41.589  52.418  1.00  0.00    -0.366 N 
HETATM   15  H   UNL     1      30.419  42.298  52.327  1.00  0.00     0.159 HD
HETATM   16  H   UNL     1      29.913  40.675  52.034  1.00  0.00     0.159 HD
HETATM   17  O   UNL     1      27.942  40.720  53.509  1.00  0.00    -0.268 OA
ENDBRANCH  11  13
ENDBRANCH   2   5
BRANCH   1  18
HETATM   18  C   UNL     1      24.915  42.735  50.932  1.00  0.00     0.335 C 
BRANCH  18  19
HETATM   19  N   UNL     1      25.386  41.315  50.721  1.00  0.00    -0.057 N 
HETATM   20  H   UNL     1      24.519  40.744  50.731  1.00  0.00     0.278 HD
HETATM   21  H   UNL     1      25.944  40.999  51.519  1.00  0.00     0.278 HD
BRANCH  19  22
HETATM   22  C   UNL     1      26.081  40.971  49.432  1.00  0.00     0.239 C 
HETATM   23  C   UNL     1      25.072  40.864  48.295  1.00  0.00     0.047 C 
BRANCH  22  24
HETATM   24  C   UNL     1      26.968  39.785  49.570  1.00  0.00     0.082 A 
HETATM   25  O   UNL     1      28.205  40.059  50.080  1.00  0.00    -0.325 OA
HETATM   26  C   UNL     1      28.872  38.881  50.170  1.00  0.00     0.142 A 
HETATM   27  C   UNL     1      28.082  37.849  49.723  1.00  0.00     0.027 A 
HETATM   28  C   UNL     1      26.849  38.431  49.332  1.00  0.00     0.037 A 
ENDBRANCH  22  24
ENDBRANCH  19  22
ENDBRANCH  18  19
ENDBRANCH   1  18
TORSDOF 6
ENDMDL
MODEL 6
REMARK VINA RESULT:      -7.6     12.479     13.534
REMARK  6 active torsions:
REMARK  status: ('A' for Active; 'I' for Inactive)
REMARK    1  A    between atoms: C_2  and  N_3 
REMARK    2  A    between atoms: C_2  and  C_21 
REMARK    3  A    between atoms: N_3  and  C_6 
REMARK    4  A    between atoms: C_6  and  C_7 
REMARK       I    between atoms: C_7  and  N_8 
REMARK    5  A    between atoms: N_8  and  C_9 
REMARK    6  A    between atoms: C_16  and  C_17 
REMARK       I    between atoms: C_17  and  N_18 
ROOT
HETATM    1  C   UNL     1      32.555  48.032  40.875  1.00  0.00     0.248 C 
HETATM    2  N   UNL     1      32.743  49.391  40.779  1.00  0.00    -0.319 N 
HETATM    3  O   UNL     1      33.254  47.189  41.431  1.00  0.00    -0.271 OA
HETATM    4  H   UNL     1      32.047  49.967  40.301  1.00  0.00     0.169 HD
ENDROOT
BRANCH   2   5
HETATM    5  C   UNL     1      33.721  50.152  41.407  1.00  0.00     0.093 A 
HETATM    6  S   UNL     1      35.301  50.279  40.774  1.00  0.00    -0.075 SA
HETATM    7  C   UNL     1      35.768  51.219  42.069  1.00  0.00    -0.008 A 
HETATM    8  C   UNL     1      34.770  51.477  42.970  1.00  0.00    -0.026 A 
HETATM    9  C   UNL     1      37.089  51.785  42.423  1.00  0.00     0.047 C 
HETATM   10  C   UNL     1      35.299  52.286  44.103  1.00  0.00     0.041 C 
HETATM   11  C   UNL     1      33.539  50.858  42.603  1.00  0.00     0.072 A 
HETATM   12  C   UNL     1      36.701  52.739  43.588  1.00  0.00     0.010 C 
BRANCH  11  13
HETATM   13  C   UNL     1      32.251  50.836  43.299  1.00  0.00     0.252 C 
HETATM   14  N   UNL     1      31.814  51.999  43.852  1.00  0.00    -0.366 N 
HETATM   15  H   UNL     1      32.251  52.890  43.676  1.00  0.00     0.159 HD
HETATM   16  H   UNL     1      30.888  52.007  44.260  1.00  0.00     0.159 HD
HETATM   17  O   UNL     1      31.567  49.814  43.370  1.00  0.00    -0.268 OA
ENDBRANCH  11  13
ENDBRANCH   2   5
BRANCH   1  18
HETATM   18  C   UNL     1      31.229  47.563  40.281  1.00  0.00     0.335 C 
BRANCH  18  19
HETATM   19  N   UNL     1      30.061  48.137  41.049  1.00  0.00    -0.057 N 
HETATM   20  H   UNL     1      30.493  48.724  41.789  1.00  0.00     0.278 HD
HETATM   21  H   UNL     1      29.551  47.395  41.536  1.00  0.00     0.278 HD
BRANCH  19  22
HETATM   22  C   UNL     1      29.099  49.042  40.327  1.00  0.00     0.239 C 
HETATM   23  C   UNL     1      29.142  48.775  38.827  1.00  0.00     0.047 C 
BRANCH  22  24
HETATM   24  C   UNL     1      29.286  50.470  40.695  1.00  0.00     0.082 A 
HETATM   25  O   UNL     1      30.371  51.067  40.120  1.00  0.00    -0.325 OA
HETATM   26  C   UNL     1      30.382  52.361  40.527  1.00  0.00     0.142 A 
HETATM   27  C   UNL     1      29.317  52.608  41.360  1.00  0.00     0.027 A 
HETATM   28  C   UNL     1      28.606  51.386  41.473  1.00  0.00     0.037 A 
ENDBRANCH  22  24
ENDBRANCH  19  22
ENDBRANCH  18  19
ENDBRANCH   1  18
TORSDOF 6
ENDMDL
MODEL 7
REMARK VINA RESULT:      -7.5      5.189      9.688
REMARK  6 active torsions:
REMARK  status: ('A' for Active; 'I' for Inactive)
REMARK    1  A    between atoms: C_2  and  N_3 
REMARK    2  A    between atoms: C_2  and  C_21 
REMARK    3  A    between atoms: N_3  and  C_6 
REMARK    4  A    between atoms: C_6  and  C_7 
REMARK       I    between atoms: C_7  and  N_8 
REMARK    5  A    between atoms: N_8  and  C_9 
REMARK    6  A    between atoms: C_16  and  C_17 
REMARK       I    between atoms: C_17  and  N_18 
ROOT
HETATM    1  C   UNL     1      22.260  47.267  48.353  1.00  0.00     0.248 C 
HETATM    2  N   UNL     1      21.778  48.129  49.311  1.00  0.00    -0.319 N 
HETATM    3  O   UNL     1      21.939  47.161  47.173  1.00  0.00    -0.271 OA
HETATM    4  H   UNL     1      22.173  48.112  50.253  1.00  0.00     0.169 HD
ENDROOT
BRANCH   2   5
HETATM    5  C   UNL     1      20.889  49.180  49.126  1.00  0.00     0.093 A 
HETATM    6  S   UNL     1      21.384  50.661  48.436  1.00  0.00    -0.075 SA
HETATM    7  C   UNL     1      19.858  51.295  48.648  1.00  0.00    -0.008 A 
HETATM    8  C   UNL     1      18.955  50.427  49.200  1.00  0.00    -0.026 A 
HETATM    9  C   UNL     1      19.330  52.651  48.373  1.00  0.00     0.047 C 
HETATM   10  C   UNL     1      17.640  51.102  49.383  1.00  0.00     0.041 C 
HETATM   11  C   UNL     1      19.538  49.159  49.495  1.00  0.00     0.072 A 
HETATM   12  C   UNL     1      17.804  52.421  48.566  1.00  0.00     0.010 C 
BRANCH  11  13
HETATM   13  C   UNL     1      18.951  47.977  50.127  1.00  0.00     0.252 C 
HETATM   14  N   UNL     1      18.617  48.066  51.443  1.00  0.00    -0.366 N 
HETATM   15  H   UNL     1      18.610  48.936  51.951  1.00  0.00     0.159 HD
HETATM   16  H   UNL     1      18.135  47.280  51.861  1.00  0.00     0.159 HD
HETATM   17  O   UNL     1      18.741  46.939  49.498  1.00  0.00    -0.268 OA
ENDBRANCH  11  13
ENDBRANCH   2   5
BRANCH   1  18
HETATM   18  C   UNL     1      23.424  46.411  48.844  1.00  0.00     0.335 C 
BRANCH  18  19
HETATM   19  N   UNL     1      23.931  46.905  50.179  1.00  0.00    -0.057 N 
HETATM   20  H   UNL     1      23.637  46.178  50.860  1.00  0.00     0.278 HD
HETATM   21  H   UNL     1      23.446  47.764  50.452  1.00  0.00     0.278 HD
BRANCH  19  22
HETATM   22  C   UNL     1      25.415  47.062  50.372  1.00  0.00     0.239 C 
HETATM   23  C   UNL     1      25.761  47.067  51.856  1.00  0.00     0.047 C 
BRANCH  22  24
HETATM   24  C   UNL     1      25.962  48.221  49.618  1.00  0.00     0.082 A 
HETATM   25  O   UNL     1      27.319  48.351  49.683  1.00  0.00    -0.325 OA
HETATM   26  C   UNL     1      27.658  49.425  48.927  1.00  0.00     0.142 A 
HETATM   27  C   UNL     1      26.535  49.991  48.373  1.00  0.00     0.027 A 
HETATM   28  C   UNL     1      25.435  49.216  48.819  1.00  0.00     0.037 A 
ENDBRANCH  22  24
ENDBRANCH  19  22
ENDBRANCH  18  19
ENDBRANCH   1  18
TORSDOF 6
ENDMDL
MODEL 8
REMARK VINA RESULT:      -7.4      2.708      3.675
REMARK  6 active torsions:
REMARK  status: ('A' for Active; 'I' for Inactive)
REMARK    1  A    between atoms: C_2  and  N_3 
REMARK    2  A    between atoms: C_2  and  C_21 
REMARK    3  A    between atoms: N_3  and  C_6 
REMARK    4  A    between atoms: C_6  and  C_7 
REMARK       I    between atoms: C_7  and  N_8 
REMARK    5  A    between atoms: N_8  and  C_9 
REMARK    6  A    between atoms: C_16  and  C_17 
REMARK       I    between atoms: C_17  and  N_18 
ROOT
HETATM    1  C   UNL     1      24.258  44.545  50.635  1.00  0.00     0.248 C 
HETATM    2  N   UNL     1      25.587  44.895  50.684  1.00  0.00    -0.319 N 
HETATM    3  O   UNL     1      23.608  43.855  51.416  1.00  0.00    -0.271 OA
HETATM    4  H   UNL     1      25.977  45.507  49.965  1.00  0.00     0.169 HD
ENDROOT
BRANCH   2   5
HETATM    5  C   UNL     1      26.486  44.646  51.713  1.00  0.00     0.093 A 
HETATM    6  S   UNL     1      27.311  43.157  51.842  1.00  0.00    -0.075 SA
HETATM    7  C   UNL     1      28.038  43.657  53.255  1.00  0.00    -0.008 A 
HETATM    8  C   UNL     1      27.712  44.929  53.642  1.00  0.00    -0.026 A 
HETATM    9  C   UNL     1      28.946  42.939  54.179  1.00  0.00     0.047 C 
HETATM   10  C   UNL     1      28.380  45.261  54.930  1.00  0.00     0.041 C 
HETATM   11  C   UNL     1      26.791  45.545  52.743  1.00  0.00     0.072 A 
HETATM   12  C   UNL     1      29.409  44.101  55.103  1.00  0.00     0.010 C 
BRANCH  11  13
HETATM   13  C   UNL     1      26.153  46.861  52.804  1.00  0.00     0.252 C 
HETATM   14  N   UNL     1      25.776  47.322  54.028  1.00  0.00    -0.366 N 
HETATM   15  H   UNL     1      26.049  46.880  54.890  1.00  0.00     0.159 HD
HETATM   16  H   UNL     1      25.411  48.264  54.083  1.00  0.00     0.159 HD
HETATM   17  O   UNL     1      25.977  47.546  51.796  1.00  0.00    -0.268 OA
ENDBRANCH  11  13
ENDBRANCH   2   5
BRANCH   1  18
HETATM   18  C   UNL     1      23.500  45.212  49.490  1.00  0.00     0.335 C 
BRANCH  18  19
HETATM   19  N   UNL     1      23.470  46.712  49.665  1.00  0.00    -0.057 N 
HETATM   20  H   UNL     1      24.359  47.046  49.246  1.00  0.00     0.278 HD
HETATM   21  H   UNL     1      23.513  46.959  50.657  1.00  0.00     0.278 HD
BRANCH  19  22
HETATM   22  C   UNL     1      22.381  47.495  48.981  1.00  0.00     0.239 C 
HETATM   23  C   UNL     1      21.964  46.808  47.687  1.00  0.00     0.047 C 
BRANCH  22  24
HETATM   24  C   UNL     1      22.737  48.929  48.819  1.00  0.00     0.082 A 
HETATM   25  O   UNL     1      23.591  49.189  47.786  1.00  0.00    -0.325 OA
HETATM   26  C   UNL     1      23.789  50.530  47.754  1.00  0.00     0.142 A 
HETATM   27  C   UNL     1      23.074  51.142  48.756  1.00  0.00     0.027 A 
HETATM   28  C   UNL     1      22.393  50.109  49.449  1.00  0.00     0.037 A 
ENDBRANCH  22  24
ENDBRANCH  19  22
ENDBRANCH  18  19
ENDBRANCH   1  18
TORSDOF 6
ENDMDL
MODEL 9
REMARK VINA RESULT:      -7.4      2.244      3.363
REMARK  6 active torsions:
REMARK  status: ('A' for Active; 'I' for Inactive)
REMARK    1  A    between atoms: C_2  and  N_3 
REMARK    2  A    between atoms: C_2  and  C_21 
REMARK    3  A    between atoms: N_3  and  C_6 
REMARK    4  A    between atoms: C_6  and  C_7 
REMARK       I    between atoms: C_7  and  N_8 
REMARK    5  A    between atoms: N_8  and  C_9 
REMARK    6  A    between atoms: C_16  and  C_17 
REMARK       I    between atoms: C_17  and  N_18 
ROOT
HETATM    1  C   UNL     1      27.067  43.832  50.341  1.00  0.00     0.248 C 
HETATM    2  N   UNL     1      27.100  43.273  51.598  1.00  0.00    -0.319 N 
HETATM    3  O   UNL     1      27.615  44.852  49.932  1.00  0.00    -0.271 OA
HETATM    4  H   UNL     1      26.607  42.395  51.775  1.00  0.00     0.169 HD
ENDROOT
BRANCH   2   5
HETATM    5  C   UNL     1      27.876  43.673  52.678  1.00  0.00     0.093 A 
HETATM    6  S   UNL     1      29.333  42.878  53.077  1.00  0.00    -0.075 SA
HETATM    7  C   UNL     1      29.533  43.864  54.405  1.00  0.00    -0.008 A 
HETATM    8  C   UNL     1      28.554  44.808  54.563  1.00  0.00    -0.026 A 
HETATM    9  C   UNL     1      30.571  43.862  55.461  1.00  0.00     0.047 C 
HETATM   10  C   UNL     1      28.804  45.606  55.795  1.00  0.00     0.041 C 
HETATM   11  C   UNL     1      27.554  44.721  53.549  1.00  0.00     0.072 A 
HETATM   12  C   UNL     1      30.258  45.200  56.188  1.00  0.00     0.010 C 
BRANCH  11  13
HETATM   13  C   UNL     1      26.324  45.494  53.371  1.00  0.00     0.252 C 
HETATM   14  N   UNL     1      26.439  46.846  53.268  1.00  0.00    -0.366 N 
HETATM   15  H   UNL     1      27.323  47.316  53.155  1.00  0.00     0.159 HD
HETATM   16  H   UNL     1      25.601  47.375  53.061  1.00  0.00     0.159 HD
HETATM   17  O   UNL     1      25.220  44.953  53.293  1.00  0.00    -0.268 OA
ENDBRANCH  11  13
ENDBRANCH   2   5
BRANCH   1  18
HETATM   18  C   UNL     1      26.316  42.981  49.321  1.00  0.00     0.335 C 
BRANCH  18  19
HETATM   19  N   UNL     1      25.102  43.712  48.798  1.00  0.00    -0.057 N 
HETATM   20  H   UNL     1      24.582  43.003  48.245  1.00  0.00     0.278 HD
HETATM   21  H   UNL     1      25.379  44.442  48.136  1.00  0.00     0.278 HD
BRANCH  19  22
HETATM   22  C   UNL     1      24.108  44.259  49.788  1.00  0.00     0.239 C 
HETATM   23  C   UNL     1      22.861  43.384  49.828  1.00  0.00     0.047 C 
BRANCH  22  24
HETATM   24  C   UNL     1      23.830  45.702  49.567  1.00  0.00     0.082 A 
HETATM   25  O   UNL     1      24.649  46.550  50.257  1.00  0.00    -0.325 OA
HETATM   26  C   UNL     1      24.289  47.815  49.927  1.00  0.00     0.142 A 
HETATM   27  C   UNL     1      23.246  47.796  49.032  1.00  0.00     0.027 A 
HETATM   28  C   UNL     1      22.945  46.431  48.798  1.00  0.00     0.037 A 
ENDBRANCH  22  24
ENDBRANCH  19  22
ENDBRANCH  18  19
ENDBRANCH   1  18
TORSDOF 6
ENDMDL
MODEL 10
REMARK VINA RESULT:      -7.3      3.609      6.171
REMARK  6 active torsions:
REMARK  status: ('A' for Active; 'I' for Inactive)
REMARK    1  A    between atoms: C_2  and  N_3 
REMARK    2  A    between atoms: C_2  and  C_21 
REMARK    3  A    between atoms: N_3  and  C_6 
REMARK    4  A    between atoms: C_6  and  C_7 
REMARK       I    between atoms: C_7  and  N_8 
REMARK    5  A    between atoms: N_8  and  C_9 
REMARK    6  A    between atoms: C_16  and  C_17 
REMARK       I    between atoms: C_17  and  N_18 
ROOT
HETATM    1  C   UNL     1      26.757  43.244  50.078  1.00  0.00     0.248 C 
HETATM    2  N   UNL     1      26.844  42.712  51.343  1.00  0.00    -0.319 N 
HETATM    3  O   UNL     1      27.274  44.263  49.627  1.00  0.00    -0.271 OA
HETATM    4  H   UNL     1      26.372  41.831  51.556  1.00  0.00     0.169 HD
ENDROOT
BRANCH   2   5
HETATM    5  C   UNL     1      27.654  43.146  52.385  1.00  0.00     0.093 A 
HETATM    6  S   UNL     1      29.160  42.413  52.715  1.00  0.00    -0.075 SA
HETATM    7  C   UNL     1      29.381  43.409  54.032  1.00  0.00    -0.008 A 
HETATM    8  C   UNL     1      28.372  44.311  54.237  1.00  0.00    -0.026 A 
HETATM    9  C   UNL     1      30.468  43.452  55.037  1.00  0.00     0.047 C 
HETATM   10  C   UNL     1      28.646  45.121  55.456  1.00  0.00     0.041 C 
HETATM   11  C   UNL     1      27.329  44.181  53.272  1.00  0.00     0.072 A 
HETATM   12  C   UNL     1      30.134  44.777  55.779  1.00  0.00     0.010 C 
BRANCH  11  13
HETATM   13  C   UNL     1      26.061  44.901  53.152  1.00  0.00     0.252 C 
HETATM   14  N   UNL     1      26.113  46.215  52.800  1.00  0.00    -0.366 N 
HETATM   15  H   UNL     1      26.954  46.664  52.474  1.00  0.00     0.159 HD
HETATM   16  H   UNL     1      25.236  46.692  52.635  1.00  0.00     0.159 HD
HETATM   17  O   UNL     1      24.977  44.347  53.339  1.00  0.00    -0.268 OA
ENDBRANCH  11  13
ENDBRANCH   2   5
BRANCH   1  18
HETATM   18  C   UNL     1      25.982  42.360  49.104  1.00  0.00     0.335 C 
BRANCH  18  19
HETATM   19  N   UNL     1      26.588  40.979  49.031  1.00  0.00    -0.057 N 
HETATM   20  H   UNL     1      25.981  40.457  48.370  1.00  0.00     0.278 HD
HETATM   21  H   UNL     1      26.504  40.501  49.932  1.00  0.00     0.278 HD
BRANCH  19  22
HETATM   22  C   UNL     1      27.987  40.833  48.495  1.00  0.00     0.239 C 
HETATM   23  C   UNL     1      27.973  40.813  46.971  1.00  0.00     0.047 C 
BRANCH  22  24
HETATM   24  C   UNL     1      28.709  39.689  49.110  1.00  0.00     0.082 A 
HETATM   25  O   UNL     1      28.701  39.681  50.475  1.00  0.00    -0.325 OA
HETATM   26  C   UNL     1      29.367  38.569  50.875  1.00  0.00     0.142 A 
HETATM   27  C   UNL     1      29.808  37.858  49.784  1.00  0.00     0.027 A 
HETATM   28  C   UNL     1      29.386  38.581  48.640  1.00  0.00     0.037 A 
ENDBRANCH  22  24
ENDBRANCH  19  22
ENDBRANCH  18  19
ENDBRANCH   1  18
TORSDOF 6
ENDMDL
