MODEL 1
REMARK VINA RESULT:      -9.3      0.000      0.000
REMARK  6 active torsions:
REMARK  status: ('A' for Active; 'I' for Inactive)
REMARK    1  A    between atoms: C_5  and  C_6 
REMARK    2  A    between atoms: C_11  and  C_12 
REMARK       I    between atoms: C_12  and  N_13 
REMARK    3  A    between atoms: N_13  and  C_14 
REMARK    4  A    between atoms: C_17  and  C_18 
REMARK    5  A    between atoms: C_18  and  O_19 
REMARK    6  A    between atoms: C_25  and  C_26 
ROOT
HETATM    1  C   UNL     1      19.960  50.384  47.122  1.00  0.00     0.118 C 
HETATM    2  N   UNL     1      21.299  50.636  47.637  1.00  0.00    -0.366 N 
HETATM    3  C   UNL     1      22.044  49.681  48.228  1.00  0.00     0.123 A 
HETATM    4  N   UNL     1      21.621  48.386  48.322  1.00  0.00    -0.240 N 
HETATM    5  N   UNL     1      22.532  47.549  48.860  1.00  0.00    -0.165 NA
HETATM    6  C   UNL     1      23.548  48.375  49.206  1.00  0.00     0.148 A 
HETATM    7  C   UNL     1      23.276  49.717  48.824  1.00  0.00     0.089 A 
HETATM    8  C   UNL     1      20.338  47.916  47.840  1.00  0.00     0.221 C 
HETATM    9  C   UNL     1      19.759  48.892  46.799  1.00  0.00     0.066 C 
HETATM   10  H   UNL     1      21.571  51.617  47.680  1.00  0.00     0.161 HD
ENDROOT
BRANCH   6  11
HETATM   11  C   UNL     1      24.771  47.894  49.875  1.00  0.00     0.276 C 
HETATM   12  N   UNL     1      24.487  47.111  50.978  1.00  0.00    -0.322 N 
HETATM   13  H   UNL     1      23.492  46.990  51.145  1.00  0.00     0.169 HD
HETATM   14  O   UNL     1      25.882  48.183  49.446  1.00  0.00    -0.266 OA
BRANCH  12  15
HETATM   15  C   UNL     1      25.391  46.470  51.843  1.00  0.00     0.035 A 
HETATM   16  C   UNL     1      25.918  45.199  51.611  1.00  0.00     0.030 A 
HETATM   17  C   UNL     1      26.804  44.620  52.528  1.00  0.00     0.012 A 
HETATM   18  C   UNL     1      27.183  45.298  53.693  1.00  0.00    -0.030 A 
HETATM   19  C   UNL     1      26.653  46.574  53.920  1.00  0.00     0.012 A 
HETATM   20  C   UNL     1      25.770  47.155  53.001  1.00  0.00     0.030 A 
BRANCH  18  21
HETATM   21  C   UNL     1      28.102  44.657  54.708  1.00  0.00     0.147 C 
HETATM   22  C   UNL     1      29.091  43.708  54.042  1.00  0.00     0.044 C 
BRANCH  21  23
HETATM   23  O   UNL     1      28.823  45.667  55.413  1.00  0.00    -0.391 OA
HETATM   24  H   UNL     1      28.788  45.439  56.355  1.00  0.00     0.210 HD
ENDBRANCH  21  23
ENDBRANCH  18  21
ENDBRANCH  12  15
ENDBRANCH   6  11
BRANCH   8  25
HETATM   25  C   UNL     1      19.412  47.640  49.003  1.00  0.00     0.409 C 
HETATM   26  F   UNL     1      19.614  48.437  50.066  1.00  0.00    -0.169 F 
HETATM   27  F   UNL     1      18.119  47.799  48.619  1.00  0.00    -0.169 F 
HETATM   28  F   UNL     1      19.519  46.360  49.434  1.00  0.00    -0.169 F 
ENDBRANCH   8  25
BRANCH   1  29
HETATM   29  C   UNL     1      18.875  51.013  47.979  1.00  0.00    -0.035 A 
HETATM   30  C   UNL     1      17.530  50.859  47.600  1.00  0.00     0.010 A 
HETATM   31  C   UNL     1      16.500  51.458  48.333  1.00  0.00     0.007 A 
HETATM   32  C   UNL     1      16.789  52.229  49.462  1.00  0.00    -0.062 A 
HETATM   33  C   UNL     1      15.694  52.861  50.267  1.00  0.00     0.048 C 
HETATM   34  C   UNL     1      18.122  52.374  49.856  1.00  0.00     0.007 A 
HETATM   35  C   UNL     1      19.151  51.781  49.119  1.00  0.00     0.010 A 
ENDBRANCH   1  29
TORSDOF 6
ENDMDL
MODEL 2
REMARK VINA RESULT:      -8.7     21.565     23.743
REMARK  6 active torsions:
REMARK  status: ('A' for Active; 'I' for Inactive)
REMARK    1  A    between atoms: C_5  and  C_6 
REMARK    2  A    between atoms: C_11  and  C_12 
REMARK       I    between atoms: C_12  and  N_13 
REMARK    3  A    between atoms: N_13  and  C_14 
REMARK    4  A    between atoms: C_17  and  C_18 
REMARK    5  A    between atoms: C_18  and  O_19 
REMARK    6  A    between atoms: C_25  and  C_26 
ROOT
HETATM    1  C   UNL     1      37.884  42.723  62.741  1.00  0.00     0.118 C 
HETATM    2  N   UNL     1      36.854  43.380  63.534  1.00  0.00    -0.366 N 
HETATM    3  C   UNL     1      37.047  44.569  64.138  1.00  0.00     0.123 A 
HETATM    4  N   UNL     1      38.205  45.279  63.988  1.00  0.00    -0.240 N 
HETATM    5  N   UNL     1      38.188  46.487  64.588  1.00  0.00    -0.165 NA
HETATM    6  C   UNL     1      36.993  46.504  65.224  1.00  0.00     0.148 A 
HETATM    7  C   UNL     1      36.252  45.318  64.963  1.00  0.00     0.089 A 
HETATM    8  C   UNL     1      39.340  44.823  63.211  1.00  0.00     0.221 C 
HETATM    9  C   UNL     1      38.908  43.740  62.204  1.00  0.00     0.066 C 
HETATM   10  H   UNL     1      36.039  42.807  63.750  1.00  0.00     0.161 HD
ENDROOT
BRANCH   6  11
HETATM   11  C   UNL     1      36.550  47.638  66.055  1.00  0.00     0.276 C 
HETATM   12  N   UNL     1      37.503  48.638  66.122  1.00  0.00    -0.322 N 
HETATM   13  H   UNL     1      38.343  48.433  65.587  1.00  0.00     0.169 HD
HETATM   14  O   UNL     1      35.448  47.638  66.590  1.00  0.00    -0.266 OA
BRANCH  12  15
HETATM   15  C   UNL     1      37.425  49.867  66.799  1.00  0.00     0.035 A 
HETATM   16  C   UNL     1      36.979  50.001  68.114  1.00  0.00     0.030 A 
HETATM   17  C   UNL     1      36.917  51.264  68.717  1.00  0.00     0.012 A 
HETATM   18  C   UNL     1      37.301  52.416  68.021  1.00  0.00    -0.030 A 
HETATM   19  C   UNL     1      37.751  52.276  66.702  1.00  0.00     0.012 A 
HETATM   20  C   UNL     1      37.818  51.013  66.101  1.00  0.00     0.030 A 
BRANCH  18  21
HETATM   21  C   UNL     1      37.192  53.785  68.652  1.00  0.00     0.147 C 
HETATM   22  C   UNL     1      37.014  54.872  67.598  1.00  0.00     0.044 C 
BRANCH  21  23
HETATM   23  O   UNL     1      36.084  53.817  69.551  1.00  0.00    -0.391 OA
HETATM   24  H   UNL     1      36.415  53.550  70.423  1.00  0.00     0.210 HD
ENDBRANCH  21  23
ENDBRANCH  18  21
ENDBRANCH  12  15
ENDBRANCH   6  11
BRANCH   8  25
HETATM   25  C   UNL     1      40.462  44.394  64.128  1.00  0.00     0.409 C 
HETATM   26  F   UNL     1      40.057  44.012  65.352  1.00  0.00    -0.169 F 
HETATM   27  F   UNL     1      41.138  43.350  63.583  1.00  0.00    -0.169 F 
HETATM   28  F   UNL     1      41.374  45.383  64.298  1.00  0.00    -0.169 F 
ENDBRANCH   8  25
BRANCH   1  29
HETATM   29  C   UNL     1      38.478  41.512  63.439  1.00  0.00    -0.035 A 
HETATM   30  C   UNL     1      39.243  40.599  62.693  1.00  0.00     0.010 A 
HETATM   31  C   UNL     1      39.773  39.447  63.283  1.00  0.00     0.007 A 
HETATM   32  C   UNL     1      39.548  39.177  64.635  1.00  0.00    -0.062 A 
HETATM   33  C   UNL     1      40.126  37.956  65.286  1.00  0.00     0.048 C 
HETATM   34  C   UNL     1      38.804  40.087  65.391  1.00  0.00     0.007 A 
HETATM   35  C   UNL     1      38.269  41.235  64.798  1.00  0.00     0.010 A 
ENDBRANCH   1  29
TORSDOF 6
ENDMDL
MODEL 3
REMARK VINA RESULT:      -8.5      2.739      3.609
REMARK  6 active torsions:
REMARK  status: ('A' for Active; 'I' for Inactive)
REMARK    1  A    between atoms: C_5  and  C_6 
REMARK    2  A    between atoms: C_11  and  C_12 
REMARK       I    between atoms: C_12  and  N_13 
REMARK    3  A    between atoms: N_13  and  C_14 
REMARK    4  A    between atoms: C_17  and  C_18 
REMARK    5  A    between atoms: C_18  and  O_19 
REMARK    6  A    between atoms: C_25  and  C_26 
ROOT
HETATM    1  C   UNL     1      17.943  49.602  48.162  1.00  0.00     0.118 C 
HETATM    2  N   UNL     1      18.477  48.278  47.871  1.00  0.00    -0.366 N 
HETATM    3  C   UNL     1      19.737  47.916  48.182  1.00  0.00     0.123 A 
HETATM    4  N   UNL     1      20.584  48.746  48.860  1.00  0.00    -0.240 N 
HETATM    5  N   UNL     1      21.772  48.186  49.166  1.00  0.00    -0.165 NA
HETATM    6  C   UNL     1      21.707  46.971  48.572  1.00  0.00     0.148 A 
HETATM    7  C   UNL     1      20.445  46.768  47.948  1.00  0.00     0.089 A 
HETATM    8  C   UNL     1      20.239  50.091  49.277  1.00  0.00     0.221 C 
HETATM    9  C   UNL     1      18.709  50.269  49.319  1.00  0.00     0.066 C 
HETATM   10  H   UNL     1      17.899  47.700  47.263  1.00  0.00     0.161 HD
ENDROOT
BRANCH   6  11
HETATM   11  C   UNL     1      22.821  46.005  48.612  1.00  0.00     0.276 C 
HETATM   12  N   UNL     1      23.505  46.050  49.812  1.00  0.00    -0.322 N 
HETATM   13  H   UNL     1      23.130  46.729  50.468  1.00  0.00     0.169 HD
HETATM   14  O   UNL     1      23.053  45.269  47.661  1.00  0.00    -0.266 OA
BRANCH  12  15
HETATM   15  C   UNL     1      24.601  45.269  50.215  1.00  0.00     0.035 A 
HETATM   16  C   UNL     1      25.862  45.337  49.622  1.00  0.00     0.030 A 
HETATM   17  C   UNL     1      26.904  44.515  50.071  1.00  0.00     0.012 A 
HETATM   18  C   UNL     1      26.708  43.610  51.122  1.00  0.00    -0.030 A 
HETATM   19  C   UNL     1      25.441  43.547  51.716  1.00  0.00     0.012 A 
HETATM   20  C   UNL     1      24.401  44.373  51.270  1.00  0.00     0.030 A 
BRANCH  18  21
HETATM   21  C   UNL     1      27.816  42.689  51.578  1.00  0.00     0.147 C 
HETATM   22  C   UNL     1      28.820  43.420  52.462  1.00  0.00     0.044 C 
BRANCH  21  23
HETATM   23  O   UNL     1      27.264  41.591  52.304  1.00  0.00    -0.391 OA
HETATM   24  H   UNL     1      26.722  41.080  51.682  1.00  0.00     0.210 HD
ENDBRANCH  21  23
ENDBRANCH  18  21
ENDBRANCH  12  15
ENDBRANCH   6  11
BRANCH   8  25
HETATM   25  C   UNL     1      20.951  51.105  48.411  1.00  0.00     0.409 C 
HETATM   26  F   UNL     1      22.178  51.435  48.848  1.00  0.00    -0.169 F 
HETATM   27  F   UNL     1      21.087  50.626  47.147  1.00  0.00    -0.169 F 
HETATM   28  F   UNL     1      20.240  52.254  48.301  1.00  0.00    -0.169 F 
ENDBRANCH   8  25
BRANCH   1  29
HETATM   29  C   UNL     1      17.779  50.455  46.916  1.00  0.00    -0.035 A 
HETATM   30  C   UNL     1      17.044  51.650  46.998  1.00  0.00     0.010 A 
HETATM   31  C   UNL     1      16.829  52.445  45.867  1.00  0.00     0.007 A 
HETATM   32  C   UNL     1      17.341  52.062  44.625  1.00  0.00    -0.062 A 
HETATM   33  C   UNL     1      17.134  52.914  43.408  1.00  0.00     0.048 C 
HETATM   34  C   UNL     1      18.088  50.885  44.536  1.00  0.00     0.007 A 
HETATM   35  C   UNL     1      18.296  50.087  45.666  1.00  0.00     0.010 A 
ENDBRANCH   1  29
TORSDOF 6
ENDMDL
MODEL 4
REMARK VINA RESULT:      -8.3      9.311     10.506
REMARK  6 active torsions:
REMARK  status: ('A' for Active; 'I' for Inactive)
REMARK    1  A    between atoms: C_5  and  C_6 
REMARK    2  A    between atoms: C_11  and  C_12 
REMARK       I    between atoms: C_12  and  N_13 
REMARK    3  A    between atoms: N_13  and  C_14 
REMARK    4  A    between atoms: C_17  and  C_18 
REMARK    5  A    between atoms: C_18  and  O_19 
REMARK    6  A    between atoms: C_25  and  C_26 
ROOT
HETATM    1  C   UNL     1      26.904  40.723  46.690  1.00  0.00     0.118 C 
HETATM    2  N   UNL     1      26.784  41.639  47.817  1.00  0.00    -0.366 N 
HETATM    3  C   UNL     1      27.308  41.377  49.030  1.00  0.00     0.123 A 
HETATM    4  N   UNL     1      28.055  40.259  49.270  1.00  0.00    -0.240 N 
HETATM    5  N   UNL     1      28.575  40.204  50.513  1.00  0.00    -0.165 NA
HETATM    6  C   UNL     1      28.057  41.299  51.117  1.00  0.00     0.148 A 
HETATM    7  C   UNL     1      27.260  42.057  50.216  1.00  0.00     0.089 A 
HETATM    8  C   UNL     1      28.327  39.237  48.278  1.00  0.00     0.221 C 
HETATM    9  C   UNL     1      28.121  39.794  46.857  1.00  0.00     0.066 C 
HETATM   10  H   UNL     1      26.131  42.411  47.681  1.00  0.00     0.161 HD
ENDROOT
BRANCH   6  11
HETATM   11  C   UNL     1      28.330  41.634  52.527  1.00  0.00     0.276 C 
HETATM   12  N   UNL     1      28.945  42.864  52.661  1.00  0.00    -0.322 N 
HETATM   13  H   UNL     1      29.103  43.336  51.775  1.00  0.00     0.169 HD
HETATM   14  O   UNL     1      28.013  40.869  53.431  1.00  0.00    -0.266 OA
BRANCH  12  15
HETATM   15  C   UNL     1      29.336  43.515  53.843  1.00  0.00     0.035 A 
HETATM   16  C   UNL     1      28.682  44.630  54.367  1.00  0.00     0.030 A 
HETATM   17  C   UNL     1      29.139  45.234  55.545  1.00  0.00     0.012 A 
HETATM   18  C   UNL     1      30.258  44.735  56.225  1.00  0.00    -0.030 A 
HETATM   19  C   UNL     1      30.909  43.613  55.696  1.00  0.00     0.012 A 
HETATM   20  C   UNL     1      30.449  43.007  54.520  1.00  0.00     0.030 A 
BRANCH  18  21
HETATM   21  C   UNL     1      30.783  45.411  57.470  1.00  0.00     0.147 C 
HETATM   22  C   UNL     1      29.650  45.992  58.309  1.00  0.00     0.044 C 
BRANCH  21  23
HETATM   23  O   UNL     1      31.516  44.472  58.258  1.00  0.00    -0.391 OA
HETATM   24  H   UNL     1      32.009  43.906  57.643  1.00  0.00     0.210 HD
ENDBRANCH  21  23
ENDBRANCH  18  21
ENDBRANCH  12  15
ENDBRANCH   6  11
BRANCH   8  25
HETATM   25  C   UNL     1      27.519  37.994  48.572  1.00  0.00     0.409 C 
HETATM   26  F   UNL     1      28.101  37.155  49.447  1.00  0.00    -0.169 F 
HETATM   27  F   UNL     1      26.308  38.335  49.085  1.00  0.00    -0.169 F 
HETATM   28  F   UNL     1      27.263  37.287  47.445  1.00  0.00    -0.169 F 
ENDBRANCH   8  25
BRANCH   1  29
HETATM   29  C   UNL     1      25.596  40.026  46.360  1.00  0.00    -0.035 A 
HETATM   30  C   UNL     1      24.444  40.351  47.095  1.00  0.00     0.010 A 
HETATM   31  C   UNL     1      23.227  39.703  46.856  1.00  0.00     0.007 A 
HETATM   32  C   UNL     1      23.134  38.710  45.878  1.00  0.00    -0.062 A 
HETATM   33  C   UNL     1      21.832  38.021  45.599  1.00  0.00     0.048 C 
HETATM   34  C   UNL     1      24.270  38.391  45.130  1.00  0.00     0.007 A 
HETATM   35  C   UNL     1      25.487  39.034  45.374  1.00  0.00     0.010 A 
ENDBRANCH   1  29
TORSDOF 6
ENDMDL
MODEL 5
REMARK VINA RESULT:      -8.2      3.947     10.156
REMARK  6 active torsions:
REMARK  status: ('A' for Active; 'I' for Inactive)
REMARK    1  A    between atoms: C_5  and  C_6 
REMARK    2  A    between atoms: C_11  and  C_12 
REMARK       I    between atoms: C_12  and  N_13 
REMARK    3  A    between atoms: N_13  and  C_14 
REMARK    4  A    between atoms: C_17  and  C_18 
REMARK    5  A    between atoms: C_18  and  O_19 
REMARK    6  A    between atoms: C_25  and  C_26 
ROOT
HETATM    1  C   UNL     1      26.321  42.742  51.396  1.00  0.00     0.118 C 
HETATM    2  N   UNL     1      24.864  42.753  51.379  1.00  0.00    -0.366 N 
HETATM    3  C   UNL     1      24.150  43.510  50.523  1.00  0.00     0.123 A 
HETATM    4  N   UNL     1      24.747  44.270  49.557  1.00  0.00    -0.240 N 
HETATM    5  N   UNL     1      23.878  44.889  48.732  1.00  0.00    -0.165 NA
HETATM    6  C   UNL     1      22.671  44.576  49.258  1.00  0.00     0.148 A 
HETATM    7  C   UNL     1      22.804  43.712  50.380  1.00  0.00     0.089 A 
HETATM    8  C   UNL     1      26.182  44.371  49.377  1.00  0.00     0.221 C 
HETATM    9  C   UNL     1      26.896  43.176  50.035  1.00  0.00     0.066 C 
HETATM   10  H   UNL     1      24.416  42.288  52.168  1.00  0.00     0.161 HD
ENDROOT
BRANCH   6  11
HETATM   11  C   UNL     1      21.403  45.075  48.693  1.00  0.00     0.276 C 
HETATM   12  N   UNL     1      21.279  46.445  48.824  1.00  0.00    -0.322 N 
HETATM   13  H   UNL     1      22.075  46.883  49.278  1.00  0.00     0.169 HD
HETATM   14  O   UNL     1      20.599  44.310  48.172  1.00  0.00    -0.266 OA
BRANCH  12  15
HETATM   15  C   UNL     1      20.224  47.266  48.389  1.00  0.00     0.035 A 
HETATM   16  C   UNL     1      20.116  47.771  47.094  1.00  0.00     0.030 A 
HETATM   17  C   UNL     1      19.041  48.595  46.739  1.00  0.00     0.012 A 
HETATM   18  C   UNL     1      18.050  48.930  47.671  1.00  0.00    -0.030 A 
HETATM   19  C   UNL     1      18.161  48.418  48.970  1.00  0.00     0.012 A 
HETATM   20  C   UNL     1      19.234  47.590  49.323  1.00  0.00     0.030 A 
BRANCH  18  21
HETATM   21  C   UNL     1      16.913  49.857  47.306  1.00  0.00     0.147 C 
HETATM   22  C   UNL     1      15.643  49.509  48.075  1.00  0.00     0.044 C 
BRANCH  21  23
HETATM   23  O   UNL     1      17.279  51.206  47.591  1.00  0.00    -0.391 OA
HETATM   24  H   UNL     1      17.717  51.558  46.799  1.00  0.00     0.210 HD
ENDBRANCH  21  23
ENDBRANCH  18  21
ENDBRANCH  12  15
ENDBRANCH   6  11
BRANCH   8  25
HETATM   25  C   UNL     1      26.674  45.719  49.853  1.00  0.00     0.409 C 
HETATM   26  F   UNL     1      26.442  45.959  51.155  1.00  0.00    -0.169 F 
HETATM   27  F   UNL     1      28.014  45.822  49.657  1.00  0.00    -0.169 F 
HETATM   28  F   UNL     1      26.113  46.732  49.150  1.00  0.00    -0.169 F 
ENDBRANCH   8  25
BRANCH   1  29
HETATM   29  C   UNL     1      26.898  43.459  52.603  1.00  0.00    -0.035 A 
HETATM   30  C   UNL     1      26.023  43.979  53.573  1.00  0.00     0.010 A 
HETATM   31  C   UNL     1      26.507  44.685  54.679  1.00  0.00     0.007 A 
HETATM   32  C   UNL     1      27.878  44.894  54.841  1.00  0.00    -0.062 A 
HETATM   33  C   UNL     1      28.412  45.633  56.031  1.00  0.00     0.048 C 
HETATM   34  C   UNL     1      28.758  44.367  53.892  1.00  0.00     0.007 A 
HETATM   35  C   UNL     1      28.273  43.667  52.783  1.00  0.00     0.010 A 
ENDBRANCH   1  29
TORSDOF 6
ENDMDL
MODEL 6
REMARK VINA RESULT:      -8.1      3.410      4.404
REMARK  6 active torsions:
REMARK  status: ('A' for Active; 'I' for Inactive)
REMARK    1  A    between atoms: C_5  and  C_6 
REMARK    2  A    between atoms: C_11  and  C_12 
REMARK       I    between atoms: C_12  and  N_13 
REMARK    3  A    between atoms: N_13  and  C_14 
REMARK    4  A    between atoms: C_17  and  C_18 
REMARK    5  A    between atoms: C_18  and  O_19 
REMARK    6  A    between atoms: C_25  and  C_26 
ROOT
HETATM    1  C   UNL     1      16.812  50.101  49.136  1.00  0.00     0.118 C 
HETATM    2  N   UNL     1      17.277  48.794  48.689  1.00  0.00    -0.366 N 
HETATM    3  C   UNL     1      18.583  48.486  48.569  1.00  0.00     0.123 A 
HETATM    4  N   UNL     1      19.570  49.360  48.928  1.00  0.00    -0.240 N 
HETATM    5  N   UNL     1      20.815  48.852  48.827  1.00  0.00    -0.165 NA
HETATM    6  C   UNL     1      20.609  47.626  48.292  1.00  0.00     0.148 A 
HETATM    7  C   UNL     1      19.222  47.363  48.118  1.00  0.00     0.089 A 
HETATM    8  C   UNL     1      19.324  50.698  49.431  1.00  0.00     0.221 C 
HETATM    9  C   UNL     1      17.888  50.817  49.974  1.00  0.00     0.066 C 
HETATM   10  H   UNL     1      16.555  48.184  48.307  1.00  0.00     0.161 HD
ENDROOT
BRANCH   6  11
HETATM   11  C   UNL     1      21.714  46.705  47.966  1.00  0.00     0.276 C 
HETATM   12  N   UNL     1      22.218  46.078  49.090  1.00  0.00    -0.322 N 
HETATM   13  H   UNL     1      21.747  46.346  49.949  1.00  0.00     0.169 HD
HETATM   14  O   UNL     1      22.088  46.551  46.809  1.00  0.00    -0.266 OA
BRANCH  12  15
HETATM   15  C   UNL     1      23.252  45.130  49.164  1.00  0.00     0.035 A 
HETATM   16  C   UNL     1      23.051  43.752  49.069  1.00  0.00     0.030 A 
HETATM   17  C   UNL     1      24.132  42.868  49.167  1.00  0.00     0.012 A 
HETATM   18  C   UNL     1      25.436  43.340  49.358  1.00  0.00    -0.030 A 
HETATM   19  C   UNL     1      25.634  44.724  49.450  1.00  0.00     0.012 A 
HETATM   20  C   UNL     1      24.553  45.608  49.348  1.00  0.00     0.030 A 
BRANCH  18  21
HETATM   21  C   UNL     1      26.600  42.387  49.510  1.00  0.00     0.147 C 
HETATM   22  C   UNL     1      26.144  41.032  50.040  1.00  0.00     0.044 C 
BRANCH  21  23
HETATM   23  O   UNL     1      27.245  42.207  48.250  1.00  0.00    -0.391 OA
HETATM   24  H   UNL     1      27.086  43.009  47.729  1.00  0.00     0.210 HD
ENDBRANCH  21  23
ENDBRANCH  18  21
ENDBRANCH  12  15
ENDBRANCH   6  11
BRANCH   8  25
HETATM   25  C   UNL     1      19.668  51.724  48.376  1.00  0.00     0.409 C 
HETATM   26  F   UNL     1      19.010  52.889  48.508  1.00  0.00    -0.169 F 
HETATM   27  F   UNL     1      20.996  52.004  48.413  1.00  0.00    -0.169 F 
HETATM   28  F   UNL     1      19.418  51.260  47.127  1.00  0.00    -0.169 F 
ENDBRANCH   8  25
BRANCH   1  29
HETATM   29  C   UNL     1      16.212  50.926  48.011  1.00  0.00    -0.035 A 
HETATM   30  C   UNL     1      15.721  52.212  48.293  1.00  0.00     0.010 A 
HETATM   31  C   UNL     1      15.119  52.990  47.299  1.00  0.00     0.007 A 
HETATM   32  C   UNL     1      14.990  52.500  45.997  1.00  0.00    -0.062 A 
HETATM   33  C   UNL     1      14.364  53.331  44.917  1.00  0.00     0.048 C 
HETATM   34  C   UNL     1      15.490  51.229  45.702  1.00  0.00     0.007 A 
HETATM   35  C   UNL     1      16.085  50.449  46.698  1.00  0.00     0.010 A 
ENDBRANCH   1  29
TORSDOF 6
ENDMDL
MODEL 7
REMARK VINA RESULT:      -8.1     10.139     11.925
REMARK  6 active torsions:
REMARK  status: ('A' for Active; 'I' for Inactive)
REMARK    1  A    between atoms: C_5  and  C_6 
REMARK    2  A    between atoms: C_11  and  C_12 
REMARK       I    between atoms: C_12  and  N_13 
REMARK    3  A    between atoms: N_13  and  C_14 
REMARK    4  A    between atoms: C_17  and  C_18 
REMARK    5  A    between atoms: C_18  and  O_19 
REMARK    6  A    between atoms: C_25  and  C_26 
ROOT
HETATM    1  C   UNL     1      26.518  39.408  47.159  1.00  0.00     0.118 C 
HETATM    2  N   UNL     1      25.995  39.961  48.401  1.00  0.00    -0.366 N 
HETATM    3  C   UNL     1      26.778  40.238  49.462  1.00  0.00     0.123 A 
HETATM    4  N   UNL     1      28.135  40.086  49.421  1.00  0.00    -0.240 N 
HETATM    5  N   UNL     1      28.767  40.498  50.539  1.00  0.00    -0.165 NA
HETATM    6  C   UNL     1      27.749  40.844  51.363  1.00  0.00     0.148 A 
HETATM    7  C   UNL     1      26.490  40.696  50.720  1.00  0.00     0.089 A 
HETATM    8  C   UNL     1      28.860  39.585  48.270  1.00  0.00     0.221 C 
HETATM    9  C   UNL     1      28.014  39.732  46.991  1.00  0.00     0.066 C 
HETATM   10  H   UNL     1      24.979  39.963  48.482  1.00  0.00     0.161 HD
ENDROOT
BRANCH   6  11
HETATM   11  C   UNL     1      27.969  41.329  52.738  1.00  0.00     0.276 C 
HETATM   12  N   UNL     1      28.772  42.454  52.772  1.00  0.00    -0.322 N 
HETATM   13  H   UNL     1      29.072  42.765  51.852  1.00  0.00     0.169 HD
HETATM   14  O   UNL     1      27.462  40.760  53.698  1.00  0.00    -0.266 OA
BRANCH  12  15
HETATM   15  C   UNL     1      29.177  43.197  53.893  1.00  0.00     0.035 A 
HETATM   16  C   UNL     1      28.510  44.331  54.356  1.00  0.00     0.030 A 
HETATM   17  C   UNL     1      28.984  45.028  55.474  1.00  0.00     0.012 A 
HETATM   18  C   UNL     1      30.133  44.606  56.154  1.00  0.00    -0.030 A 
HETATM   19  C   UNL     1      30.798  43.465  55.688  1.00  0.00     0.012 A 
HETATM   20  C   UNL     1      30.321  42.766  54.572  1.00  0.00     0.030 A 
BRANCH  18  21
HETATM   21  C   UNL     1      30.675  45.381  57.333  1.00  0.00     0.147 C 
HETATM   22  C   UNL     1      29.552  46.011  58.149  1.00  0.00     0.044 C 
BRANCH  21  23
HETATM   23  O   UNL     1      31.436  44.515  58.174  1.00  0.00    -0.391 OA
HETATM   24  H   UNL     1      32.373  44.714  58.017  1.00  0.00     0.210 HD
ENDBRANCH  21  23
ENDBRANCH  18  21
ENDBRANCH  12  15
ENDBRANCH   6  11
BRANCH   8  25
HETATM   25  C   UNL     1      29.341  38.176  48.529  1.00  0.00     0.409 C 
HETATM   26  F   UNL     1      29.337  37.385  47.441  1.00  0.00    -0.169 F 
HETATM   27  F   UNL     1      30.612  38.197  49.007  1.00  0.00    -0.169 F 
HETATM   28  F   UNL     1      28.595  37.559  49.477  1.00  0.00    -0.169 F 
ENDBRANCH   8  25
BRANCH   1  29
HETATM   29  C   UNL     1      26.145  37.948  46.965  1.00  0.00    -0.035 A 
HETATM   30  C   UNL     1      25.774  37.183  48.084  1.00  0.00     0.010 A 
HETATM   31  C   UNL     1      25.464  35.825  47.960  1.00  0.00     0.007 A 
HETATM   32  C   UNL     1      25.522  35.196  46.714  1.00  0.00    -0.062 A 
HETATM   33  C   UNL     1      25.176  33.745  46.564  1.00  0.00     0.048 C 
HETATM   34  C   UNL     1      25.873  35.951  45.592  1.00  0.00     0.007 A 
HETATM   35  C   UNL     1      26.189  37.308  45.718  1.00  0.00     0.010 A 
ENDBRANCH   1  29
TORSDOF 6
ENDMDL
MODEL 8
REMARK VINA RESULT:      -8.1     15.961     19.380
REMARK  6 active torsions:
REMARK  status: ('A' for Active; 'I' for Inactive)
REMARK    1  A    between atoms: C_5  and  C_6 
REMARK    2  A    between atoms: C_11  and  C_12 
REMARK       I    between atoms: C_12  and  N_13 
REMARK    3  A    between atoms: N_13  and  C_14 
REMARK    4  A    between atoms: C_17  and  C_18 
REMARK    5  A    between atoms: C_18  and  O_19 
REMARK    6  A    between atoms: C_25  and  C_26 
ROOT
HETATM    1  C   UNL     1      41.336  55.224  45.946  1.00  0.00     0.118 C 
HETATM    2  N   UNL     1      40.844  54.718  44.672  1.00  0.00    -0.366 N 
HETATM    3  C   UNL     1      39.577  54.295  44.496  1.00  0.00     0.123 A 
HETATM    4  N   UNL     1      38.640  54.380  45.487  1.00  0.00    -0.240 N 
HETATM    5  N   UNL     1      37.404  53.997  45.106  1.00  0.00    -0.165 NA
HETATM    6  C   UNL     1      37.588  53.564  43.837  1.00  0.00     0.148 A 
HETATM    7  C   UNL     1      38.937  53.737  43.422  1.00  0.00     0.089 A 
HETATM    8  C   UNL     1      38.911  54.888  46.817  1.00  0.00     0.221 C 
HETATM    9  C   UNL     1      40.183  55.757  46.816  1.00  0.00     0.066 C 
HETATM   10  H   UNL     1      41.560  54.539  43.970  1.00  0.00     0.161 HD
ENDROOT
BRANCH   6  11
HETATM   11  C   UNL     1      36.493  53.008  43.020  1.00  0.00     0.276 C 
HETATM   12  N   UNL     1      35.646  52.206  43.760  1.00  0.00    -0.322 N 
HETATM   13  H   UNL     1      35.909  52.133  44.739  1.00  0.00     0.169 HD
HETATM   14  O   UNL     1      36.396  53.276  41.827  1.00  0.00    -0.266 OA
BRANCH  12  15
HETATM   15  C   UNL     1      34.494  51.528  43.327  1.00  0.00     0.035 A 
HETATM   16  C   UNL     1      33.241  51.667  43.925  1.00  0.00     0.030 A 
HETATM   17  C   UNL     1      32.141  50.946  43.445  1.00  0.00     0.012 A 
HETATM   18  C   UNL     1      32.268  50.075  42.356  1.00  0.00    -0.030 A 
HETATM   19  C   UNL     1      33.527  49.941  41.757  1.00  0.00     0.012 A 
HETATM   20  C   UNL     1      34.626  50.665  42.235  1.00  0.00     0.030 A 
BRANCH  18  21
HETATM   21  C   UNL     1      31.094  49.260  41.863  1.00  0.00     0.147 C 
HETATM   22  C   UNL     1      31.535  48.197  40.863  1.00  0.00     0.044 C 
BRANCH  21  23
HETATM   23  O   UNL     1      30.447  48.627  42.966  1.00  0.00    -0.391 OA
HETATM   24  H   UNL     1      29.497  48.611  42.770  1.00  0.00     0.210 HD
ENDBRANCH  21  23
ENDBRANCH  18  21
ENDBRANCH  12  15
ENDBRANCH   6  11
BRANCH   8  25
HETATM   25  C   UNL     1      38.946  53.751  47.813  1.00  0.00     0.409 C 
HETATM   26  F   UNL     1      39.295  52.566  47.282  1.00  0.00    -0.169 F 
HETATM   27  F   UNL     1      39.833  54.026  48.804  1.00  0.00    -0.169 F 
HETATM   28  F   UNL     1      37.746  53.583  48.421  1.00  0.00    -0.169 F 
ENDBRANCH   8  25
BRANCH   1  29
HETATM   29  C   UNL     1      42.276  54.253  46.639  1.00  0.00    -0.035 A 
HETATM   30  C   UNL     1      42.978  54.678  47.780  1.00  0.00     0.010 A 
HETATM   31  C   UNL     1      43.887  53.834  48.426  1.00  0.00     0.007 A 
HETATM   32  C   UNL     1      44.121  52.544  47.944  1.00  0.00    -0.062 A 
HETATM   33  C   UNL     1      45.078  51.621  48.636  1.00  0.00     0.048 C 
HETATM   34  C   UNL     1      43.415  52.105  46.820  1.00  0.00     0.007 A 
HETATM   35  C   UNL     1      42.511  52.953  46.172  1.00  0.00     0.010 A 
ENDBRANCH   1  29
TORSDOF 6
ENDMDL
MODEL 9
REMARK VINA RESULT:      -8.0     11.096     14.716
REMARK  6 active torsions:
REMARK  status: ('A' for Active; 'I' for Inactive)
REMARK    1  A    between atoms: C_5  and  C_6 
REMARK    2  A    between atoms: C_11  and  C_12 
REMARK       I    between atoms: C_12  and  N_13 
REMARK    3  A    between atoms: N_13  and  C_14 
REMARK    4  A    between atoms: C_17  and  C_18 
REMARK    5  A    between atoms: C_18  and  O_19 
REMARK    6  A    between atoms: C_25  and  C_26 
ROOT
HETATM    1  C   UNL     1      31.307  50.010  38.978  1.00  0.00     0.118 C 
HETATM    2  N   UNL     1      30.190  49.078  39.073  1.00  0.00    -0.366 N 
HETATM    3  C   UNL     1      28.922  49.428  38.780  1.00  0.00     0.123 A 
HETATM    4  N   UNL     1      28.604  50.667  38.302  1.00  0.00    -0.240 N 
HETATM    5  N   UNL     1      27.303  50.812  37.977  1.00  0.00    -0.165 NA
HETATM    6  C   UNL     1      26.755  49.632  38.352  1.00  0.00     0.148 A 
HETATM    7  C   UNL     1      27.741  48.741  38.858  1.00  0.00     0.089 A 
HETATM    8  C   UNL     1      29.569  51.730  38.099  1.00  0.00     0.221 C 
HETATM    9  C   UNL     1      30.995  51.155  37.998  1.00  0.00     0.066 C 
HETATM   10  H   UNL     1      30.398  48.197  39.540  1.00  0.00     0.161 HD
ENDROOT
BRANCH   6  11
HETATM   11  C   UNL     1      25.315  49.346  38.215  1.00  0.00     0.276 C 
HETATM   12  N   UNL     1      24.586  49.815  39.291  1.00  0.00    -0.322 N 
HETATM   13  H   UNL     1      25.154  50.281  39.993  1.00  0.00     0.169 HD
HETATM   14  O   UNL     1      24.877  48.764  37.229  1.00  0.00    -0.266 OA
BRANCH  12  15
HETATM   15  C   UNL     1      23.198  49.741  39.497  1.00  0.00     0.035 A 
HETATM   16  C   UNL     1      22.304  50.749  39.134  1.00  0.00     0.030 A 
HETATM   17  C   UNL     1      20.934  50.609  39.386  1.00  0.00     0.012 A 
HETATM   18  C   UNL     1      20.427  49.458  40.002  1.00  0.00    -0.030 A 
HETATM   19  C   UNL     1      21.328  48.447  40.362  1.00  0.00     0.012 A 
HETATM   20  C   UNL     1      22.698  48.586  40.107  1.00  0.00     0.030 A 
BRANCH  18  21
HETATM   21  C   UNL     1      18.955  49.321  40.318  1.00  0.00     0.147 C 
HETATM   22  C   UNL     1      18.735  48.676  41.681  1.00  0.00     0.044 C 
BRANCH  21  23
HETATM   23  O   UNL     1      18.336  50.606  40.301  1.00  0.00    -0.391 OA
HETATM   24  H   UNL     1      18.797  51.155  40.955  1.00  0.00     0.210 HD
ENDBRANCH  21  23
ENDBRANCH  18  21
ENDBRANCH  12  15
ENDBRANCH   6  11
BRANCH   8  25
HETATM   25  C   UNL     1      29.410  52.791  39.164  1.00  0.00     0.409 C 
HETATM   26  F   UNL     1      30.572  53.239  39.670  1.00  0.00    -0.169 F 
HETATM   27  F   UNL     1      28.750  53.865  38.658  1.00  0.00    -0.169 F 
HETATM   28  F   UNL     1      28.662  52.347  40.203  1.00  0.00    -0.169 F 
ENDBRANCH   8  25
BRANCH   1  29
HETATM   29  C   UNL     1      31.824  50.444  40.339  1.00  0.00    -0.035 A 
HETATM   30  C   UNL     1      31.007  50.268  41.469  1.00  0.00     0.010 A 
HETATM   31  C   UNL     1      31.424  50.692  42.735  1.00  0.00     0.007 A 
HETATM   32  C   UNL     1      32.666  51.308  42.902  1.00  0.00    -0.062 A 
HETATM   33  C   UNL     1      33.133  51.752  44.256  1.00  0.00     0.048 C 
HETATM   34  C   UNL     1      33.493  51.473  41.788  1.00  0.00     0.007 A 
HETATM   35  C   UNL     1      33.073  51.054  40.522  1.00  0.00     0.010 A 
ENDBRANCH   1  29
TORSDOF 6
ENDMDL
MODEL 10
REMARK VINA RESULT:      -7.8     21.725     24.191
REMARK  6 active torsions:
REMARK  status: ('A' for Active; 'I' for Inactive)
REMARK    1  A    between atoms: C_5  and  C_6 
REMARK    2  A    between atoms: C_11  and  C_12 
REMARK       I    between atoms: C_12  and  N_13 
REMARK    3  A    between atoms: N_13  and  C_14 
REMARK    4  A    between atoms: C_17  and  C_18 
REMARK    5  A    between atoms: C_18  and  O_19 
REMARK    6  A    between atoms: C_25  and  C_26 
ROOT
HETATM    1  C   UNL     1      37.670  42.279  65.455  1.00  0.00     0.118 C 
HETATM    2  N   UNL     1      37.999  43.330  66.408  1.00  0.00    -0.366 N 
HETATM    3  C   UNL     1      38.176  44.615  66.043  1.00  0.00     0.123 A 
HETATM    4  N   UNL     1      37.988  45.037  64.757  1.00  0.00    -0.240 N 
HETATM    5  N   UNL     1      38.118  46.368  64.592  1.00  0.00    -0.165 NA
HETATM    6  C   UNL     1      38.496  46.800  65.818  1.00  0.00     0.148 A 
HETATM    7  C   UNL     1      38.541  45.728  66.752  1.00  0.00     0.089 A 
HETATM    8  C   UNL     1      37.622  44.159  63.663  1.00  0.00     0.221 C 
HETATM    9  C   UNL     1      36.996  42.857  64.198  1.00  0.00     0.066 C 
HETATM   10  H   UNL     1      38.258  43.008  67.339  1.00  0.00     0.161 HD
ENDROOT
BRANCH   6  11
HETATM   11  C   UNL     1      38.794  48.215  66.107  1.00  0.00     0.276 C 
HETATM   12  N   UNL     1      37.677  48.904  66.541  1.00  0.00    -0.322 N 
HETATM   13  H   UNL     1      36.841  48.327  66.596  1.00  0.00     0.169 HD
HETATM   14  O   UNL     1      39.925  48.664  65.968  1.00  0.00    -0.266 OA
BRANCH  12  15
HETATM   15  C   UNL     1      37.583  50.252  66.924  1.00  0.00     0.035 A 
HETATM   16  C   UNL     1      37.906  51.321  66.087  1.00  0.00     0.030 A 
HETATM   17  C   UNL     1      37.800  52.640  66.545  1.00  0.00     0.012 A 
HETATM   18  C   UNL     1      37.368  52.919  67.848  1.00  0.00    -0.030 A 
HETATM   19  C   UNL     1      37.043  51.843  68.684  1.00  0.00     0.012 A 
HETATM   20  C   UNL     1      37.145  50.524  68.223  1.00  0.00     0.030 A 
BRANCH  18  21
HETATM   21  C   UNL     1      37.297  54.338  68.362  1.00  0.00     0.147 C 
HETATM   22  C   UNL     1      36.921  55.314  67.254  1.00  0.00     0.044 C 
BRANCH  21  23
HETATM   23  O   UNL     1      36.333  54.425  69.411  1.00  0.00    -0.391 OA
HETATM   24  H   UNL     1      36.576  55.186  69.962  1.00  0.00     0.210 HD
ENDBRANCH  21  23
ENDBRANCH  18  21
ENDBRANCH  12  15
ENDBRANCH   6  11
BRANCH   8  25
HETATM   25  C   UNL     1      38.808  43.940  62.751  1.00  0.00     0.409 C 
HETATM   26  F   UNL     1      38.761  44.649  61.609  1.00  0.00    -0.169 F 
HETATM   27  F   UNL     1      39.957  44.279  63.390  1.00  0.00    -0.169 F 
HETATM   28  F   UNL     1      38.940  42.635  62.409  1.00  0.00    -0.169 F 
ENDBRANCH   8  25
BRANCH   1  29
HETATM   29  C   UNL     1      38.836  41.341  65.192  1.00  0.00    -0.035 A 
HETATM   30  C   UNL     1      38.577  40.049  64.704  1.00  0.00     0.010 A 
HETATM   31  C   UNL     1      39.614  39.136  64.489  1.00  0.00     0.007 A 
HETATM   32  C   UNL     1      40.938  39.491  64.761  1.00  0.00    -0.062 A 
HETATM   33  C   UNL     1      42.062  38.529  64.518  1.00  0.00     0.048 C 
HETATM   34  C   UNL     1      41.208  40.779  65.231  1.00  0.00     0.007 A 
HETATM   35  C   UNL     1      40.169  41.688  65.451  1.00  0.00     0.010 A 
ENDBRANCH   1  29
TORSDOF 6
ENDMDL
