MODEL 1
REMARK VINA RESULT:      -8.7      0.000      0.000
REMARK  5 active torsions:
REMARK  status: ('A' for Active; 'I' for Inactive)
REMARK    1  A    between atoms: C_2  and  C_3 
REMARK    2  A    between atoms: C_7  and  C_8 
REMARK       I    between atoms: C_8  and  N_9 
REMARK    3  A    between atoms: N_9  and  C_10 
REMARK    4  A    between atoms: C_13  and  C_14 
REMARK       I    between atoms: C_14  and  N_15 
REMARK    5  A    between atoms: N_15  and  C_16 
ROOT
HETATM    1  C   UNL     1      25.709  45.718  51.440  1.00  0.00     0.035 A 
HETATM    2  C   UNL     1      24.788  44.818  50.902  1.00  0.00     0.030 A 
HETATM    3  C   UNL     1      23.804  45.252  50.002  1.00  0.00     0.019 A 
HETATM    4  C   UNL     1      23.722  46.600  49.639  1.00  0.00     0.032 A 
HETATM    5  C   UNL     1      24.663  47.499  50.154  1.00  0.00     0.019 A 
HETATM    6  C   UNL     1      25.646  47.061  51.048  1.00  0.00     0.030 A 
ENDROOT
BRANCH   1   7
HETATM    7  N   UNL     1      26.709  45.369  52.371  1.00  0.00    -0.322 N 
HETATM    8  C   UNL     1      26.718  45.601  53.733  1.00  0.00     0.274 C 
HETATM    9  O   UNL     1      25.810  46.120  54.371  1.00  0.00    -0.266 OA
HETATM   10  H   UNL     1      27.523  44.911  51.987  1.00  0.00     0.169 HD
BRANCH   8  11
HETATM   11  C   UNL     1      27.928  45.179  54.402  1.00  0.00     0.120 A 
HETATM   12  N   UNL     1      28.630  46.043  55.200  1.00  0.00    -0.273 N 
HETATM   13  N   UNL     1      29.741  45.517  55.738  1.00  0.00    -0.179 NA
HETATM   14  H   UNL     1      28.392  47.010  55.405  1.00  0.00     0.189 HD
HETATM   15  C   UNL     1      29.763  44.264  55.273  1.00  0.00     0.056 A 
HETATM   16  C   UNL     1      28.650  44.001  54.439  1.00  0.00     0.065 A 
BRANCH  15  17
HETATM   17  C   UNL     1      30.874  43.340  55.641  1.00  0.00     0.056 C 
HETATM   18  C   UNL     1      31.387  43.589  57.052  1.00  0.00     0.011 C 
ENDBRANCH  15  17
ENDBRANCH   8  11
ENDBRANCH   1   7
BRANCH   4  19
HETATM   19  C   UNL     1      22.677  47.125  48.713  1.00  0.00     0.252 C 
HETATM   20  N   UNL     1      21.794  48.050  49.236  1.00  0.00    -0.352 N 
HETATM   21  H   UNL     1      22.012  48.468  50.128  1.00  0.00     0.163 HD
HETATM   22  O   UNL     1      22.658  46.761  47.542  1.00  0.00    -0.268 OA
BRANCH  20  23
HETATM   23  C   UNL     1      20.832  48.751  48.391  1.00  0.00     0.084 C 
HETATM   24  C   UNL     1      19.488  48.905  49.112  1.00  0.00     0.025 C 
HETATM   25  C   UNL     1      19.534  49.926  50.249  1.00  0.00     0.002 C 
HETATM   26  C   UNL     1      20.081  51.270  49.780  1.00  0.00     0.000 C 
HETATM   27  C   UNL     1      21.437  51.123  49.097  1.00  0.00     0.002 C 
HETATM   28  C   UNL     1      21.385  50.114  47.950  1.00  0.00     0.025 C 
ENDBRANCH  20  23
ENDBRANCH   4  19
TORSDOF 5
ENDMDL
MODEL 2
REMARK VINA RESULT:      -8.5      2.530      9.810
REMARK  5 active torsions:
REMARK  status: ('A' for Active; 'I' for Inactive)
REMARK    1  A    between atoms: C_2  and  C_3 
REMARK    2  A    between atoms: C_7  and  C_8 
REMARK       I    between atoms: C_8  and  N_9 
REMARK    3  A    between atoms: N_9  and  C_10 
REMARK    4  A    between atoms: C_13  and  C_14 
REMARK       I    between atoms: C_14  and  N_15 
REMARK    5  A    between atoms: N_15  and  C_16 
ROOT
HETATM    1  C   UNL     1      24.080  47.018  49.875  1.00  0.00     0.035 A 
HETATM    2  C   UNL     1      25.143  47.180  50.765  1.00  0.00     0.030 A 
HETATM    3  C   UNL     1      26.114  46.179  50.912  1.00  0.00     0.019 A 
HETATM    4  C   UNL     1      26.025  44.993  50.174  1.00  0.00     0.032 A 
HETATM    5  C   UNL     1      24.977  44.842  49.259  1.00  0.00     0.019 A 
HETATM    6  C   UNL     1      24.013  45.846  49.113  1.00  0.00     0.030 A 
ENDROOT
BRANCH   1   7
HETATM    7  N   UNL     1      23.049  47.963  49.690  1.00  0.00    -0.322 N 
HETATM    8  C   UNL     1      23.172  49.299  49.362  1.00  0.00     0.274 C 
HETATM    9  O   UNL     1      24.226  49.879  49.127  1.00  0.00    -0.266 OA
HETATM   10  H   UNL     1      22.111  47.619  49.835  1.00  0.00     0.169 HD
BRANCH   8  11
HETATM   11  C   UNL     1      21.920  50.019  49.313  1.00  0.00     0.120 A 
HETATM   12  N   UNL     1      20.838  49.601  50.042  1.00  0.00    -0.273 N 
HETATM   13  N   UNL     1      19.740  50.356  49.882  1.00  0.00    -0.179 NA
HETATM   14  H   UNL     1      20.798  48.797  50.663  1.00  0.00     0.189 HD
HETATM   15  C   UNL     1      20.122  51.301  49.016  1.00  0.00     0.056 A 
HETATM   16  C   UNL     1      21.476  51.139  48.635  1.00  0.00     0.065 A 
BRANCH  15  17
HETATM   17  C   UNL     1      19.160  52.346  48.565  1.00  0.00     0.056 C 
HETATM   18  C   UNL     1      17.970  52.479  49.505  1.00  0.00     0.011 C 
ENDBRANCH  15  17
ENDBRANCH   8  11
ENDBRANCH   1   7
BRANCH   4  19
HETATM   19  C   UNL     1      27.008  43.881  50.312  1.00  0.00     0.252 C 
HETATM   20  N   UNL     1      27.697  43.808  51.508  1.00  0.00    -0.352 N 
HETATM   21  H   UNL     1      27.369  44.364  52.283  1.00  0.00     0.163 HD
HETATM   22  O   UNL     1      27.144  43.068  49.404  1.00  0.00    -0.268 OA
BRANCH  20  23
HETATM   23  C   UNL     1      28.565  42.677  51.821  1.00  0.00     0.084 C 
HETATM   24  C   UNL     1      29.861  43.156  52.486  1.00  0.00     0.025 C 
HETATM   25  C   UNL     1      29.651  43.649  53.918  1.00  0.00     0.002 C 
HETATM   26  C   UNL     1      28.928  42.612  54.771  1.00  0.00     0.000 C 
HETATM   27  C   UNL     1      27.619  42.163  54.131  1.00  0.00     0.002 C 
HETATM   28  C   UNL     1      27.833  41.656  52.704  1.00  0.00     0.025 C 
ENDBRANCH  20  23
ENDBRANCH   4  19
TORSDOF 5
ENDMDL
MODEL 3
REMARK VINA RESULT:      -8.4      2.239      2.730
REMARK  5 active torsions:
REMARK  status: ('A' for Active; 'I' for Inactive)
REMARK    1  A    between atoms: C_2  and  C_3 
REMARK    2  A    between atoms: C_7  and  C_8 
REMARK       I    between atoms: C_8  and  N_9 
REMARK    3  A    between atoms: N_9  and  C_10 
REMARK    4  A    between atoms: C_13  and  C_14 
REMARK       I    between atoms: C_14  and  N_15 
REMARK    5  A    between atoms: N_15  and  C_16 
ROOT
HETATM    1  C   UNL     1      25.676  46.749  50.475  1.00  0.00     0.035 A 
HETATM    2  C   UNL     1      26.249  47.895  49.921  1.00  0.00     0.030 A 
HETATM    3  C   UNL     1      25.481  48.781  49.153  1.00  0.00     0.019 A 
HETATM    4  C   UNL     1      24.126  48.523  48.919  1.00  0.00     0.032 A 
HETATM    5  C   UNL     1      23.542  47.391  49.499  1.00  0.00     0.019 A 
HETATM    6  C   UNL     1      24.311  46.512  50.268  1.00  0.00     0.030 A 
ENDROOT
BRANCH   1   7
HETATM    7  N   UNL     1      26.384  45.795  51.234  1.00  0.00    -0.322 N 
HETATM    8  C   UNL     1      27.018  44.653  50.782  1.00  0.00     0.274 C 
HETATM    9  O   UNL     1      27.106  44.306  49.609  1.00  0.00    -0.266 OA
HETATM   10  H   UNL     1      26.412  45.961  52.229  1.00  0.00     0.169 HD
BRANCH   8  11
HETATM   11  C   UNL     1      27.599  43.841  51.826  1.00  0.00     0.120 A 
HETATM   12  N   UNL     1      26.832  42.964  52.548  1.00  0.00    -0.273 N 
HETATM   13  N   UNL     1      27.505  42.293  53.495  1.00  0.00    -0.179 NA
HETATM   14  H   UNL     1      25.836  42.792  52.433  1.00  0.00     0.189 HD
HETATM   15  C   UNL     1      28.756  42.750  53.387  1.00  0.00     0.056 A 
HETATM   16  C   UNL     1      28.870  43.713  52.355  1.00  0.00     0.065 A 
BRANCH  15  17
HETATM   17  C   UNL     1      29.826  42.247  54.295  1.00  0.00     0.056 C 
HETATM   18  C   UNL     1      30.511  43.371  55.058  1.00  0.00     0.011 C 
ENDBRANCH  15  17
ENDBRANCH   8  11
ENDBRANCH   1   7
BRANCH   4  19
HETATM   19  C   UNL     1      23.267  49.412  48.084  1.00  0.00     0.252 C 
HETATM   20  N   UNL     1      21.905  49.339  48.301  1.00  0.00    -0.352 N 
HETATM   21  H   UNL     1      21.577  48.858  49.125  1.00  0.00     0.163 HD
HETATM   22  O   UNL     1      23.783  50.184  47.283  1.00  0.00    -0.268 OA
BRANCH  20  23
HETATM   23  C   UNL     1      20.979  50.269  47.661  1.00  0.00     0.084 C 
HETATM   24  C   UNL     1      19.634  49.587  47.382  1.00  0.00     0.025 C 
HETATM   25  C   UNL     1      18.818  49.335  48.649  1.00  0.00     0.002 C 
HETATM   26  C   UNL     1      18.647  50.607  49.474  1.00  0.00     0.000 C 
HETATM   27  C   UNL     1      19.987  51.264  49.786  1.00  0.00     0.002 C 
HETATM   28  C   UNL     1      20.795  51.531  48.516  1.00  0.00     0.025 C 
ENDBRANCH  20  23
ENDBRANCH   4  19
TORSDOF 5
ENDMDL
MODEL 4
REMARK VINA RESULT:      -8.1      1.487      1.578
REMARK  5 active torsions:
REMARK  status: ('A' for Active; 'I' for Inactive)
REMARK    1  A    between atoms: C_2  and  C_3 
REMARK    2  A    between atoms: C_7  and  C_8 
REMARK       I    between atoms: C_8  and  N_9 
REMARK    3  A    between atoms: N_9  and  C_10 
REMARK    4  A    between atoms: C_13  and  C_14 
REMARK       I    between atoms: C_14  and  N_15 
REMARK    5  A    between atoms: N_15  and  C_16 
ROOT
HETATM    1  C   UNL     1      25.218  45.514  50.435  1.00  0.00     0.035 A 
HETATM    2  C   UNL     1      24.396  44.725  49.628  1.00  0.00     0.030 A 
HETATM    3  C   UNL     1      23.354  45.300  48.887  1.00  0.00     0.019 A 
HETATM    4  C   UNL     1      23.113  46.677  48.955  1.00  0.00     0.032 A 
HETATM    5  C   UNL     1      23.955  47.474  49.739  1.00  0.00     0.019 A 
HETATM    6  C   UNL     1      24.996  46.896  50.473  1.00  0.00     0.030 A 
ENDROOT
BRANCH   1   7
HETATM    7  N   UNL     1      26.267  45.011  51.231  1.00  0.00    -0.322 N 
HETATM    8  C   UNL     1      26.172  44.362  52.448  1.00  0.00     0.274 C 
HETATM    9  O   UNL     1      25.126  44.073  53.019  1.00  0.00    -0.266 OA
HETATM   10  H   UNL     1      27.198  45.162  50.874  1.00  0.00     0.169 HD
BRANCH   8  11
HETATM   11  C   UNL     1      27.444  44.030  53.048  1.00  0.00     0.120 A 
HETATM   12  N   UNL     1      28.330  43.202  52.409  1.00  0.00    -0.273 N 
HETATM   13  N   UNL     1      29.459  42.970  53.095  1.00  0.00    -0.179 NA
HETATM   14  H   UNL     1      28.205  42.765  51.500  1.00  0.00     0.189 HD
HETATM   15  C   UNL     1      29.303  43.670  54.222  1.00  0.00     0.056 A 
HETATM   16  C   UNL     1      28.064  44.356  54.239  1.00  0.00     0.065 A 
BRANCH  15  17
HETATM   17  C   UNL     1      30.360  43.659  55.273  1.00  0.00     0.056 C 
HETATM   18  C   UNL     1      30.376  44.943  56.089  1.00  0.00     0.011 C 
ENDBRANCH  15  17
ENDBRANCH   8  11
ENDBRANCH   1   7
BRANCH   4  19
HETATM   19  C   UNL     1      22.000  47.339  48.216  1.00  0.00     0.252 C 
HETATM   20  N   UNL     1      21.085  48.043  48.975  1.00  0.00    -0.352 N 
HETATM   21  H   UNL     1      21.315  48.243  49.936  1.00  0.00     0.163 HD
HETATM   22  O   UNL     1      21.954  47.274  46.992  1.00  0.00    -0.268 OA
BRANCH  20  23
HETATM   23  C   UNL     1      20.048  48.862  48.355  1.00  0.00     0.084 C 
HETATM   24  C   UNL     1      18.889  49.098  49.331  1.00  0.00     0.025 C 
HETATM   25  C   UNL     1      19.249  50.059  50.465  1.00  0.00     0.002 C 
HETATM   26  C   UNL     1      19.818  51.371  49.934  1.00  0.00     0.000 C 
HETATM   27  C   UNL     1      20.996  51.139  48.993  1.00  0.00     0.002 C 
HETATM   28  C   UNL     1      20.629  50.191  47.852  1.00  0.00     0.025 C 
ENDBRANCH  20  23
ENDBRANCH   4  19
TORSDOF 5
ENDMDL
MODEL 5
REMARK VINA RESULT:      -7.5     13.417     14.147
REMARK  5 active torsions:
REMARK  status: ('A' for Active; 'I' for Inactive)
REMARK    1  A    between atoms: C_2  and  C_3 
REMARK    2  A    between atoms: C_7  and  C_8 
REMARK       I    between atoms: C_8  and  N_9 
REMARK    3  A    between atoms: N_9  and  C_10 
REMARK    4  A    between atoms: C_13  and  C_14 
REMARK       I    between atoms: C_14  and  N_15 
REMARK    5  A    between atoms: N_15  and  C_16 
ROOT
HETATM    1  C   UNL     1      34.762  51.751  43.674  1.00  0.00     0.035 A 
HETATM    2  C   UNL     1      34.828  50.988  42.507  1.00  0.00     0.030 A 
HETATM    3  C   UNL     1      33.673  50.407  41.965  1.00  0.00     0.019 A 
HETATM    4  C   UNL     1      32.434  50.574  42.594  1.00  0.00     0.032 A 
HETATM    5  C   UNL     1      32.361  51.364  43.747  1.00  0.00     0.019 A 
HETATM    6  C   UNL     1      33.515  51.946  44.282  1.00  0.00     0.030 A 
ENDROOT
BRANCH   1   7
HETATM    7  N   UNL     1      35.879  52.344  44.298  1.00  0.00    -0.322 N 
HETATM    8  C   UNL     1      36.771  53.251  43.758  1.00  0.00     0.274 C 
HETATM    9  O   UNL     1      36.700  53.732  42.633  1.00  0.00    -0.266 OA
HETATM   10  H   UNL     1      36.054  52.052  45.248  1.00  0.00     0.169 HD
BRANCH   8  11
HETATM   11  C   UNL     1      37.855  53.618  44.639  1.00  0.00     0.120 A 
HETATM   12  N   UNL     1      38.988  54.216  44.153  1.00  0.00    -0.273 N 
HETATM   13  N   UNL     1      39.915  54.481  45.086  1.00  0.00    -0.179 NA
HETATM   14  H   UNL     1      39.177  54.460  43.184  1.00  0.00     0.189 HD
HETATM   15  C   UNL     1      39.367  54.039  46.221  1.00  0.00     0.056 A 
HETATM   16  C   UNL     1      38.078  53.497  45.998  1.00  0.00     0.065 A 
BRANCH  15  17
HETATM   17  C   UNL     1      40.109  54.144  47.510  1.00  0.00     0.056 C 
HETATM   18  C   UNL     1      39.248  53.756  48.704  1.00  0.00     0.011 C 
ENDBRANCH  15  17
ENDBRANCH   8  11
ENDBRANCH   1   7
BRANCH   4  19
HETATM   19  C   UNL     1      31.178  49.954  42.082  1.00  0.00     0.252 C 
HETATM   20  N   UNL     1      30.606  50.541  40.971  1.00  0.00    -0.352 N 
HETATM   21  H   UNL     1      31.151  51.212  40.450  1.00  0.00     0.163 HD
HETATM   22  O   UNL     1      30.727  48.950  42.623  1.00  0.00    -0.268 OA
BRANCH  20  23
HETATM   23  C   UNL     1      29.469  49.933  40.285  1.00  0.00     0.084 C 
HETATM   24  C   UNL     1      28.174  50.687  40.611  1.00  0.00     0.025 C 
HETATM   25  C   UNL     1      28.097  52.059  39.942  1.00  0.00     0.002 C 
HETATM   26  C   UNL     1      28.337  51.969  38.438  1.00  0.00     0.000 C 
HETATM   27  C   UNL     1      29.644  51.255  38.114  1.00  0.00     0.002 C 
HETATM   28  C   UNL     1      29.712  49.875  38.770  1.00  0.00     0.025 C 
ENDBRANCH  20  23
ENDBRANCH   4  19
TORSDOF 5
ENDMDL
MODEL 6
REMARK VINA RESULT:      -7.4      3.797      9.718
REMARK  5 active torsions:
REMARK  status: ('A' for Active; 'I' for Inactive)
REMARK    1  A    between atoms: C_2  and  C_3 
REMARK    2  A    between atoms: C_7  and  C_8 
REMARK       I    between atoms: C_8  and  N_9 
REMARK    3  A    between atoms: N_9  and  C_10 
REMARK    4  A    between atoms: C_13  and  C_14 
REMARK       I    between atoms: C_14  and  N_15 
REMARK    5  A    between atoms: N_15  and  C_16 
ROOT
HETATM    1  C   UNL     1      24.286  46.188  50.070  1.00  0.00     0.035 A 
HETATM    2  C   UNL     1      25.057  46.110  51.231  1.00  0.00     0.030 A 
HETATM    3  C   UNL     1      25.940  45.041  51.435  1.00  0.00     0.019 A 
HETATM    4  C   UNL     1      26.054  44.025  50.480  1.00  0.00     0.032 A 
HETATM    5  C   UNL     1      25.304  44.116  49.302  1.00  0.00     0.019 A 
HETATM    6  C   UNL     1      24.428  45.187  49.100  1.00  0.00     0.030 A 
ENDROOT
BRANCH   1   7
HETATM    7  N   UNL     1      23.355  47.212  49.803  1.00  0.00    -0.322 N 
HETATM    8  C   UNL     1      23.614  48.529  49.471  1.00  0.00     0.274 C 
HETATM    9  O   UNL     1      24.728  49.014  49.308  1.00  0.00    -0.266 OA
HETATM   10  H   UNL     1      22.383  46.952  49.883  1.00  0.00     0.169 HD
BRANCH   8  11
HETATM   11  C   UNL     1      22.435  49.350  49.326  1.00  0.00     0.120 A 
HETATM   12  N   UNL     1      21.199  48.880  49.686  1.00  0.00    -0.273 N 
HETATM   13  N   UNL     1      20.197  49.748  49.476  1.00  0.00    -0.179 NA
HETATM   14  H   UNL     1      20.987  47.966  50.076  1.00  0.00     0.189 HD
HETATM   15  C   UNL     1      20.802  50.822  48.960  1.00  0.00     0.056 A 
HETATM   16  C   UNL     1      22.200  50.628  48.852  1.00  0.00     0.065 A 
BRANCH  15  17
HETATM   17  C   UNL     1      20.009  52.023  48.573  1.00  0.00     0.056 C 
HETATM   18  C   UNL     1      18.615  52.016  49.185  1.00  0.00     0.011 C 
ENDBRANCH  15  17
ENDBRANCH   8  11
ENDBRANCH   1   7
BRANCH   4  19
HETATM   19  C   UNL     1      26.952  42.847  50.657  1.00  0.00     0.252 C 
HETATM   20  N   UNL     1      26.656  41.725  49.906  1.00  0.00    -0.352 N 
HETATM   21  H   UNL     1      25.997  41.817  49.149  1.00  0.00     0.163 HD
HETATM   22  O   UNL     1      27.916  42.921  51.410  1.00  0.00    -0.268 OA
BRANCH  20  23
HETATM   23  C   UNL     1      27.550  40.571  49.873  1.00  0.00     0.084 C 
HETATM   24  C   UNL     1      26.753  39.275  49.683  1.00  0.00     0.025 C 
HETATM   25  C   UNL     1      26.184  39.125  48.272  1.00  0.00     0.002 C 
HETATM   26  C   UNL     1      27.265  39.288  47.207  1.00  0.00     0.000 C 
HETATM   27  C   UNL     1      28.032  40.595  47.372  1.00  0.00     0.002 C 
HETATM   28  C   UNL     1      28.614  40.736  48.778  1.00  0.00     0.025 C 
ENDBRANCH  20  23
ENDBRANCH   4  19
TORSDOF 5
ENDMDL
MODEL 7
REMARK VINA RESULT:      -7.1     18.962     21.720
REMARK  5 active torsions:
REMARK  status: ('A' for Active; 'I' for Inactive)
REMARK    1  A    between atoms: C_2  and  C_3 
REMARK    2  A    between atoms: C_7  and  C_8 
REMARK       I    between atoms: C_8  and  N_9 
REMARK    3  A    between atoms: N_9  and  C_10 
REMARK    4  A    between atoms: C_13  and  C_14 
REMARK       I    between atoms: C_14  and  N_15 
REMARK    5  A    between atoms: N_15  and  C_16 
ROOT
HETATM    1  C   UNL     1      39.261  44.492  64.263  1.00  0.00     0.035 A 
HETATM    2  C   UNL     1      39.142  43.988  62.967  1.00  0.00     0.030 A 
HETATM    3  C   UNL     1      39.333  42.624  62.708  1.00  0.00     0.019 A 
HETATM    4  C   UNL     1      39.660  41.745  63.747  1.00  0.00     0.032 A 
HETATM    5  C   UNL     1      39.749  42.243  65.051  1.00  0.00     0.019 A 
HETATM    6  C   UNL     1      39.553  43.604  65.306  1.00  0.00     0.030 A 
ENDROOT
BRANCH   1   7
HETATM    7  N   UNL     1      39.112  45.853  64.602  1.00  0.00    -0.322 N 
HETATM    8  C   UNL     1      37.939  46.568  64.746  1.00  0.00     0.274 C 
HETATM    9  O   UNL     1      36.808  46.106  64.643  1.00  0.00    -0.266 OA
HETATM   10  H   UNL     1      39.971  46.365  64.737  1.00  0.00     0.169 HD
BRANCH   8  11
HETATM   11  C   UNL     1      38.127  47.971  65.033  1.00  0.00     0.120 A 
HETATM   12  N   UNL     1      39.278  48.618  64.666  1.00  0.00    -0.273 N 
HETATM   13  N   UNL     1      39.318  49.913  65.017  1.00  0.00    -0.179 NA
HETATM   14  H   UNL     1      40.072  48.214  64.177  1.00  0.00     0.189 HD
HETATM   15  C   UNL     1      38.151  50.117  65.635  1.00  0.00     0.056 A 
HETATM   16  C   UNL     1      37.368  48.938  65.666  1.00  0.00     0.065 A 
BRANCH  15  17
HETATM   17  C   UNL     1      37.816  51.457  66.194  1.00  0.00     0.056 C 
HETATM   18  C   UNL     1      37.472  51.394  67.676  1.00  0.00     0.011 C 
ENDBRANCH  15  17
ENDBRANCH   8  11
ENDBRANCH   1   7
BRANCH   4  19
HETATM   19  C   UNL     1      39.907  40.291  63.527  1.00  0.00     0.252 C 
HETATM   20  N   UNL     1      40.687  39.647  64.467  1.00  0.00    -0.352 N 
HETATM   21  H   UNL     1      40.878  40.121  65.337  1.00  0.00     0.163 HD
HETATM   22  O   UNL     1      39.395  39.721  62.570  1.00  0.00    -0.268 OA
BRANCH  20  23
HETATM   23  C   UNL     1      40.867  38.198  64.447  1.00  0.00     0.084 C 
HETATM   24  C   UNL     1      42.358  37.837  64.457  1.00  0.00     0.025 C 
HETATM   25  C   UNL     1      43.027  38.101  65.806  1.00  0.00     0.002 C 
HETATM   26  C   UNL     1      42.274  37.431  66.951  1.00  0.00     0.000 C 
HETATM   27  C   UNL     1      40.800  37.820  66.966  1.00  0.00     0.002 C 
HETATM   28  C   UNL     1      40.128  37.540  65.621  1.00  0.00     0.025 C 
ENDBRANCH  20  23
ENDBRANCH   4  19
TORSDOF 5
ENDMDL
MODEL 8
REMARK VINA RESULT:      -7.1     18.099     20.491
REMARK  5 active torsions:
REMARK  status: ('A' for Active; 'I' for Inactive)
REMARK    1  A    between atoms: C_2  and  C_3 
REMARK    2  A    between atoms: C_7  and  C_8 
REMARK       I    between atoms: C_8  and  N_9 
REMARK    3  A    between atoms: N_9  and  C_10 
REMARK    4  A    between atoms: C_13  and  C_14 
REMARK       I    between atoms: C_14  and  N_15 
REMARK    5  A    between atoms: N_15  and  C_16 
ROOT
HETATM    1  C   UNL     1      38.230  47.860  65.378  1.00  0.00     0.035 A 
HETATM    2  C   UNL     1      37.307  48.353  66.303  1.00  0.00     0.030 A 
HETATM    3  C   UNL     1      37.385  49.678  66.754  1.00  0.00     0.019 A 
HETATM    4  C   UNL     1      38.399  50.525  66.294  1.00  0.00     0.032 A 
HETATM    5  C   UNL     1      39.306  50.041  65.345  1.00  0.00     0.019 A 
HETATM    6  C   UNL     1      39.222  48.720  64.893  1.00  0.00     0.030 A 
ENDROOT
BRANCH   1   7
HETATM    7  N   UNL     1      38.239  46.535  64.896  1.00  0.00    -0.322 N 
HETATM    8  C   UNL     1      37.387  45.963  63.970  1.00  0.00     0.274 C 
HETATM    9  O   UNL     1      36.493  46.550  63.370  1.00  0.00    -0.266 OA
HETATM   10  H   UNL     1      38.943  45.930  65.293  1.00  0.00     0.169 HD
BRANCH   8  11
HETATM   11  C   UNL     1      37.616  44.555  63.738  1.00  0.00     0.120 A 
HETATM   12  N   UNL     1      36.743  43.611  64.211  1.00  0.00    -0.273 N 
HETATM   13  N   UNL     1      37.096  42.347  63.935  1.00  0.00    -0.179 NA
HETATM   14  H   UNL     1      35.889  43.783  64.735  1.00  0.00     0.189 HD
HETATM   15  C   UNL     1      38.242  42.471  63.259  1.00  0.00     0.056 A 
HETATM   16  C   UNL     1      38.607  43.831  63.103  1.00  0.00     0.065 A 
BRANCH  15  17
HETATM   17  C   UNL     1      38.972  41.264  62.777  1.00  0.00     0.056 C 
HETATM   18  C   UNL     1      39.124  40.211  63.865  1.00  0.00     0.011 C 
ENDBRANCH  15  17
ENDBRANCH   8  11
ENDBRANCH   1   7
BRANCH   4  19
HETATM   19  C   UNL     1      38.551  51.932  66.764  1.00  0.00     0.252 C 
HETATM   20  N   UNL     1      37.652  52.366  67.719  1.00  0.00    -0.352 N 
HETATM   21  H   UNL     1      37.085  51.678  68.190  1.00  0.00     0.163 HD
HETATM   22  O   UNL     1      39.463  52.627  66.330  1.00  0.00    -0.268 OA
BRANCH  20  23
HETATM   23  C   UNL     1      37.797  53.665  68.370  1.00  0.00     0.084 C 
HETATM   24  C   UNL     1      36.425  54.299  68.627  1.00  0.00     0.025 C 
HETATM   25  C   UNL     1      35.645  53.604  69.743  1.00  0.00     0.002 C 
HETATM   26  C   UNL     1      36.468  53.496  71.024  1.00  0.00     0.000 C 
HETATM   27  C   UNL     1      37.817  52.831  70.777  1.00  0.00     0.002 C 
HETATM   28  C   UNL     1      38.602  53.537  69.671  1.00  0.00     0.025 C 
ENDBRANCH  20  23
ENDBRANCH   4  19
TORSDOF 5
ENDMDL
MODEL 9
REMARK VINA RESULT:      -7.0      1.888      2.366
REMARK  5 active torsions:
REMARK  status: ('A' for Active; 'I' for Inactive)
REMARK    1  A    between atoms: C_2  and  C_3 
REMARK    2  A    between atoms: C_7  and  C_8 
REMARK       I    between atoms: C_8  and  N_9 
REMARK    3  A    between atoms: N_9  and  C_10 
REMARK    4  A    between atoms: C_13  and  C_14 
REMARK       I    between atoms: C_14  and  N_15 
REMARK    5  A    between atoms: N_15  and  C_16 
ROOT
HETATM    1  C   UNL     1      25.816  43.912  51.908  1.00  0.00     0.035 A 
HETATM    2  C   UNL     1      25.520  42.790  51.132  1.00  0.00     0.030 A 
HETATM    3  C   UNL     1      24.460  42.813  50.214  1.00  0.00     0.019 A 
HETATM    4  C   UNL     1      23.673  43.960  50.070  1.00  0.00     0.032 A 
HETATM    5  C   UNL     1      23.987  45.096  50.825  1.00  0.00     0.019 A 
HETATM    6  C   UNL     1      25.048  45.070  51.736  1.00  0.00     0.030 A 
ENDROOT
BRANCH   1   7
HETATM    7  N   UNL     1      26.844  43.961  52.872  1.00  0.00    -0.322 N 
HETATM    8  C   UNL     1      27.332  45.071  53.535  1.00  0.00     0.274 C 
HETATM    9  O   UNL     1      26.903  46.213  53.420  1.00  0.00    -0.266 OA
HETATM   10  H   UNL     1      27.285  43.079  53.085  1.00  0.00     0.169 HD
BRANCH   8  11
HETATM   11  C   UNL     1      28.443  44.797  54.418  1.00  0.00     0.120 A 
HETATM   12  N   UNL     1      28.887  45.741  55.306  1.00  0.00    -0.273 N 
HETATM   13  N   UNL     1      29.937  45.351  56.045  1.00  0.00    -0.179 NA
HETATM   14  H   UNL     1      28.507  46.674  55.441  1.00  0.00     0.189 HD
HETATM   15  C   UNL     1      30.186  44.108  55.622  1.00  0.00     0.056 A 
HETATM   16  C   UNL     1      29.277  43.712  54.611  1.00  0.00     0.065 A 
BRANCH  15  17
HETATM   17  C   UNL     1      31.311  43.323  56.205  1.00  0.00     0.056 C 
HETATM   18  C   UNL     1      31.702  43.815  57.591  1.00  0.00     0.011 C 
ENDBRANCH  15  17
ENDBRANCH   8  11
ENDBRANCH   1   7
BRANCH   4  19
HETATM   19  C   UNL     1      22.513  44.032  49.135  1.00  0.00     0.252 C 
HETATM   20  N   UNL     1      21.988  45.287  48.896  1.00  0.00    -0.352 N 
HETATM   21  H   UNL     1      22.519  46.092  49.190  1.00  0.00     0.163 HD
HETATM   22  O   UNL     1      22.099  43.013  48.594  1.00  0.00    -0.268 OA
BRANCH  20  23
HETATM   23  C   UNL     1      20.960  45.504  47.882  1.00  0.00     0.084 C 
HETATM   24  C   UNL     1      19.618  45.854  48.537  1.00  0.00     0.025 C 
HETATM   25  C   UNL     1      19.597  47.256  49.144  1.00  0.00     0.002 C 
HETATM   26  C   UNL     1      20.026  48.315  48.133  1.00  0.00     0.000 C 
HETATM   27  C   UNL     1      21.379  47.990  47.510  1.00  0.00     0.002 C 
HETATM   28  C   UNL     1      21.393  46.592  46.889  1.00  0.00     0.025 C 
ENDBRANCH  20  23
ENDBRANCH   4  19
TORSDOF 5
ENDMDL
MODEL 10
REMARK VINA RESULT:      -6.9     18.491     20.508
REMARK  5 active torsions:
REMARK  status: ('A' for Active; 'I' for Inactive)
REMARK    1  A    between atoms: C_2  and  C_3 
REMARK    2  A    between atoms: C_7  and  C_8 
REMARK       I    between atoms: C_8  and  N_9 
REMARK    3  A    between atoms: N_9  and  C_10 
REMARK    4  A    between atoms: C_13  and  C_14 
REMARK       I    between atoms: C_14  and  N_15 
REMARK    5  A    between atoms: N_15  and  C_16 
ROOT
HETATM    1  C   UNL     1      39.199  41.834  64.663  1.00  0.00     0.035 A 
HETATM    2  C   UNL     1      37.824  42.012  64.497  1.00  0.00     0.030 A 
HETATM    3  C   UNL     1      37.284  43.292  64.313  1.00  0.00     0.019 A 
HETATM    4  C   UNL     1      38.117  44.417  64.306  1.00  0.00     0.032 A 
HETATM    5  C   UNL     1      39.498  44.238  64.442  1.00  0.00     0.019 A 
HETATM    6  C   UNL     1      40.033  42.958  64.620  1.00  0.00     0.030 A 
ENDROOT
BRANCH   1   7
HETATM    7  N   UNL     1      39.817  40.586  64.881  1.00  0.00    -0.322 N 
HETATM    8  C   UNL     1      40.009  39.563  63.971  1.00  0.00     0.274 C 
HETATM    9  O   UNL     1      39.703  39.602  62.784  1.00  0.00    -0.266 OA
HETATM   10  H   UNL     1      40.140  40.416  65.822  1.00  0.00     0.169 HD
BRANCH   8  11
HETATM   11  C   UNL     1      40.617  38.376  64.527  1.00  0.00     0.120 A 
HETATM   12  N   UNL     1      41.722  37.812  63.945  1.00  0.00    -0.273 N 
HETATM   13  N   UNL     1      42.163  36.704  64.561  1.00  0.00    -0.179 NA
HETATM   14  H   UNL     1      42.210  38.145  63.118  1.00  0.00     0.189 HD
HETATM   15  C   UNL     1      41.315  36.541  65.581  1.00  0.00     0.056 A 
HETATM   16  C   UNL     1      40.335  37.563  65.608  1.00  0.00     0.065 A 
BRANCH  15  17
HETATM   17  C   UNL     1      41.466  35.388  66.513  1.00  0.00     0.056 C 
HETATM   18  C   UNL     1      40.689  34.165  66.048  1.00  0.00     0.011 C 
ENDBRANCH  15  17
ENDBRANCH   8  11
ENDBRANCH   1   7
BRANCH   4  19
HETATM   19  C   UNL     1      37.596  45.806  64.148  1.00  0.00     0.252 C 
HETATM   20  N   UNL     1      38.310  46.809  64.773  1.00  0.00    -0.352 N 
HETATM   21  H   UNL     1      39.231  46.594  65.124  1.00  0.00     0.163 HD
HETATM   22  O   UNL     1      36.604  46.012  63.457  1.00  0.00    -0.268 OA
BRANCH  20  23
HETATM   23  C   UNL     1      37.992  48.218  64.561  1.00  0.00     0.084 C 
HETATM   24  C   UNL     1      37.072  48.739  65.672  1.00  0.00     0.025 C 
HETATM   25  C   UNL     1      37.786  48.897  67.015  1.00  0.00     0.002 C 
HETATM   26  C   UNL     1      39.051  49.739  66.886  1.00  0.00     0.000 C 
HETATM   27  C   UNL     1      39.985  49.200  65.809  1.00  0.00     0.002 C 
HETATM   28  C   UNL     1      39.274  49.058  64.463  1.00  0.00     0.025 C 
ENDBRANCH  20  23
ENDBRANCH   4  19
TORSDOF 5
ENDMDL
