MODEL 1
REMARK VINA RESULT:     -10.4      0.000      0.000
REMARK  3 active torsions:
REMARK  status: ('A' for Active; 'I' for Inactive)
REMARK    1  A    between atoms: C_12  and  C_13 
REMARK       I    between atoms: C_13  and  N_14 
REMARK    2  A    between atoms: N_14  and  C_15 
REMARK    3  A    between atoms: C_15  and  C_16 
ROOT
HETATM    1  C   UNL     1      31.615  43.382  56.777  1.00  0.00     0.001 A 
HETATM    2  C   UNL     1      30.750  43.413  55.680  1.00  0.00     0.016 A 
HETATM    3  C   UNL     1      29.783  44.416  55.589  1.00  0.00     0.026 A 
HETATM    4  C   UNL     1      29.681  45.392  56.600  1.00  0.00     0.081 A 
HETATM    5  O   UNL     1      28.767  46.424  56.609  1.00  0.00    -0.346 OA
HETATM    6  C   UNL     1      27.810  46.555  55.517  1.00  0.00     0.219 A 
HETATM    7  C   UNL     1      27.917  45.538  54.450  1.00  0.00     0.031 A 
HETATM    8  C   UNL     1      28.848  44.536  54.499  1.00  0.00     0.074 A 
HETATM    9  N   UNL     1      28.668  43.790  53.380  1.00  0.00    -0.276 N 
HETATM   10  H   UNL     1      29.177  42.965  53.084  1.00  0.00     0.189 HD
HETATM   11  N   UNL     1      27.672  44.249  52.590  1.00  0.00    -0.168 NA
HETATM   12  C   UNL     1      27.200  45.333  53.250  1.00  0.00     0.155 A 
HETATM   13  C   UNL     1      30.549  45.351  57.691  1.00  0.00     0.038 A 
HETATM   14  C   UNL     1      31.515  44.348  57.779  1.00  0.00     0.003 A 
ENDROOT
BRANCH  12  15
HETATM   15  C   UNL     1      26.092  46.148  52.729  1.00  0.00     0.272 C 
HETATM   16  N   UNL     1      25.795  45.886  51.414  1.00  0.00    -0.351 N 
HETATM   17  H   UNL     1      26.352  45.162  50.969  1.00  0.00     0.163 HD
HETATM   18  O   UNL     1      25.501  46.976  53.415  1.00  0.00    -0.266 OA
BRANCH  16  19
HETATM   19  C   UNL     1      24.755  46.563  50.686  1.00  0.00     0.161 C 
BRANCH  19  20
HETATM   20  C   UNL     1      25.310  47.695  49.862  1.00  0.00    -0.039 A 
HETATM   21  C   UNL     1      24.445  48.608  49.236  1.00  0.00     0.032 A 
HETATM   22  C   UNL     1      24.962  49.665  48.488  1.00  0.00     0.034 A 
HETATM   23 CL   UNL     1      23.891  50.773  47.720  1.00  0.00    -0.084 Cl
HETATM   24  C   UNL     1      26.339  49.834  48.358  1.00  0.00     0.024 A 
HETATM   25  C   UNL     1      27.206  48.937  48.981  1.00  0.00     0.002 A 
HETATM   26  C   UNL     1      26.695  47.874  49.729  1.00  0.00     0.009 A 
ENDBRANCH  19  20
ENDBRANCH  16  19
ENDBRANCH  12  15
TORSDOF 3
ENDMDL
MODEL 2
REMARK VINA RESULT:     -10.2      1.540      1.932
REMARK  3 active torsions:
REMARK  status: ('A' for Active; 'I' for Inactive)
REMARK    1  A    between atoms: C_12  and  C_13 
REMARK       I    between atoms: C_13  and  N_14 
REMARK    2  A    between atoms: N_14  and  C_15 
REMARK    3  A    between atoms: C_15  and  C_16 
ROOT
HETATM    1  C   UNL     1      31.185  45.145  57.977  1.00  0.00     0.001 A 
HETATM    2  C   UNL     1      30.095  45.761  57.355  1.00  0.00     0.016 A 
HETATM    3  C   UNL     1      29.530  45.185  56.216  1.00  0.00     0.026 A 
HETATM    4  C   UNL     1      30.058  43.985  55.697  1.00  0.00     0.081 A 
HETATM    5  O   UNL     1      29.577  43.331  54.584  1.00  0.00    -0.346 OA
HETATM    6  C   UNL     1      28.445  43.882  53.850  1.00  0.00     0.219 A 
HETATM    7  C   UNL     1      27.884  45.136  54.394  1.00  0.00     0.031 A 
HETATM    8  C   UNL     1      28.407  45.739  55.506  1.00  0.00     0.074 A 
HETATM    9  N   UNL     1      27.665  46.855  55.722  1.00  0.00    -0.276 N 
HETATM   10  H   UNL     1      27.766  47.546  56.457  1.00  0.00     0.189 HD
HETATM   11  N   UNL     1      26.675  47.019  54.817  1.00  0.00    -0.168 NA
HETATM   12  C   UNL     1      26.806  45.957  53.988  1.00  0.00     0.155 A 
HETATM   13  C   UNL     1      31.145  43.378  56.326  1.00  0.00     0.038 A 
HETATM   14  C   UNL     1      31.707  43.957  57.464  1.00  0.00     0.003 A 
ENDROOT
BRANCH  12  15
HETATM   15  C   UNL     1      25.911  45.741  52.841  1.00  0.00     0.272 C 
HETATM   16  N   UNL     1      26.016  46.714  51.878  1.00  0.00    -0.351 N 
HETATM   17  H   UNL     1      26.698  47.446  52.059  1.00  0.00     0.163 HD
HETATM   18  O   UNL     1      25.152  44.780  52.766  1.00  0.00    -0.266 OA
BRANCH  16  19
HETATM   19  C   UNL     1      25.237  46.721  50.669  1.00  0.00     0.161 C 
BRANCH  19  20
HETATM   20  C   UNL     1      25.585  47.900  49.798  1.00  0.00    -0.039 A 
HETATM   21  C   UNL     1      24.570  48.668  49.203  1.00  0.00     0.032 A 
HETATM   22  C   UNL     1      24.894  49.769  48.412  1.00  0.00     0.034 A 
HETATM   23 CL   UNL     1      23.641  50.697  47.683  1.00  0.00    -0.084 Cl
HETATM   24  C   UNL     1      26.226  50.126  48.207  1.00  0.00     0.024 A 
HETATM   25  C   UNL     1      27.241  49.374  48.798  1.00  0.00     0.002 A 
HETATM   26  C   UNL     1      26.923  48.268  49.590  1.00  0.00     0.009 A 
ENDBRANCH  19  20
ENDBRANCH  16  19
ENDBRANCH  12  15
TORSDOF 3
ENDMDL
MODEL 3
REMARK VINA RESULT:      -9.5      3.524      8.631
REMARK  3 active torsions:
REMARK  status: ('A' for Active; 'I' for Inactive)
REMARK    1  A    between atoms: C_12  and  C_13 
REMARK       I    between atoms: C_13  and  N_14 
REMARK    2  A    between atoms: N_14  and  C_15 
REMARK    3  A    between atoms: C_15  and  C_16 
ROOT
HETATM    1  C   UNL     1      21.807  49.812  48.396  1.00  0.00     0.001 A 
HETATM    2  C   UNL     1      22.186  48.555  48.875  1.00  0.00     0.016 A 
HETATM    3  C   UNL     1      23.535  48.281  49.110  1.00  0.00     0.026 A 
HETATM    4  C   UNL     1      24.509  49.271  48.867  1.00  0.00     0.081 A 
HETATM    5  O   UNL     1      25.863  49.109  49.067  1.00  0.00    -0.346 OA
HETATM    6  C   UNL     1      26.377  47.837  49.560  1.00  0.00     0.219 A 
HETATM    7  C   UNL     1      25.359  46.798  49.824  1.00  0.00     0.031 A 
HETATM    8  C   UNL     1      24.027  47.021  49.604  1.00  0.00     0.074 A 
HETATM    9  N   UNL     1      23.385  45.873  49.942  1.00  0.00    -0.276 N 
HETATM   10  H   UNL     1      22.392  45.672  49.906  1.00  0.00     0.189 HD
HETATM   11  N   UNL     1      24.222  44.905  50.379  1.00  0.00    -0.168 NA
HETATM   12  C   UNL     1      25.449  45.473  50.306  1.00  0.00     0.155 A 
HETATM   13  C   UNL     1      24.119  50.523  48.389  1.00  0.00     0.038 A 
HETATM   14  C   UNL     1      22.770  50.792  48.155  1.00  0.00     0.003 A 
ENDROOT
BRANCH  12  15
HETATM   15  C   UNL     1      26.671  44.753  50.698  1.00  0.00     0.272 C 
HETATM   16  N   UNL     1      26.615  44.239  51.970  1.00  0.00    -0.351 N 
HETATM   17  H   UNL     1      25.749  44.398  52.476  1.00  0.00     0.163 HD
HETATM   18  O   UNL     1      27.636  44.632  49.949  1.00  0.00    -0.266 OA
BRANCH  16  19
HETATM   19  C   UNL     1      27.693  43.502  52.575  1.00  0.00     0.161 C 
BRANCH  19  20
HETATM   20  C   UNL     1      28.269  44.242  53.755  1.00  0.00    -0.039 A 
HETATM   21  C   UNL     1      29.376  43.724  54.446  1.00  0.00     0.032 A 
HETATM   22  C   UNL     1      29.918  44.419  55.526  1.00  0.00     0.034 A 
HETATM   23 CL   UNL     1      31.271  43.769  56.369  1.00  0.00    -0.084 Cl
HETATM   24  C   UNL     1      29.374  45.637  55.929  1.00  0.00     0.024 A 
HETATM   25  C   UNL     1      28.278  46.164  55.246  1.00  0.00     0.002 A 
HETATM   26  C   UNL     1      27.729  45.471  54.164  1.00  0.00     0.009 A 
ENDBRANCH  19  20
ENDBRANCH  16  19
ENDBRANCH  12  15
TORSDOF 3
ENDMDL
MODEL 4
REMARK VINA RESULT:      -9.4      1.690      2.051
REMARK  3 active torsions:
REMARK  status: ('A' for Active; 'I' for Inactive)
REMARK    1  A    between atoms: C_12  and  C_13 
REMARK       I    between atoms: C_13  and  N_14 
REMARK    2  A    between atoms: N_14  and  C_15 
REMARK    3  A    between atoms: C_15  and  C_16 
ROOT
HETATM    1  C   UNL     1      31.097  44.169  56.497  1.00  0.00     0.001 A 
HETATM    2  C   UNL     1      30.412  43.664  55.388  1.00  0.00     0.016 A 
HETATM    3  C   UNL     1      29.229  44.276  54.968  1.00  0.00     0.026 A 
HETATM    4  C   UNL     1      28.731  45.399  55.660  1.00  0.00     0.081 A 
HETATM    5  O   UNL     1      27.578  46.078  55.330  1.00  0.00    -0.346 OA
HETATM    6  C   UNL     1      26.777  45.640  54.194  1.00  0.00     0.219 A 
HETATM    7  C   UNL     1      27.299  44.468  53.461  1.00  0.00     0.031 A 
HETATM    8  C   UNL     1      28.452  43.835  53.838  1.00  0.00     0.074 A 
HETATM    9  N   UNL     1      28.633  42.813  52.963  1.00  0.00    -0.276 N 
HETATM   10  H   UNL     1      29.383  42.131  52.938  1.00  0.00     0.189 HD
HETATM   11  N   UNL     1      27.665  42.740  52.023  1.00  0.00    -0.168 NA
HETATM   12  C   UNL     1      26.832  43.764  52.327  1.00  0.00     0.155 A 
HETATM   13  C   UNL     1      29.423  45.894  56.765  1.00  0.00     0.038 A 
HETATM   14  C   UNL     1      30.605  45.280  57.182  1.00  0.00     0.003 A 
ENDROOT
BRANCH  12  15
HETATM   15  C   UNL     1      25.624  44.053  51.539  1.00  0.00     0.272 C 
HETATM   16  N   UNL     1      25.494  45.381  51.211  1.00  0.00    -0.351 N 
HETATM   17  H   UNL     1      26.240  45.992  51.529  1.00  0.00     0.163 HD
HETATM   18  O   UNL     1      24.822  43.183  51.215  1.00  0.00    -0.266 OA
BRANCH  16  19
HETATM   19  C   UNL     1      24.390  45.904  50.451  1.00  0.00     0.161 C 
BRANCH  19  20
HETATM   20  C   UNL     1      24.725  47.245  49.850  1.00  0.00    -0.039 A 
HETATM   21  C   UNL     1      26.060  47.671  49.763  1.00  0.00     0.032 A 
HETATM   22  C   UNL     1      26.369  48.904  49.191  1.00  0.00     0.034 A 
HETATM   23 CL   UNL     1      28.010  49.417  49.097  1.00  0.00    -0.084 Cl
HETATM   24  C   UNL     1      25.360  49.726  48.693  1.00  0.00     0.024 A 
HETATM   25  C   UNL     1      24.031  49.310  48.769  1.00  0.00     0.002 A 
HETATM   26  C   UNL     1      23.714  48.077  49.344  1.00  0.00     0.009 A 
ENDBRANCH  19  20
ENDBRANCH  16  19
ENDBRANCH  12  15
TORSDOF 3
ENDMDL
MODEL 5
REMARK VINA RESULT:      -9.2      4.217      5.306
REMARK  3 active torsions:
REMARK  status: ('A' for Active; 'I' for Inactive)
REMARK    1  A    between atoms: C_12  and  C_13 
REMARK       I    between atoms: C_13  and  N_14 
REMARK    2  A    between atoms: N_14  and  C_15 
REMARK    3  A    between atoms: C_15  and  C_16 
ROOT
HETATM    1  C   UNL     1      30.520  45.550  57.966  1.00  0.00     0.001 A 
HETATM    2  C   UNL     1      29.533  45.764  57.001  1.00  0.00     0.016 A 
HETATM    3  C   UNL     1      29.475  44.940  55.876  1.00  0.00     0.026 A 
HETATM    4  C   UNL     1      30.409  43.896  55.716  1.00  0.00     0.081 A 
HETATM    5  O   UNL     1      30.441  43.025  54.648  1.00  0.00    -0.346 OA
HETATM    6  C   UNL     1      29.462  43.154  53.576  1.00  0.00     0.219 A 
HETATM    7  C   UNL     1      28.476  44.243  53.742  1.00  0.00     0.031 A 
HETATM    8  C   UNL     1      28.496  45.076  54.828  1.00  0.00     0.074 A 
HETATM    9  N   UNL     1      27.470  45.949  54.661  1.00  0.00    -0.276 N 
HETATM   10  H   UNL     1      27.184  46.708  55.268  1.00  0.00     0.189 HD
HETATM   11  N   UNL     1      26.767  45.732  53.527  1.00  0.00    -0.168 NA
HETATM   12  C   UNL     1      27.388  44.675  52.950  1.00  0.00     0.155 A 
HETATM   13  C   UNL     1      31.391  43.692  56.686  1.00  0.00     0.038 A 
HETATM   14  C   UNL     1      31.446  44.517  57.810  1.00  0.00     0.003 A 
ENDROOT
BRANCH  12  15
HETATM   15  C   UNL     1      26.936  44.100  51.674  1.00  0.00     0.272 C 
HETATM   16  N   UNL     1      26.198  42.952  51.826  1.00  0.00    -0.351 N 
HETATM   17  H   UNL     1      26.039  42.649  52.783  1.00  0.00     0.163 HD
HETATM   18  O   UNL     1      27.200  44.608  50.590  1.00  0.00    -0.266 OA
BRANCH  16  19
HETATM   19  C   UNL     1      25.654  42.207  50.722  1.00  0.00     0.161 C 
BRANCH  19  20
HETATM   20  C   UNL     1      26.720  41.396  50.030  1.00  0.00    -0.039 A 
HETATM   21  C   UNL     1      26.980  41.586  48.663  1.00  0.00     0.032 A 
HETATM   22  C   UNL     1      27.978  40.847  48.028  1.00  0.00     0.034 A 
HETATM   23 CL   UNL     1      28.281  41.084  46.351  1.00  0.00    -0.084 Cl
HETATM   24  C   UNL     1      28.734  39.920  48.742  1.00  0.00     0.024 A 
HETATM   25  C   UNL     1      28.488  39.728  50.101  1.00  0.00     0.002 A 
HETATM   26  C   UNL     1      27.487  40.463  50.742  1.00  0.00     0.009 A 
ENDBRANCH  19  20
ENDBRANCH  16  19
ENDBRANCH  12  15
TORSDOF 3
ENDMDL
MODEL 6
REMARK VINA RESULT:      -9.0      3.100      8.117
REMARK  3 active torsions:
REMARK  status: ('A' for Active; 'I' for Inactive)
REMARK    1  A    between atoms: C_12  and  C_13 
REMARK       I    between atoms: C_13  and  N_14 
REMARK    2  A    between atoms: N_14  and  C_15 
REMARK    3  A    between atoms: C_15  and  C_16 
ROOT
HETATM    1  C   UNL     1      22.816  49.118  48.683  1.00  0.00     0.001 A 
HETATM    2  C   UNL     1      22.823  47.805  49.160  1.00  0.00     0.016 A 
HETATM    3  C   UNL     1      24.034  47.200  49.504  1.00  0.00     0.026 A 
HETATM    4  C   UNL     1      25.242  47.914  49.371  1.00  0.00     0.081 A 
HETATM    5  O   UNL     1      26.489  47.415  49.683  1.00  0.00    -0.346 OA
HETATM    6  C   UNL     1      26.622  46.054  50.185  1.00  0.00     0.219 A 
HETATM    7  C   UNL     1      25.357  45.304  50.334  1.00  0.00     0.031 A 
HETATM    8  C   UNL     1      24.148  45.855  50.006  1.00  0.00     0.074 A 
HETATM    9  N   UNL     1      23.212  44.904  50.258  1.00  0.00    -0.276 N 
HETATM   10  H   UNL     1      22.208  44.961  50.131  1.00  0.00     0.189 HD
HETATM   11  N   UNL     1      23.736  43.756  50.741  1.00  0.00    -0.168 NA
HETATM   12  C   UNL     1      25.069  43.997  50.788  1.00  0.00     0.155 A 
HETATM   13  C   UNL     1      25.223  49.225  48.894  1.00  0.00     0.038 A 
HETATM   14  C   UNL     1      24.011  49.826  48.551  1.00  0.00     0.003 A 
ENDROOT
BRANCH  12  15
HETATM   15  C   UNL     1      26.031  42.992  51.265  1.00  0.00     0.272 C 
HETATM   16  N   UNL     1      26.561  43.287  52.497  1.00  0.00    -0.351 N 
HETATM   17  H   UNL     1      26.221  44.140  52.934  1.00  0.00     0.163 HD
HETATM   18  O   UNL     1      26.320  41.992  50.615  1.00  0.00    -0.266 OA
BRANCH  16  19
HETATM   19  C   UNL     1      27.527  42.457  53.165  1.00  0.00     0.161 C 
BRANCH  19  20
HETATM   20  C   UNL     1      28.411  43.267  54.077  1.00  0.00    -0.039 A 
HETATM   21  C   UNL     1      27.969  44.501  54.582  1.00  0.00     0.032 A 
HETATM   22  C   UNL     1      28.781  45.241  55.440  1.00  0.00     0.034 A 
HETATM   23 CL   UNL     1      28.230  46.756  56.044  1.00  0.00    -0.084 Cl
HETATM   24  C   UNL     1      30.036  44.764  55.814  1.00  0.00     0.024 A 
HETATM   25  C   UNL     1      30.482  43.537  55.324  1.00  0.00     0.002 A 
HETATM   26  C   UNL     1      29.674  42.792  54.461  1.00  0.00     0.009 A 
ENDBRANCH  19  20
ENDBRANCH  16  19
ENDBRANCH  12  15
TORSDOF 3
ENDMDL
MODEL 7
REMARK VINA RESULT:      -8.7      3.812      8.937
REMARK  3 active torsions:
REMARK  status: ('A' for Active; 'I' for Inactive)
REMARK    1  A    between atoms: C_12  and  C_13 
REMARK       I    between atoms: C_13  and  N_14 
REMARK    2  A    between atoms: N_14  and  C_15 
REMARK    3  A    between atoms: C_15  and  C_16 
ROOT
HETATM    1  C   UNL     1      20.236  50.247  48.176  1.00  0.00     0.001 A 
HETATM    2  C   UNL     1      20.641  48.923  48.365  1.00  0.00     0.016 A 
HETATM    3  C   UNL     1      21.944  48.650  48.786  1.00  0.00     0.026 A 
HETATM    4  C   UNL     1      22.846  49.709  49.020  1.00  0.00     0.081 A 
HETATM    5  O   UNL     1      24.150  49.553  49.438  1.00  0.00    -0.346 OA
HETATM    6  C   UNL     1      24.686  48.217  49.664  1.00  0.00     0.219 A 
HETATM    7  C   UNL     1      23.742  47.104  49.427  1.00  0.00     0.031 A 
HETATM    8  C   UNL     1      22.457  47.324  49.011  1.00  0.00     0.074 A 
HETATM    9  N   UNL     1      21.879  46.101  48.890  1.00  0.00    -0.276 N 
HETATM   10  H   UNL     1      20.933  45.878  48.601  1.00  0.00     0.189 HD
HETATM   11  N   UNL     1      22.711  45.085  49.210  1.00  0.00    -0.168 NA
HETATM   12  C   UNL     1      23.871  45.701  49.542  1.00  0.00     0.155 A 
HETATM   13  C   UNL     1      22.430  51.027  48.828  1.00  0.00     0.038 A 
HETATM   14  C   UNL     1      21.128  51.295  48.408  1.00  0.00     0.003 A 
ENDROOT
BRANCH  12  15
HETATM   15  C   UNL     1      25.064  44.952  49.964  1.00  0.00     0.272 C 
HETATM   16  N   UNL     1      25.241  44.932  51.326  1.00  0.00    -0.351 N 
HETATM   17  H   UNL     1      24.533  45.414  51.873  1.00  0.00     0.163 HD
HETATM   18  O   UNL     1      25.817  44.403  49.166  1.00  0.00    -0.266 OA
BRANCH  16  19
HETATM   19  C   UNL     1      26.341  44.268  51.973  1.00  0.00     0.161 C 
BRANCH  19  20
HETATM   20  C   UNL     1      26.939  45.127  53.058  1.00  0.00    -0.039 A 
HETATM   21  C   UNL     1      27.997  44.643  53.844  1.00  0.00     0.032 A 
HETATM   22  C   UNL     1      28.560  45.445  54.836  1.00  0.00     0.034 A 
HETATM   23 CL   UNL     1      29.851  44.836  55.798  1.00  0.00    -0.084 Cl
HETATM   24  C   UNL     1      28.087  46.737  55.053  1.00  0.00     0.024 A 
HETATM   25  C   UNL     1      27.041  47.231  54.274  1.00  0.00     0.002 A 
HETATM   26  C   UNL     1      26.470  46.431  53.281  1.00  0.00     0.009 A 
ENDBRANCH  19  20
ENDBRANCH  16  19
ENDBRANCH  12  15
TORSDOF 3
ENDMDL
MODEL 8
REMARK VINA RESULT:      -8.7      2.650      3.777
REMARK  3 active torsions:
REMARK  status: ('A' for Active; 'I' for Inactive)
REMARK    1  A    between atoms: C_12  and  C_13 
REMARK       I    between atoms: C_13  and  N_14 
REMARK    2  A    between atoms: N_14  and  C_15 
REMARK    3  A    between atoms: C_15  and  C_16 
ROOT
HETATM    1  C   UNL     1      29.537  44.597  55.558  1.00  0.00     0.001 A 
HETATM    2  C   UNL     1      28.516  45.307  54.921  1.00  0.00     0.016 A 
HETATM    3  C   UNL     1      28.058  44.889  53.670  1.00  0.00     0.026 A 
HETATM    4  C   UNL     1      28.624  43.754  53.055  1.00  0.00     0.081 A 
HETATM    5  O   UNL     1      28.247  43.255  51.827  1.00  0.00    -0.346 OA
HETATM    6  C   UNL     1      27.195  43.916  51.066  1.00  0.00     0.219 A 
HETATM    7  C   UNL     1      26.593  45.103  51.710  1.00  0.00     0.031 A 
HETATM    8  C   UNL     1      27.012  45.550  52.934  1.00  0.00     0.074 A 
HETATM    9  N   UNL     1      26.261  46.644  53.220  1.00  0.00    -0.276 N 
HETATM   10  H   UNL     1      26.297  47.235  54.043  1.00  0.00     0.189 HD
HETATM   11  N   UNL     1      25.363  46.940  52.254  1.00  0.00    -0.168 NA
HETATM   12  C   UNL     1      25.565  45.988  51.313  1.00  0.00     0.155 A 
HETATM   13  C   UNL     1      29.643  43.052  53.700  1.00  0.00     0.038 A 
HETATM   14  C   UNL     1      30.098  43.473  54.950  1.00  0.00     0.003 A 
ENDROOT
BRANCH  12  15
HETATM   15  C   UNL     1      24.782  45.936  50.069  1.00  0.00     0.272 C 
HETATM   16  N   UNL     1      23.830  46.922  49.983  1.00  0.00    -0.351 N 
HETATM   17  H   UNL     1      23.789  47.569  50.765  1.00  0.00     0.163 HD
HETATM   18  O   UNL     1      24.973  45.089  49.202  1.00  0.00    -0.266 OA
BRANCH  16  19
HETATM   19  C   UNL     1      22.939  47.068  48.863  1.00  0.00     0.161 C 
BRANCH  19  20
HETATM   20  C   UNL     1      22.550  48.509  48.656  1.00  0.00    -0.039 A 
HETATM   21  C   UNL     1      21.339  48.834  48.024  1.00  0.00     0.032 A 
HETATM   22  C   UNL     1      20.973  50.168  47.849  1.00  0.00     0.034 A 
HETATM   23 CL   UNL     1      19.490  50.552  47.065  1.00  0.00    -0.084 Cl
HETATM   24  C   UNL     1      21.798  51.194  48.305  1.00  0.00     0.024 A 
HETATM   25  C   UNL     1      23.000  50.882  48.941  1.00  0.00     0.002 A 
HETATM   26  C   UNL     1      23.374  49.548  49.116  1.00  0.00     0.009 A 
ENDBRANCH  19  20
ENDBRANCH  16  19
ENDBRANCH  12  15
TORSDOF 3
ENDMDL
MODEL 9
REMARK VINA RESULT:      -8.7      2.555      3.896
REMARK  3 active torsions:
REMARK  status: ('A' for Active; 'I' for Inactive)
REMARK    1  A    between atoms: C_12  and  C_13 
REMARK       I    between atoms: C_13  and  N_14 
REMARK    2  A    between atoms: N_14  and  C_15 
REMARK    3  A    between atoms: C_15  and  C_16 
ROOT
HETATM    1  C   UNL     1      28.178  45.054  55.472  1.00  0.00     0.001 A 
HETATM    2  C   UNL     1      27.419  44.451  54.465  1.00  0.00     0.016 A 
HETATM    3  C   UNL     1      26.745  45.247  53.536  1.00  0.00     0.026 A 
HETATM    4  C   UNL     1      26.832  46.652  53.615  1.00  0.00     0.081 A 
HETATM    5  O   UNL     1      26.212  47.528  52.751  1.00  0.00    -0.346 OA
HETATM    6  C   UNL     1      25.389  47.015  51.663  1.00  0.00     0.219 A 
HETATM    7  C   UNL     1      25.300  45.543  51.572  1.00  0.00     0.031 A 
HETATM    8  C   UNL     1      25.941  44.724  52.462  1.00  0.00     0.074 A 
HETATM    9  N   UNL     1      25.645  43.451  52.094  1.00  0.00    -0.276 N 
HETATM   10  H   UNL     1      25.946  42.585  52.526  1.00  0.00     0.189 HD
HETATM   11  N   UNL     1      24.849  43.384  51.004  1.00  0.00    -0.168 NA
HETATM   12  C   UNL     1      24.629  44.680  50.675  1.00  0.00     0.155 A 
HETATM   13  C   UNL     1      27.594  47.242  54.624  1.00  0.00     0.038 A 
HETATM   14  C   UNL     1      28.265  46.444  55.551  1.00  0.00     0.003 A 
ENDROOT
BRANCH  12  15
HETATM   15  C   UNL     1      23.799  45.068  49.525  1.00  0.00     0.272 C 
HETATM   16  N   UNL     1      23.207  46.299  49.672  1.00  0.00    -0.351 N 
HETATM   17  H   UNL     1      23.421  46.794  50.533  1.00  0.00     0.163 HD
HETATM   18  O   UNL     1      23.659  44.352  48.539  1.00  0.00    -0.266 OA
BRANCH  16  19
HETATM   19  C   UNL     1      22.345  46.887  48.682  1.00  0.00     0.161 C 
BRANCH  19  20
HETATM   20  C   UNL     1      22.552  48.377  48.589  1.00  0.00    -0.039 A 
HETATM   21  C   UNL     1      21.455  49.251  48.648  1.00  0.00     0.032 A 
HETATM   22  C   UNL     1      21.650  50.630  48.580  1.00  0.00     0.034 A 
HETATM   23 CL   UNL     1      20.295  51.689  48.645  1.00  0.00    -0.084 Cl
HETATM   24  C   UNL     1      22.934  51.157  48.461  1.00  0.00     0.024 A 
HETATM   25  C   UNL     1      24.032  50.299  48.408  1.00  0.00     0.002 A 
HETATM   26  C   UNL     1      23.842  48.916  48.473  1.00  0.00     0.009 A 
ENDBRANCH  19  20
ENDBRANCH  16  19
ENDBRANCH  12  15
TORSDOF 3
ENDMDL
MODEL 10
REMARK VINA RESULT:      -8.7      2.823      3.586
REMARK  3 active torsions:
REMARK  status: ('A' for Active; 'I' for Inactive)
REMARK    1  A    between atoms: C_12  and  C_13 
REMARK       I    between atoms: C_13  and  N_14 
REMARK    2  A    between atoms: N_14  and  C_15 
REMARK    3  A    between atoms: C_15  and  C_16 
ROOT
HETATM    1  C   UNL     1      31.068  43.845  56.095  1.00  0.00     0.001 A 
HETATM    2  C   UNL     1      30.503  43.030  55.110  1.00  0.00     0.016 A 
HETATM    3  C   UNL     1      29.393  43.479  54.393  1.00  0.00     0.026 A 
HETATM    4  C   UNL     1      28.846  44.751  54.661  1.00  0.00     0.081 A 
HETATM    5  O   UNL     1      27.757  45.291  54.013  1.00  0.00    -0.346 OA
HETATM    6  C   UNL     1      27.082  44.530  52.969  1.00  0.00     0.219 A 
HETATM    7  C   UNL     1      27.655  43.199  52.679  1.00  0.00     0.031 A 
HETATM    8  C   UNL     1      28.741  42.718  53.359  1.00  0.00     0.074 A 
HETATM    9  N   UNL     1      28.996  41.485  52.850  1.00  0.00    -0.276 N 
HETATM   10  H   UNL     1      29.726  40.834  53.115  1.00  0.00     0.189 HD
HETATM   11  N   UNL     1      28.142  41.129  51.865  1.00  0.00    -0.168 NA
HETATM   12  C   UNL     1      27.305  42.189  51.755  1.00  0.00     0.155 A 
HETATM   13  C   UNL     1      29.419  45.556  55.646  1.00  0.00     0.038 A 
HETATM   14  C   UNL     1      30.528  45.104  56.361  1.00  0.00     0.003 A 
ENDROOT
BRANCH  12  15
HETATM   15  C   UNL     1      26.204  42.221  50.781  1.00  0.00     0.272 C 
HETATM   16  N   UNL     1      25.013  42.642  51.320  1.00  0.00    -0.351 N 
HETATM   17  H   UNL     1      25.035  42.893  52.304  1.00  0.00     0.163 HD
HETATM   18  O   UNL     1      26.351  41.902  49.606  1.00  0.00    -0.266 OA
BRANCH  16  19
HETATM   19  C   UNL     1      23.794  42.749  50.563  1.00  0.00     0.161 C 
BRANCH  19  20
HETATM   20  C   UNL     1      23.602  44.144  50.025  1.00  0.00    -0.039 A 
HETATM   21  C   UNL     1      24.482  45.174  50.394  1.00  0.00     0.032 A 
HETATM   22  C   UNL     1      24.313  46.460  49.882  1.00  0.00     0.034 A 
HETATM   23 CL   UNL     1      25.395  47.715  50.348  1.00  0.00    -0.084 Cl
HETATM   24  C   UNL     1      23.276  46.737  48.994  1.00  0.00     0.024 A 
HETATM   25  C   UNL     1      22.400  45.720  48.616  1.00  0.00     0.002 A 
HETATM   26  C   UNL     1      22.562  44.430  49.128  1.00  0.00     0.009 A 
ENDBRANCH  19  20
ENDBRANCH  16  19
ENDBRANCH  12  15
TORSDOF 3
ENDMDL
