MODEL 1
REMARK VINA RESULT:     -10.8      0.000      0.000
REMARK  4 active torsions:
REMARK  status: ('A' for Active; 'I' for Inactive)
REMARK    1  A    between atoms: C_4  and  N_5 
REMARK       I    between atoms: N_5  and  C_6 
REMARK       I    between atoms: C_6  and  N_7 
REMARK    2  A    between atoms: N_7  and  C_8 
REMARK    3  A    between atoms: C_8  and  C_9 
REMARK       I    between atoms: C_9  and  N_10 
REMARK    4  A    between atoms: N_10  and  C_11 
ROOT
HETATM    1  N   UNL     1      24.052  46.645  50.290  1.00  0.00    -0.307 N 
HETATM    2  C   UNL     1      24.503  45.365  50.100  1.00  0.00     0.321 C 
HETATM    3  N   UNL     1      23.984  44.514  51.051  1.00  0.00    -0.334 N 
HETATM    4  O   UNL     1      25.248  44.975  49.210  1.00  0.00    -0.247 OA
HETATM    5  H   UNL     1      23.133  46.741  50.711  1.00  0.00     0.170 HD
HETATM    6  H   UNL     1      23.886  44.922  51.971  1.00  0.00     0.164 HD
ENDROOT
BRANCH   3   7
HETATM    7  C   UNL     1      24.341  43.111  51.004  1.00  0.00     0.227 C 
BRANCH   7   8
HETATM    8  C   UNL     1      25.790  42.895  51.453  1.00  0.00     0.239 C 
HETATM    9  N   UNL     1      26.021  43.347  52.734  1.00  0.00    -0.324 N 
HETATM   10  H   UNL     1      25.206  43.586  53.306  1.00  0.00     0.169 HD
HETATM   11  O   UNL     1      26.595  42.320  50.724  1.00  0.00    -0.271 OA
BRANCH   9  12
HETATM   12  C   UNL     1      27.238  43.412  53.451  1.00  0.00     0.064 A 
HETATM   13  C   UNL     1      27.553  44.658  54.020  1.00  0.00     0.093 A 
HETATM   14  C   UNL     1      28.762  44.785  54.736  1.00  0.00    -0.005 A 
HETATM   15  N   UNL     1      26.708  45.706  53.865  1.00  0.00    -0.258 NA
HETATM   16  C   UNL     1      29.073  46.031  55.299  1.00  0.00     0.015 A 
HETATM   17  C   UNL     1      29.625  43.687  54.870  1.00  0.00     0.014 A 
HETATM   18  C   UNL     1      28.200  47.101  55.142  1.00  0.00     0.020 A 
HETATM   19  C   UNL     1      27.041  46.889  54.425  1.00  0.00     0.117 A 
HETATM   20  C   UNL     1      29.298  42.463  54.294  1.00  0.00     0.003 A 
HETATM   21  C   UNL     1      28.107  42.324  53.583  1.00  0.00     0.032 A 
ENDBRANCH   9  12
ENDBRANCH   7   8
ENDBRANCH   3   7
BRANCH   1  22
HETATM   22  C   UNL     1      24.481  47.804  49.598  1.00  0.00     0.066 A 
HETATM   23  C   UNL     1      25.828  48.182  49.541  1.00  0.00     0.038 A 
HETATM   24  C   UNL     1      26.208  49.354  48.882  1.00  0.00    -0.059 A 
HETATM   25  C   UNL     1      27.652  49.754  48.812  1.00  0.00     0.048 C 
HETATM   26  C   UNL     1      25.226  50.119  48.246  1.00  0.00     0.020 A 
HETATM   27  C   UNL     1      23.873  49.743  48.300  1.00  0.00    -0.005 A 
HETATM   28  C   UNL     1      23.480  48.581  48.997  1.00  0.00     0.093 A 
HETATM   29  C   UNL     1      22.880  50.501  47.665  1.00  0.00     0.015 A 
HETATM   30  N   UNL     1      22.181  48.199  49.074  1.00  0.00    -0.258 NA
HETATM   31  C   UNL     1      21.255  48.956  48.445  1.00  0.00     0.117 A 
HETATM   32  C   UNL     1      21.551  50.102  47.734  1.00  0.00     0.020 A 
ENDBRANCH   1  22
TORSDOF 4
ENDMDL
MODEL 2
REMARK VINA RESULT:     -10.8      0.755      2.463
REMARK  4 active torsions:
REMARK  status: ('A' for Active; 'I' for Inactive)
REMARK    1  A    between atoms: C_4  and  N_5 
REMARK       I    between atoms: N_5  and  C_6 
REMARK       I    between atoms: C_6  and  N_7 
REMARK    2  A    between atoms: N_7  and  C_8 
REMARK    3  A    between atoms: C_8  and  C_9 
REMARK       I    between atoms: C_9  and  N_10 
REMARK    4  A    between atoms: N_10  and  C_11 
ROOT
HETATM    1  N   UNL     1      23.633  46.859  50.335  1.00  0.00    -0.307 N 
HETATM    2  C   UNL     1      24.032  45.596  49.987  1.00  0.00     0.321 C 
HETATM    3  N   UNL     1      24.019  44.756  51.078  1.00  0.00    -0.334 N 
HETATM    4  O   UNL     1      24.348  45.210  48.868  1.00  0.00    -0.247 OA
HETATM    5  H   UNL     1      22.977  46.927  51.107  1.00  0.00     0.170 HD
HETATM    6  H   UNL     1      24.300  45.193  51.947  1.00  0.00     0.164 HD
ENDROOT
BRANCH   3   7
HETATM    7  C   UNL     1      24.403  43.371  50.901  1.00  0.00     0.227 C 
BRANCH   7   8
HETATM    8  C   UNL     1      25.869  43.151  51.286  1.00  0.00     0.239 C 
HETATM    9  N   UNL     1      26.093  43.310  52.636  1.00  0.00    -0.324 N 
HETATM   10  H   UNL     1      25.274  43.359  53.249  1.00  0.00     0.169 HD
HETATM   11  O   UNL     1      26.696  42.812  50.442  1.00  0.00    -0.271 OA
BRANCH   9  12
HETATM   12  C   UNL     1      27.316  43.286  53.346  1.00  0.00     0.064 A 
HETATM   13  C   UNL     1      27.659  44.470  54.022  1.00  0.00     0.093 A 
HETATM   14  C   UNL     1      28.875  44.509  54.737  1.00  0.00    -0.005 A 
HETATM   15  N   UNL     1      26.835  45.544  53.968  1.00  0.00    -0.258 NA
HETATM   16  C   UNL     1      29.215  45.693  55.407  1.00  0.00     0.015 A 
HETATM   17  C   UNL     1      29.717  43.386  54.765  1.00  0.00     0.014 A 
HETATM   18  C   UNL     1      28.363  46.789  55.353  1.00  0.00     0.020 A 
HETATM   19  C   UNL     1      27.195  46.666  54.629  1.00  0.00     0.117 A 
HETATM   20  C   UNL     1      29.361  42.225  54.084  1.00  0.00     0.003 A 
HETATM   21  C   UNL     1      28.163  42.175  53.373  1.00  0.00     0.032 A 
ENDBRANCH   9  12
ENDBRANCH   7   8
ENDBRANCH   3   7
BRANCH   1  22
HETATM   22  C   UNL     1      23.657  48.011  49.511  1.00  0.00     0.066 A 
HETATM   23  C   UNL     1      22.489  48.565  48.972  1.00  0.00     0.038 A 
HETATM   24  C   UNL     1      22.556  49.679  48.130  1.00  0.00    -0.059 A 
HETATM   25  C   UNL     1      21.305  50.278  47.559  1.00  0.00     0.048 C 
HETATM   26  C   UNL     1      23.803  50.254  47.870  1.00  0.00     0.020 A 
HETATM   27  C   UNL     1      24.977  49.702  48.410  1.00  0.00    -0.005 A 
HETATM   28  C   UNL     1      24.918  48.555  49.229  1.00  0.00     0.093 A 
HETATM   29  C   UNL     1      26.233  50.272  48.159  1.00  0.00     0.015 A 
HETATM   30  N   UNL     1      26.036  47.995  49.756  1.00  0.00    -0.258 NA
HETATM   31  C   UNL     1      27.226  48.576  49.492  1.00  0.00     0.117 A 
HETATM   32  C   UNL     1      27.376  49.704  48.709  1.00  0.00     0.020 A 
ENDBRANCH   1  22
TORSDOF 4
ENDMDL
MODEL 3
REMARK VINA RESULT:     -10.5      1.347      2.401
REMARK  4 active torsions:
REMARK  status: ('A' for Active; 'I' for Inactive)
REMARK    1  A    between atoms: C_4  and  N_5 
REMARK       I    between atoms: N_5  and  C_6 
REMARK       I    between atoms: C_6  and  N_7 
REMARK    2  A    between atoms: N_7  and  C_8 
REMARK    3  A    between atoms: C_8  and  C_9 
REMARK       I    between atoms: C_9  and  N_10 
REMARK    4  A    between atoms: N_10  and  C_11 
ROOT
HETATM    1  N   UNL     1      23.505  46.817  49.889  1.00  0.00    -0.307 N 
HETATM    2  C   UNL     1      24.489  45.972  50.329  1.00  0.00     0.321 C 
HETATM    3  N   UNL     1      23.959  44.946  51.079  1.00  0.00    -0.334 N 
HETATM    4  O   UNL     1      25.688  46.060  50.096  1.00  0.00    -0.247 OA
HETATM    5  H   UNL     1      22.591  46.402  49.735  1.00  0.00     0.170 HD
HETATM    6  H   UNL     1      23.176  45.213  51.661  1.00  0.00     0.164 HD
ENDROOT
BRANCH   3   7
HETATM    7  C   UNL     1      24.851  43.942  51.623  1.00  0.00     0.227 C 
BRANCH   7   8
HETATM    8  C   UNL     1      25.347  44.342  53.016  1.00  0.00     0.239 C 
HETATM    9  N   UNL     1      26.543  45.025  52.978  1.00  0.00    -0.324 N 
HETATM   10  H   UNL     1      26.869  45.358  52.066  1.00  0.00     0.169 HD
HETATM   11  O   UNL     1      24.674  44.102  54.015  1.00  0.00    -0.271 OA
BRANCH   9  12
HETATM   12  C   UNL     1      27.354  45.464  54.050  1.00  0.00     0.064 A 
HETATM   13  C   UNL     1      28.470  44.662  54.348  1.00  0.00     0.093 A 
HETATM   14  C   UNL     1      29.308  45.045  55.416  1.00  0.00    -0.005 A 
HETATM   15  N   UNL     1      28.714  43.544  53.622  1.00  0.00    -0.258 NA
HETATM   16  C   UNL     1      30.417  44.240  55.712  1.00  0.00     0.015 A 
HETATM   17  C   UNL     1      29.024  46.200  56.161  1.00  0.00     0.014 A 
HETATM   18  C   UNL     1      30.666  43.098  54.961  1.00  0.00     0.020 A 
HETATM   19  C   UNL     1      29.794  42.796  53.935  1.00  0.00     0.117 A 
HETATM   20  C   UNL     1      27.911  46.977  55.853  1.00  0.00     0.003 A 
HETATM   21  C   UNL     1      27.075  46.610  54.801  1.00  0.00     0.032 A 
ENDBRANCH   9  12
ENDBRANCH   7   8
ENDBRANCH   3   7
BRANCH   1  22
HETATM   22  C   UNL     1      23.687  48.049  49.214  1.00  0.00     0.066 A 
HETATM   23  C   UNL     1      24.957  48.597  48.995  1.00  0.00     0.038 A 
HETATM   24  C   UNL     1      25.095  49.835  48.361  1.00  0.00    -0.059 A 
HETATM   25  C   UNL     1      26.455  50.418  48.118  1.00  0.00     0.048 C 
HETATM   26  C   UNL     1      23.947  50.495  47.912  1.00  0.00     0.020 A 
HETATM   27  C   UNL     1      22.671  49.948  48.129  1.00  0.00    -0.005 A 
HETATM   28  C   UNL     1      22.525  48.717  48.803  1.00  0.00     0.093 A 
HETATM   29  C   UNL     1      21.513  50.599  47.682  1.00  0.00     0.015 A 
HETATM   30  N   UNL     1      21.305  48.169  49.035  1.00  0.00    -0.258 NA
HETATM   31  C   UNL     1      20.215  48.828  48.585  1.00  0.00     0.117 A 
HETATM   32  C   UNL     1      20.265  50.031  47.909  1.00  0.00     0.020 A 
ENDBRANCH   1  22
TORSDOF 4
ENDMDL
MODEL 4
REMARK VINA RESULT:     -10.2      1.476      7.877
REMARK  4 active torsions:
REMARK  status: ('A' for Active; 'I' for Inactive)
REMARK    1  A    between atoms: C_4  and  N_5 
REMARK       I    between atoms: N_5  and  C_6 
REMARK       I    between atoms: C_6  and  N_7 
REMARK    2  A    between atoms: N_7  and  C_8 
REMARK    3  A    between atoms: C_8  and  C_9 
REMARK       I    between atoms: C_9  and  N_10 
REMARK    4  A    between atoms: N_10  and  C_11 
ROOT
HETATM    1  N   UNL     1      26.812  44.570  52.523  1.00  0.00    -0.307 N 
HETATM    2  C   UNL     1      25.488  44.520  52.178  1.00  0.00     0.321 C 
HETATM    3  N   UNL     1      25.322  43.933  50.943  1.00  0.00    -0.334 N 
HETATM    4  O   UNL     1      24.541  44.911  52.848  1.00  0.00    -0.247 OA
HETATM    5  H   UNL     1      27.402  43.832  52.151  1.00  0.00     0.170 HD
HETATM    6  H   UNL     1      26.048  44.152  50.273  1.00  0.00     0.164 HD
ENDROOT
BRANCH   3   7
HETATM    7  C   UNL     1      23.982  43.783  50.413  1.00  0.00     0.227 C 
BRANCH   7   8
HETATM    8  C   UNL     1      23.690  44.840  49.343  1.00  0.00     0.239 C 
HETATM    9  N   UNL     1      23.768  46.126  49.832  1.00  0.00    -0.324 N 
HETATM   10  H   UNL     1      24.185  46.256  50.758  1.00  0.00     0.169 HD
HETATM   11  O   UNL     1      23.477  44.513  48.178  1.00  0.00    -0.271 OA
BRANCH   9  12
HETATM   12  C   UNL     1      23.471  47.347  49.183  1.00  0.00     0.064 A 
HETATM   13  C   UNL     1      24.559  48.211  48.968  1.00  0.00     0.093 A 
HETATM   14  C   UNL     1      24.320  49.450  48.336  1.00  0.00    -0.005 A 
HETATM   15  N   UNL     1      25.801  47.852  49.375  1.00  0.00    -0.258 NA
HETATM   16  C   UNL     1      25.407  50.310  48.127  1.00  0.00     0.015 A 
HETATM   17  C   UNL     1      23.022  49.803  47.937  1.00  0.00     0.014 A 
HETATM   18  C   UNL     1      26.679  49.934  48.541  1.00  0.00     0.020 A 
HETATM   19  C   UNL     1      26.823  48.706  49.153  1.00  0.00     0.117 A 
HETATM   20  C   UNL     1      21.957  48.936  48.165  1.00  0.00     0.003 A 
HETATM   21  C   UNL     1      22.180  47.709  48.789  1.00  0.00     0.032 A 
ENDBRANCH   9  12
ENDBRANCH   7   8
ENDBRANCH   3   7
BRANCH   1  22
HETATM   22  C   UNL     1      27.369  45.225  53.649  1.00  0.00     0.066 A 
HETATM   23  C   UNL     1      26.834  46.414  54.158  1.00  0.00     0.038 A 
HETATM   24  C   UNL     1      27.434  47.053  55.246  1.00  0.00    -0.059 A 
HETATM   25  C   UNL     1      26.856  48.323  55.797  1.00  0.00     0.048 C 
HETATM   26  C   UNL     1      28.552  46.463  55.842  1.00  0.00     0.020 A 
HETATM   27  C   UNL     1      29.092  45.269  55.335  1.00  0.00    -0.005 A 
HETATM   28  C   UNL     1      28.512  44.640  54.213  1.00  0.00     0.093 A 
HETATM   29  C   UNL     1      30.211  44.666  55.926  1.00  0.00     0.015 A 
HETATM   30  N   UNL     1      29.017  43.492  53.696  1.00  0.00    -0.258 NA
HETATM   31  C   UNL     1      30.095  42.942  54.297  1.00  0.00     0.117 A 
HETATM   32  C   UNL     1      30.720  43.483  55.403  1.00  0.00     0.020 A 
ENDBRANCH   1  22
TORSDOF 4
ENDMDL
MODEL 5
REMARK VINA RESULT:     -10.1      1.204      7.625
REMARK  4 active torsions:
REMARK  status: ('A' for Active; 'I' for Inactive)
REMARK    1  A    between atoms: C_4  and  N_5 
REMARK       I    between atoms: N_5  and  C_6 
REMARK       I    between atoms: C_6  and  N_7 
REMARK    2  A    between atoms: N_7  and  C_8 
REMARK    3  A    between atoms: C_8  and  C_9 
REMARK       I    between atoms: C_9  and  N_10 
REMARK    4  A    between atoms: N_10  and  C_11 
ROOT
HETATM    1  N   UNL     1      25.381  44.399  52.462  1.00  0.00    -0.307 N 
HETATM    2  C   UNL     1      24.849  44.058  51.247  1.00  0.00     0.321 C 
HETATM    3  N   UNL     1      23.569  44.548  51.114  1.00  0.00    -0.334 N 
HETATM    4  O   UNL     1      25.402  43.425  50.357  1.00  0.00    -0.247 OA
HETATM    5  H   UNL     1      25.051  45.269  52.870  1.00  0.00     0.170 HD
HETATM    6  H   UNL     1      23.023  44.534  51.966  1.00  0.00     0.164 HD
ENDROOT
BRANCH   3   7
HETATM    7  C   UNL     1      22.846  44.295  49.884  1.00  0.00     0.227 C 
BRANCH   7   8
HETATM    8  C   UNL     1      23.027  45.448  48.891  1.00  0.00     0.239 C 
HETATM    9  N   UNL     1      23.359  46.633  49.509  1.00  0.00    -0.324 N 
HETATM   10  H   UNL     1      23.635  46.592  50.494  1.00  0.00     0.169 HD
HETATM   11  O   UNL     1      22.932  45.255  47.681  1.00  0.00    -0.271 OA
BRANCH   9  12
HETATM   12  C   UNL     1      23.508  47.922  48.946  1.00  0.00     0.064 A 
HETATM   13  C   UNL     1      24.814  48.442  48.933  1.00  0.00     0.093 A 
HETATM   14  C   UNL     1      25.021  49.729  48.394  1.00  0.00    -0.005 A 
HETATM   15  N   UNL     1      25.838  47.714  49.441  1.00  0.00    -0.258 NA
HETATM   16  C   UNL     1      26.325  50.245  48.387  1.00  0.00     0.015 A 
HETATM   17  C   UNL     1      23.940  50.467  47.888  1.00  0.00     0.014 A 
HETATM   18  C   UNL     1      27.372  49.491  48.903  1.00  0.00     0.020 A 
HETATM   19  C   UNL     1      27.081  48.243  49.412  1.00  0.00     0.117 A 
HETATM   20  C   UNL     1      22.654  49.937  47.915  1.00  0.00     0.003 A 
HETATM   21  C   UNL     1      22.436  48.667  48.446  1.00  0.00     0.032 A 
ENDBRANCH   9  12
ENDBRANCH   7   8
ENDBRANCH   3   7
BRANCH   1  22
HETATM   22  C   UNL     1      26.613  43.955  53.001  1.00  0.00     0.066 A 
HETATM   23  C   UNL     1      27.141  42.691  52.709  1.00  0.00     0.038 A 
HETATM   24  C   UNL     1      28.340  42.272  53.291  1.00  0.00    -0.059 A 
HETATM   25  C   UNL     1      28.910  40.922  52.972  1.00  0.00     0.048 C 
HETATM   26  C   UNL     1      29.023  43.151  54.136  1.00  0.00     0.020 A 
HETATM   27  C   UNL     1      28.498  44.420  54.431  1.00  0.00    -0.005 A 
HETATM   28  C   UNL     1      27.268  44.833  53.876  1.00  0.00     0.093 A 
HETATM   29  C   UNL     1      29.175  45.312  55.275  1.00  0.00     0.015 A 
HETATM   30  N   UNL     1      26.732  46.049  54.150  1.00  0.00    -0.258 NA
HETATM   31  C   UNL     1      27.419  46.879  54.966  1.00  0.00     0.117 A 
HETATM   32  C   UNL     1      28.631  46.561  55.545  1.00  0.00     0.020 A 
ENDBRANCH   1  22
TORSDOF 4
ENDMDL
MODEL 6
REMARK VINA RESULT:     -10.0      1.720      9.035
REMARK  4 active torsions:
REMARK  status: ('A' for Active; 'I' for Inactive)
REMARK    1  A    between atoms: C_4  and  N_5 
REMARK       I    between atoms: N_5  and  C_6 
REMARK       I    between atoms: C_6  and  N_7 
REMARK    2  A    between atoms: N_7  and  C_8 
REMARK    3  A    between atoms: C_8  and  C_9 
REMARK       I    between atoms: C_9  and  N_10 
REMARK    4  A    between atoms: N_10  and  C_11 
ROOT
HETATM    1  N   UNL     1      25.759  44.680  52.521  1.00  0.00    -0.307 N 
HETATM    2  C   UNL     1      25.633  45.103  51.225  1.00  0.00     0.321 C 
HETATM    3  N   UNL     1      24.342  45.503  50.959  1.00  0.00    -0.334 N 
HETATM    4  O   UNL     1      26.521  45.158  50.383  1.00  0.00    -0.247 OA
HETATM    5  H   UNL     1      25.138  45.113  53.198  1.00  0.00     0.170 HD
HETATM    6  H   UNL     1      23.630  44.952  51.420  1.00  0.00     0.164 HD
ENDROOT
BRANCH   3   7
HETATM    7  C   UNL     1      24.020  45.995  49.635  1.00  0.00     0.227 C 
BRANCH   7   8
HETATM    8  C   UNL     1      23.697  47.492  49.667  1.00  0.00     0.239 C 
HETATM    9  N   UNL     1      22.413  47.767  49.250  1.00  0.00    -0.324 N 
HETATM   10  H   UNL     1      21.767  46.978  49.156  1.00  0.00     0.169 HD
HETATM   11  O   UNL     1      24.519  48.303  50.088  1.00  0.00    -0.271 OA
BRANCH   9  12
HETATM   12  C   UNL     1      21.789  49.020  49.050  1.00  0.00     0.064 A 
HETATM   13  C   UNL     1      20.384  49.018  49.063  1.00  0.00     0.093 A 
HETATM   14  C   UNL     1      19.707  50.239  48.856  1.00  0.00    -0.005 A 
HETATM   15  N   UNL     1      19.709  47.860  49.261  1.00  0.00    -0.258 NA
HETATM   16  C   UNL     1      18.305  50.231  48.866  1.00  0.00     0.015 A 
HETATM   17  C   UNL     1      20.430  51.422  48.639  1.00  0.00     0.014 A 
HETATM   18  C   UNL     1      17.619  49.041  49.076  1.00  0.00     0.020 A 
HETATM   19  C   UNL     1      18.359  47.893  49.268  1.00  0.00     0.117 A 
HETATM   20  C   UNL     1      21.821  51.401  48.624  1.00  0.00     0.003 A 
HETATM   21  C   UNL     1      22.502  50.202  48.826  1.00  0.00     0.032 A 
ENDBRANCH   9  12
ENDBRANCH   7   8
ENDBRANCH   3   7
BRANCH   1  22
HETATM   22  C   UNL     1      26.896  44.071  53.106  1.00  0.00     0.066 A 
HETATM   23  C   UNL     1      27.285  42.763  52.792  1.00  0.00     0.038 A 
HETATM   24  C   UNL     1      28.390  42.182  53.420  1.00  0.00    -0.059 A 
HETATM   25  C   UNL     1      28.811  40.783  53.077  1.00  0.00     0.048 C 
HETATM   26  C   UNL     1      29.124  42.942  54.334  1.00  0.00     0.020 A 
HETATM   27  C   UNL     1      28.738  44.256  54.652  1.00  0.00    -0.005 A 
HETATM   28  C   UNL     1      27.600  44.833  54.049  1.00  0.00     0.093 A 
HETATM   29  C   UNL     1      29.468  45.029  55.565  1.00  0.00     0.015 A 
HETATM   30  N   UNL     1      27.199  46.095  54.343  1.00  0.00    -0.258 NA
HETATM   31  C   UNL     1      27.932  46.808  55.227  1.00  0.00     0.117 A 
HETATM   32  C   UNL     1      29.063  46.326  55.856  1.00  0.00     0.020 A 
ENDBRANCH   1  22
TORSDOF 4
ENDMDL
MODEL 7
REMARK VINA RESULT:      -9.8      2.073      8.715
REMARK  4 active torsions:
REMARK  status: ('A' for Active; 'I' for Inactive)
REMARK    1  A    between atoms: C_4  and  N_5 
REMARK       I    between atoms: N_5  and  C_6 
REMARK       I    between atoms: C_6  and  N_7 
REMARK    2  A    between atoms: N_7  and  C_8 
REMARK    3  A    between atoms: C_8  and  C_9 
REMARK       I    between atoms: C_9  and  N_10 
REMARK    4  A    between atoms: N_10  and  C_11 
ROOT
HETATM    1  N   UNL     1      26.140  45.028  51.095  1.00  0.00    -0.307 N 
HETATM    2  C   UNL     1      24.792  44.901  50.887  1.00  0.00     0.321 C 
HETATM    3  N   UNL     1      24.458  45.240  49.595  1.00  0.00    -0.334 N 
HETATM    4  O   UNL     1      23.958  44.522  51.700  1.00  0.00    -0.247 OA
HETATM    5  H   UNL     1      26.736  44.877  50.287  1.00  0.00     0.170 HD
HETATM    6  H   UNL     1      24.995  46.006  49.209  1.00  0.00     0.164 HD
ENDROOT
BRANCH   3   7
HETATM    7  C   UNL     1      23.072  45.156  49.184  1.00  0.00     0.227 C 
BRANCH   7   8
HETATM    8  C   UNL     1      22.623  46.446  48.491  1.00  0.00     0.239 C 
HETATM    9  N   UNL     1      22.538  47.513  49.358  1.00  0.00    -0.324 N 
HETATM   10  H   UNL     1      22.951  47.401  50.288  1.00  0.00     0.169 HD
HETATM   11  O   UNL     1      22.434  46.474  47.276  1.00  0.00    -0.271 OA
BRANCH   9  12
HETATM   12  C   UNL     1      22.070  48.826  49.114  1.00  0.00     0.064 A 
HETATM   13  C   UNL     1      20.678  49.007  49.188  1.00  0.00     0.093 A 
HETATM   14  C   UNL     1      20.153  50.293  48.942  1.00  0.00    -0.005 A 
HETATM   15  N   UNL     1      19.872  47.958  49.479  1.00  0.00    -0.258 NA
HETATM   16  C   UNL     1      18.764  50.469  49.012  1.00  0.00     0.015 A 
HETATM   17  C   UNL     1      21.009  51.360  48.628  1.00  0.00     0.014 A 
HETATM   18  C   UNL     1      17.943  49.390  49.318  1.00  0.00     0.020 A 
HETATM   19  C   UNL     1      18.540  48.167  49.542  1.00  0.00     0.117 A 
HETATM   20  C   UNL     1      22.384  51.158  48.554  1.00  0.00     0.003 A 
HETATM   21  C   UNL     1      22.916  49.892  48.795  1.00  0.00     0.032 A 
ENDBRANCH   9  12
ENDBRANCH   7   8
ENDBRANCH   3   7
BRANCH   1  22
HETATM   22  C   UNL     1      26.820  44.903  52.331  1.00  0.00     0.066 A 
HETATM   23  C   UNL     1      26.873  45.948  53.261  1.00  0.00     0.038 A 
HETATM   24  C   UNL     1      27.589  45.801  54.453  1.00  0.00    -0.059 A 
HETATM   25  C   UNL     1      27.638  46.918  55.453  1.00  0.00     0.048 C 
HETATM   26  C   UNL     1      28.215  44.580  54.718  1.00  0.00     0.020 A 
HETATM   27  C   UNL     1      28.163  43.528  53.787  1.00  0.00    -0.005 A 
HETATM   28  C   UNL     1      27.474  43.685  52.566  1.00  0.00     0.093 A 
HETATM   29  C   UNL     1      28.785  42.298  54.043  1.00  0.00     0.015 A 
HETATM   30  N   UNL     1      27.416  42.690  51.645  1.00  0.00    -0.258 NA
HETATM   31  C   UNL     1      28.026  41.520  51.932  1.00  0.00     0.117 A 
HETATM   32  C   UNL     1      28.714  41.276  53.104  1.00  0.00     0.020 A 
ENDBRANCH   1  22
TORSDOF 4
ENDMDL
MODEL 8
REMARK VINA RESULT:      -9.8      1.642      8.099
REMARK  4 active torsions:
REMARK  status: ('A' for Active; 'I' for Inactive)
REMARK    1  A    between atoms: C_4  and  N_5 
REMARK       I    between atoms: N_5  and  C_6 
REMARK       I    between atoms: C_6  and  N_7 
REMARK    2  A    between atoms: N_7  and  C_8 
REMARK    3  A    between atoms: C_8  and  C_9 
REMARK       I    between atoms: C_9  and  N_10 
REMARK    4  A    between atoms: N_10  and  C_11 
ROOT
HETATM    1  N   UNL     1      24.656  44.878  51.919  1.00  0.00    -0.307 N 
HETATM    2  C   UNL     1      24.400  44.679  50.588  1.00  0.00     0.321 C 
HETATM    3  N   UNL     1      23.082  44.947  50.294  1.00  0.00    -0.334 N 
HETATM    4  O   UNL     1      25.203  44.332  49.731  1.00  0.00    -0.247 OA
HETATM    5  H   UNL     1      24.093  45.583  52.385  1.00  0.00     0.170 HD
HETATM    6  H   UNL     1      22.427  44.678  51.017  1.00  0.00     0.164 HD
ENDROOT
BRANCH   3   7
HETATM    7  C   UNL     1      22.625  44.803  48.927  1.00  0.00     0.227 C 
BRANCH   7   8
HETATM    8  C   UNL     1      22.565  46.160  48.219  1.00  0.00     0.239 C 
HETATM    9  N   UNL     1      22.745  47.218  49.083  1.00  0.00    -0.324 N 
HETATM   10  H   UNL     1      23.082  47.006  50.026  1.00  0.00     0.169 HD
HETATM   11  O   UNL     1      22.429  46.226  46.999  1.00  0.00    -0.271 OA
BRANCH   9  12
HETATM   12  C   UNL     1      22.658  48.605  48.824  1.00  0.00     0.064 A 
HETATM   13  C   UNL     1      21.415  49.205  49.092  1.00  0.00     0.093 A 
HETATM   14  C   UNL     1      21.266  50.586  48.841  1.00  0.00    -0.005 A 
HETATM   15  N   UNL     1      20.391  48.458  49.570  1.00  0.00    -0.258 NA
HETATM   16  C   UNL     1      20.023  51.179  49.106  1.00  0.00     0.015 A 
HETATM   17  C   UNL     1      22.339  51.334  48.332  1.00  0.00     0.014 A 
HETATM   18  C   UNL     1      18.978  50.409  49.602  1.00  0.00     0.020 A 
HETATM   19  C   UNL     1      19.210  49.066  49.816  1.00  0.00     0.117 A 
HETATM   20  C   UNL     1      23.560  50.719  48.068  1.00  0.00     0.003 A 
HETATM   21  C   UNL     1      23.720  49.356  48.311  1.00  0.00     0.032 A 
ENDBRANCH   9  12
ENDBRANCH   7   8
ENDBRANCH   3   7
BRANCH   1  22
HETATM   22  C   UNL     1      25.856  44.570  52.604  1.00  0.00     0.066 A 
HETATM   23  C   UNL     1      26.487  43.326  52.478  1.00  0.00     0.038 A 
HETATM   24  C   UNL     1      27.649  43.044  53.202  1.00  0.00    -0.059 A 
HETATM   25  C   UNL     1      28.330  41.715  53.060  1.00  0.00     0.048 C 
HETATM   26  C   UNL     1      28.192  44.037  54.020  1.00  0.00     0.020 A 
HETATM   27  C   UNL     1      27.563  45.288  54.149  1.00  0.00    -0.005 A 
HETATM   28  C   UNL     1      26.369  45.563  53.450  1.00  0.00     0.093 A 
HETATM   29  C   UNL     1      28.100  46.293  54.965  1.00  0.00     0.015 A 
HETATM   30  N   UNL     1      25.735  46.757  53.563  1.00  0.00    -0.258 NA
HETATM   31  C   UNL     1      26.287  47.700  54.357  1.00  0.00     0.117 A 
HETATM   32  C   UNL     1      27.456  47.520  55.070  1.00  0.00     0.020 A 
ENDBRANCH   1  22
TORSDOF 4
ENDMDL
MODEL 9
REMARK VINA RESULT:      -9.8      1.609      8.120
REMARK  4 active torsions:
REMARK  status: ('A' for Active; 'I' for Inactive)
REMARK    1  A    between atoms: C_4  and  N_5 
REMARK       I    between atoms: N_5  and  C_6 
REMARK       I    between atoms: C_6  and  N_7 
REMARK    2  A    between atoms: N_7  and  C_8 
REMARK    3  A    between atoms: C_8  and  C_9 
REMARK       I    between atoms: C_9  and  N_10 
REMARK    4  A    between atoms: N_10  and  C_11 
ROOT
HETATM    1  N   UNL     1      26.496  44.709  51.744  1.00  0.00    -0.307 N 
HETATM    2  C   UNL     1      25.185  44.383  51.518  1.00  0.00     0.321 C 
HETATM    3  N   UNL     1      24.974  44.078  50.191  1.00  0.00    -0.334 N 
HETATM    4  O   UNL     1      24.288  44.332  52.350  1.00  0.00    -0.247 OA
HETATM    5  H   UNL     1      27.181  44.267  51.138  1.00  0.00     0.170 HD
HETATM    6  H   UNL     1      25.512  44.637  49.542  1.00  0.00     0.164 HD
ENDROOT
BRANCH   3   7
HETATM    7  C   UNL     1      23.644  43.697  49.763  1.00  0.00     0.227 C 
BRANCH   7   8
HETATM    8  C   UNL     1      23.089  44.691  48.738  1.00  0.00     0.239 C 
HETATM    9  N   UNL     1      22.674  45.872  49.314  1.00  0.00    -0.324 N 
HETATM   10  H   UNL     1      22.944  46.044  50.287  1.00  0.00     0.169 HD
HETATM   11  O   UNL     1      23.097  44.426  47.538  1.00  0.00    -0.271 OA
BRANCH   9  12
HETATM   12  C   UNL     1      22.023  46.976  48.717  1.00  0.00     0.064 A 
HETATM   13  C   UNL     1      22.804  48.132  48.544  1.00  0.00     0.093 A 
HETATM   14  C   UNL     1      22.203  49.270  47.965  1.00  0.00    -0.005 A 
HETATM   15  N   UNL     1      24.099  48.141  48.941  1.00  0.00    -0.258 NA
HETATM   16  C   UNL     1      22.984  50.422  47.798  1.00  0.00     0.015 A 
HETATM   17  C   UNL     1      20.855  49.238  47.575  1.00  0.00     0.014 A 
HETATM   18  C   UNL     1      24.314  50.423  48.201  1.00  0.00     0.020 A 
HETATM   19  C   UNL     1      24.820  49.268  48.761  1.00  0.00     0.117 A 
HETATM   20  C   UNL     1      20.098  48.085  47.760  1.00  0.00     0.003 A 
HETATM   21  C   UNL     1      20.679  46.955  48.332  1.00  0.00     0.032 A 
ENDBRANCH   9  12
ENDBRANCH   7   8
ENDBRANCH   3   7
BRANCH   1  22
HETATM   22  C   UNL     1      27.047  45.208  52.949  1.00  0.00     0.066 A 
HETATM   23  C   UNL     1      26.547  46.356  53.577  1.00  0.00     0.038 A 
HETATM   24  C   UNL     1      27.143  46.842  54.744  1.00  0.00    -0.059 A 
HETATM   25  C   UNL     1      26.603  48.067  55.421  1.00  0.00     0.048 C 
HETATM   26  C   UNL     1      28.218  46.141  55.295  1.00  0.00     0.020 A 
HETATM   27  C   UNL     1      28.723  44.988  54.669  1.00  0.00    -0.005 A 
HETATM   28  C   UNL     1      28.149  44.515  53.470  1.00  0.00     0.093 A 
HETATM   29  C   UNL     1      29.799  44.274  55.214  1.00  0.00     0.015 A 
HETATM   30  N   UNL     1      28.620  43.410  52.839  1.00  0.00    -0.258 NA
HETATM   31  C   UNL     1      29.658  42.750  53.399  1.00  0.00     0.117 A 
HETATM   32  C   UNL     1      30.274  43.136  54.573  1.00  0.00     0.020 A 
ENDBRANCH   1  22
TORSDOF 4
ENDMDL
MODEL 10
REMARK VINA RESULT:      -9.8      3.388      8.069
REMARK  4 active torsions:
REMARK  status: ('A' for Active; 'I' for Inactive)
REMARK    1  A    between atoms: C_4  and  N_5 
REMARK       I    between atoms: N_5  and  C_6 
REMARK       I    between atoms: C_6  and  N_7 
REMARK    2  A    between atoms: N_7  and  C_8 
REMARK    3  A    between atoms: C_8  and  C_9 
REMARK       I    between atoms: C_9  and  N_10 
REMARK    4  A    between atoms: N_10  and  C_11 
ROOT
HETATM    1  N   UNL     1      29.634  43.230  53.804  1.00  0.00    -0.307 N 
HETATM    2  C   UNL     1      28.825  42.229  53.335  1.00  0.00     0.321 C 
HETATM    3  N   UNL     1      29.495  41.438  52.428  1.00  0.00    -0.334 N 
HETATM    4  O   UNL     1      27.665  42.011  53.661  1.00  0.00    -0.247 OA
HETATM    5  H   UNL     1      30.628  43.026  53.841  1.00  0.00     0.170 HD
HETATM    6  H   UNL     1      30.139  41.938  51.830  1.00  0.00     0.164 HD
ENDROOT
BRANCH   3   7
HETATM    7  C   UNL     1      28.801  40.316  51.830  1.00  0.00     0.227 C 
BRANCH   7   8
HETATM    8  C   UNL     1      27.987  40.758  50.610  1.00  0.00     0.239 C 
HETATM    9  N   UNL     1      26.785  41.335  50.955  1.00  0.00    -0.324 N 
HETATM   10  H   UNL     1      26.643  41.583  51.938  1.00  0.00     0.169 HD
HETATM   11  O   UNL     1      28.442  40.638  49.475  1.00  0.00    -0.271 OA
BRANCH   9  12
HETATM   12  C   UNL     1      25.732  41.771  50.118  1.00  0.00     0.064 A 
HETATM   13  C   UNL     1      25.326  43.107  50.281  1.00  0.00     0.093 A 
HETATM   14  C   UNL     1      24.271  43.593  49.481  1.00  0.00    -0.005 A 
HETATM   15  N   UNL     1      25.939  43.893  51.199  1.00  0.00    -0.258 NA
HETATM   16  C   UNL     1      23.867  44.925  49.650  1.00  0.00     0.015 A 
HETATM   17  C   UNL     1      23.644  42.752  48.548  1.00  0.00     0.014 A 
HETATM   18  C   UNL     1      24.504  45.729  50.589  1.00  0.00     0.020 A 
HETATM   19  C   UNL     1      25.525  45.172  51.330  1.00  0.00     0.117 A 
HETATM   20  C   UNL     1      24.056  41.431  48.406  1.00  0.00     0.003 A 
HETATM   21  C   UNL     1      25.097  40.938  49.191  1.00  0.00     0.032 A 
ENDBRANCH   9  12
ENDBRANCH   7   8
ENDBRANCH   3   7
BRANCH   1  22
HETATM   22  C   UNL     1      29.248  44.309  54.636  1.00  0.00     0.066 A 
HETATM   23  C   UNL     1      28.228  45.199  54.276  1.00  0.00     0.038 A 
HETATM   24  C   UNL     1      27.902  46.276  55.105  1.00  0.00    -0.059 A 
HETATM   25  C   UNL     1      26.804  47.225  54.724  1.00  0.00     0.048 C 
HETATM   26  C   UNL     1      28.582  46.425  56.317  1.00  0.00     0.020 A 
HETATM   27  C   UNL     1      29.605  45.534  56.683  1.00  0.00    -0.005 A 
HETATM   28  C   UNL     1      29.964  44.468  55.831  1.00  0.00     0.093 A 
HETATM   29  C   UNL     1      30.293  45.672  57.896  1.00  0.00     0.015 A 
HETATM   30  N   UNL     1      30.954  43.597  56.154  1.00  0.00    -0.258 NA
HETATM   31  C   UNL     1      31.589  43.764  57.334  1.00  0.00     0.117 A 
HETATM   32  C   UNL     1      31.298  44.773  58.231  1.00  0.00     0.020 A 
ENDBRANCH   1  22
TORSDOF 4
ENDMDL
