MODEL 1
REMARK VINA RESULT:      -8.7      0.000      0.000
REMARK  4 active torsions:
REMARK  status: ('A' for Active; 'I' for Inactive)
REMARK    1  A    between atoms: C_6  and  C_7 
REMARK    2  A    between atoms: C_10  and  O_11 
REMARK    3  A    between atoms: C_15  and  C_16 
REMARK       I    between atoms: C_16  and  N_17 
REMARK    4  A    between atoms: N_17  and  C_18 
ROOT
HETATM    1  C   UNL     1      26.852  41.040  50.235  1.00  0.00     0.001 A 
HETATM    2  C   UNL     1      26.446  42.223  50.849  1.00  0.00     0.015 A 
HETATM    3  C   UNL     1      27.189  42.785  51.920  1.00  0.00     0.008 A 
HETATM    4  C   UNL     1      28.327  42.105  52.387  1.00  0.00     0.068 A 
HETATM    5  N   UNL     1      29.059  42.533  53.429  1.00  0.00    -0.248 NA
HETATM    6  C   UNL     1      28.695  43.650  54.107  1.00  0.00     0.068 A 
HETATM    7  C   UNL     1      27.608  44.404  53.704  1.00  0.00     0.050 A 
HETATM    8  C   UNL     1      26.870  43.982  52.596  1.00  0.00     0.046 A 
HETATM    9  C   UNL     1      28.714  40.933  51.753  1.00  0.00     0.032 A 
HETATM   10  C   UNL     1      27.995  40.396  50.683  1.00  0.00     0.002 A 
ENDROOT
BRANCH   6  11
HETATM   11  C   UNL     1      29.533  43.992  55.278  1.00  0.00    -0.007 A 
HETATM   12  C   UNL     1      30.548  43.116  55.715  1.00  0.00     0.016 A 
HETATM   13  C   UNL     1      31.343  43.410  56.828  1.00  0.00     0.037 A 
HETATM   14  C   UNL     1      31.131  44.591  57.525  1.00  0.00     0.065 A 
HETATM   15  C   UNL     1      30.139  45.477  57.127  1.00  0.00     0.037 A 
HETATM   16  C   UNL     1      29.345  45.178  56.013  1.00  0.00     0.016 A 
BRANCH  14  17
HETATM   17  O   UNL     1      31.874  44.918  58.619  1.00  0.00    -0.361 OA
HETATM   18  H   UNL     1      31.282  45.283  59.296  1.00  0.00     0.217 HD
ENDBRANCH  14  17
ENDBRANCH   6  11
BRANCH   8  19
HETATM   19  C   UNL     1      25.756  44.867  52.189  1.00  0.00     0.253 C 
HETATM   20  N   UNL     1      26.120  45.974  51.448  1.00  0.00    -0.352 N 
HETATM   21  H   UNL     1      27.103  46.151  51.278  1.00  0.00     0.163 HD
HETATM   22  O   UNL     1      24.618  44.623  52.571  1.00  0.00    -0.268 OA
BRANCH  20  23
HETATM   23  C   UNL     1      25.171  46.959  51.037  1.00  0.00     0.084 A 
HETATM   24  C   UNL     1      25.429  47.812  49.824  1.00  0.00     0.027 A 
HETATM   25  C   UNL     1      24.357  46.763  49.788  1.00  0.00     0.027 A 
ENDBRANCH  20  23
ENDBRANCH   8  19
TORSDOF 4
ENDMDL
MODEL 2
REMARK VINA RESULT:      -8.5      1.872      4.656
REMARK  4 active torsions:
REMARK  status: ('A' for Active; 'I' for Inactive)
REMARK    1  A    between atoms: C_6  and  C_7 
REMARK    2  A    between atoms: C_10  and  O_11 
REMARK    3  A    between atoms: C_15  and  C_16 
REMARK       I    between atoms: C_16  and  N_17 
REMARK    4  A    between atoms: N_17  and  C_18 
ROOT
HETATM    1  C   UNL     1      25.610  44.499  49.598  1.00  0.00     0.001 A 
HETATM    2  C   UNL     1      26.231  43.339  50.058  1.00  0.00     0.015 A 
HETATM    3  C   UNL     1      26.984  43.339  51.261  1.00  0.00     0.008 A 
HETATM    4  C   UNL     1      27.133  44.544  51.969  1.00  0.00     0.068 A 
HETATM    5  N   UNL     1      27.872  44.650  53.087  1.00  0.00    -0.248 NA
HETATM    6  C   UNL     1      28.546  43.574  53.564  1.00  0.00     0.068 A 
HETATM    7  C   UNL     1      28.437  42.337  52.955  1.00  0.00     0.050 A 
HETATM    8  C   UNL     1      27.636  42.217  51.817  1.00  0.00     0.046 A 
HETATM    9  C   UNL     1      26.498  45.683  51.494  1.00  0.00     0.032 A 
HETATM   10  C   UNL     1      25.737  45.674  50.324  1.00  0.00     0.002 A 
ENDROOT
BRANCH   6  11
HETATM   11  C   UNL     1      29.380  43.820  54.761  1.00  0.00    -0.007 A 
HETATM   12  C   UNL     1      29.272  45.030  55.477  1.00  0.00     0.016 A 
HETATM   13  C   UNL     1      30.060  45.292  56.603  1.00  0.00     0.037 A 
HETATM   14  C   UNL     1      30.977  44.341  57.028  1.00  0.00     0.065 A 
HETATM   15  C   UNL     1      31.115  43.139  56.348  1.00  0.00     0.037 A 
HETATM   16  C   UNL     1      30.325  42.883  55.222  1.00  0.00     0.016 A 
BRANCH  14  17
HETATM   17  O   UNL     1      31.773  44.553  58.114  1.00  0.00    -0.361 OA
HETATM   18  H   UNL     1      32.644  44.850  57.805  1.00  0.00     0.217 HD
ENDBRANCH  14  17
ENDBRANCH   6  11
BRANCH   8  19
HETATM   19  C   UNL     1      27.523  40.854  51.250  1.00  0.00     0.253 C 
HETATM   20  N   UNL     1      28.719  40.258  50.900  1.00  0.00    -0.352 N 
HETATM   21  H   UNL     1      29.577  40.789  50.988  1.00  0.00     0.163 HD
HETATM   22  O   UNL     1      26.416  40.366  51.064  1.00  0.00    -0.268 OA
BRANCH  20  23
HETATM   23  C   UNL     1      28.774  38.973  50.280  1.00  0.00     0.084 A 
HETATM   24  C   UNL     1      29.845  38.656  49.272  1.00  0.00     0.027 A 
HETATM   25  C   UNL     1      29.870  38.004  50.624  1.00  0.00     0.027 A 
ENDBRANCH  20  23
ENDBRANCH   8  19
TORSDOF 4
ENDMDL
MODEL 3
REMARK VINA RESULT:      -8.3      1.783      4.072
REMARK  4 active torsions:
REMARK  status: ('A' for Active; 'I' for Inactive)
REMARK    1  A    between atoms: C_6  and  C_7 
REMARK    2  A    between atoms: C_10  and  O_11 
REMARK    3  A    between atoms: C_15  and  C_16 
REMARK       I    between atoms: C_16  and  N_17 
REMARK    4  A    between atoms: N_17  and  C_18 
ROOT
HETATM    1  C   UNL     1      24.833  45.594  50.376  1.00  0.00     0.001 A 
HETATM    2  C   UNL     1      25.557  44.412  50.519  1.00  0.00     0.015 A 
HETATM    3  C   UNL     1      26.454  44.229  51.604  1.00  0.00     0.008 A 
HETATM    4  C   UNL     1      26.637  45.279  52.518  1.00  0.00     0.068 A 
HETATM    5  N   UNL     1      27.505  45.216  53.543  1.00  0.00    -0.248 NA
HETATM    6  C   UNL     1      28.279  44.115  53.714  1.00  0.00     0.068 A 
HETATM    7  C   UNL     1      28.149  43.016  52.884  1.00  0.00     0.050 A 
HETATM    8  C   UNL     1      27.219  43.067  51.843  1.00  0.00     0.046 A 
HETATM    9  C   UNL     1      25.899  46.444  52.358  1.00  0.00     0.032 A 
HETATM   10  C   UNL     1      24.999  46.612  51.304  1.00  0.00     0.002 A 
ENDROOT
BRANCH   6  11
HETATM   11  C   UNL     1      29.245  44.179  54.832  1.00  0.00    -0.007 A 
HETATM   12  C   UNL     1      30.152  43.122  55.061  1.00  0.00     0.016 A 
HETATM   13  C   UNL     1      31.065  43.153  56.120  1.00  0.00     0.037 A 
HETATM   14  C   UNL     1      31.081  44.247  56.974  1.00  0.00     0.065 A 
HETATM   15  C   UNL     1      30.203  45.305  56.784  1.00  0.00     0.037 A 
HETATM   16  C   UNL     1      29.291  45.269  55.723  1.00  0.00     0.016 A 
BRANCH  14  17
HETATM   17  O   UNL     1      31.946  44.319  58.025  1.00  0.00    -0.361 OA
HETATM   18  H   UNL     1      32.825  44.553  57.686  1.00  0.00     0.217 HD
ENDBRANCH  14  17
ENDBRANCH   6  11
BRANCH   8  19
HETATM   19  C   UNL     1      27.095  41.836  51.030  1.00  0.00     0.253 C 
HETATM   20  N   UNL     1      27.694  41.886  49.787  1.00  0.00    -0.352 N 
HETATM   21  H   UNL     1      28.119  42.753  49.480  1.00  0.00     0.163 HD
HETATM   22  O   UNL     1      26.437  40.894  51.453  1.00  0.00    -0.268 OA
BRANCH  20  23
HETATM   23  C   UNL     1      27.607  40.805  48.857  1.00  0.00     0.084 A 
HETATM   24  C   UNL     1      28.326  40.871  47.538  1.00  0.00     0.027 A 
HETATM   25  C   UNL     1      28.793  39.920  48.600  1.00  0.00     0.027 A 
ENDBRANCH  20  23
ENDBRANCH   8  19
TORSDOF 4
ENDMDL
MODEL 4
REMARK VINA RESULT:      -8.0      2.412      5.917
REMARK  4 active torsions:
REMARK  status: ('A' for Active; 'I' for Inactive)
REMARK    1  A    between atoms: C_6  and  C_7 
REMARK    2  A    between atoms: C_10  and  O_11 
REMARK    3  A    between atoms: C_15  and  C_16 
REMARK       I    between atoms: C_16  and  N_17 
REMARK    4  A    between atoms: N_17  and  C_18 
ROOT
HETATM    1  C   UNL     1      29.141  44.818  55.186  1.00  0.00     0.001 A 
HETATM    2  C   UNL     1      28.119  44.728  54.244  1.00  0.00     0.015 A 
HETATM    3  C   UNL     1      28.061  43.647  53.326  1.00  0.00     0.008 A 
HETATM    4  C   UNL     1      29.079  42.679  53.352  1.00  0.00     0.068 A 
HETATM    5  N   UNL     1      29.136  41.653  52.486  1.00  0.00    -0.248 NA
HETATM    6  C   UNL     1      28.202  41.530  51.510  1.00  0.00     0.068 A 
HETATM    7  C   UNL     1      27.143  42.415  51.423  1.00  0.00     0.050 A 
HETATM    8  C   UNL     1      27.061  43.459  52.347  1.00  0.00     0.046 A 
HETATM    9  C   UNL     1      30.083  42.787  54.304  1.00  0.00     0.032 A 
HETATM   10  C   UNL     1      30.123  43.839  55.222  1.00  0.00     0.002 A 
ENDROOT
BRANCH   6  11
HETATM   11  C   UNL     1      28.398  40.402  50.573  1.00  0.00    -0.007 A 
HETATM   12  C   UNL     1      27.884  40.460  49.261  1.00  0.00     0.016 A 
HETATM   13  C   UNL     1      28.044  39.400  48.362  1.00  0.00     0.037 A 
HETATM   14  C   UNL     1      28.722  38.259  48.767  1.00  0.00     0.065 A 
HETATM   15  C   UNL     1      29.240  38.163  50.051  1.00  0.00     0.037 A 
HETATM   16  C   UNL     1      29.076  39.226  50.947  1.00  0.00     0.016 A 
BRANCH  14  17
HETATM   17  O   UNL     1      28.896  37.197  47.930  1.00  0.00    -0.361 OA
HETATM   18  H   UNL     1      28.086  37.078  47.410  1.00  0.00     0.217 HD
ENDBRANCH  14  17
ENDBRANCH   6  11
BRANCH   8  19
HETATM   19  C   UNL     1      25.873  44.333  52.228  1.00  0.00     0.253 C 
HETATM   20  N   UNL     1      25.998  45.383  51.339  1.00  0.00    -0.352 N 
HETATM   21  H   UNL     1      26.886  45.533  50.877  1.00  0.00     0.163 HD
HETATM   22  O   UNL     1      24.899  44.133  52.943  1.00  0.00    -0.268 OA
BRANCH  20  23
HETATM   23  C   UNL     1      24.966  46.354  51.160  1.00  0.00     0.084 A 
HETATM   24  C   UNL     1      25.165  47.519  50.229  1.00  0.00     0.027 A 
HETATM   25  C   UNL     1      24.200  46.427  49.869  1.00  0.00     0.027 A 
ENDBRANCH  20  23
ENDBRANCH   8  19
TORSDOF 4
ENDMDL
MODEL 5
REMARK VINA RESULT:      -7.9      2.929      4.303
REMARK  4 active torsions:
REMARK  status: ('A' for Active; 'I' for Inactive)
REMARK    1  A    between atoms: C_6  and  C_7 
REMARK    2  A    between atoms: C_10  and  O_11 
REMARK    3  A    between atoms: C_15  and  C_16 
REMARK       I    between atoms: C_16  and  N_17 
REMARK    4  A    between atoms: N_17  and  C_18 
ROOT
HETATM    1  C   UNL     1      22.834  43.809  48.962  1.00  0.00     0.001 A 
HETATM    2  C   UNL     1      23.232  45.123  49.195  1.00  0.00     0.015 A 
HETATM    3  C   UNL     1      24.157  45.437  50.225  1.00  0.00     0.008 A 
HETATM    4  C   UNL     1      24.639  44.401  51.043  1.00  0.00     0.068 A 
HETATM    5  N   UNL     1      25.473  44.611  52.076  1.00  0.00    -0.248 NA
HETATM    6  C   UNL     1      25.863  45.871  52.393  1.00  0.00     0.068 A 
HETATM    7  C   UNL     1      25.467  46.953  51.628  1.00  0.00     0.050 A 
HETATM    8  C   UNL     1      24.632  46.731  50.530  1.00  0.00     0.046 A 
HETATM    9  C   UNL     1      24.233  43.099  50.786  1.00  0.00     0.032 A 
HETATM   10  C   UNL     1      23.342  42.791  49.755  1.00  0.00     0.002 A 
ENDROOT
BRANCH   6  11
HETATM   11  C   UNL     1      26.728  45.993  53.587  1.00  0.00    -0.007 A 
HETATM   12  C   UNL     1      27.557  44.924  53.987  1.00  0.00     0.016 A 
HETATM   13  C   UNL     1      28.372  45.010  55.120  1.00  0.00     0.037 A 
HETATM   14  C   UNL     1      28.367  46.173  55.877  1.00  0.00     0.065 A 
HETATM   15  C   UNL     1      27.562  47.246  55.518  1.00  0.00     0.037 A 
HETATM   16  C   UNL     1      26.748  47.154  54.383  1.00  0.00     0.016 A 
BRANCH  14  17
HETATM   17  O   UNL     1      29.137  46.302  56.994  1.00  0.00    -0.361 OA
HETATM   18  H   UNL     1      28.738  45.776  57.706  1.00  0.00     0.217 HD
ENDBRANCH  14  17
ENDBRANCH   6  11
BRANCH   8  19
HETATM   19  C   UNL     1      24.294  47.926  49.726  1.00  0.00     0.253 C 
HETATM   20  N   UNL     1      22.965  48.302  49.756  1.00  0.00    -0.352 N 
HETATM   21  H   UNL     1      22.302  47.725  50.259  1.00  0.00     0.163 HD
HETATM   22  O   UNL     1      25.159  48.464  49.047  1.00  0.00    -0.268 OA
BRANCH  20  23
HETATM   23  C   UNL     1      22.466  49.393  48.981  1.00  0.00     0.084 A 
HETATM   24  C   UNL     1      21.258  50.166  49.437  1.00  0.00     0.027 A 
HETATM   25  C   UNL     1      22.615  50.807  49.467  1.00  0.00     0.027 A 
ENDBRANCH  20  23
ENDBRANCH   8  19
TORSDOF 4
ENDMDL
MODEL 6
REMARK VINA RESULT:      -7.8      4.703     10.263
REMARK  4 active torsions:
REMARK  status: ('A' for Active; 'I' for Inactive)
REMARK    1  A    between atoms: C_6  and  C_7 
REMARK    2  A    between atoms: C_10  and  O_11 
REMARK    3  A    between atoms: C_15  and  C_16 
REMARK       I    between atoms: C_16  and  N_17 
REMARK    4  A    between atoms: N_17  and  C_18 
ROOT
HETATM    1  C   UNL     1      27.749  48.640  49.294  1.00  0.00     0.001 A 
HETATM    2  C   UNL     1      26.651  47.833  49.587  1.00  0.00     0.015 A 
HETATM    3  C   UNL     1      25.333  48.240  49.254  1.00  0.00     0.008 A 
HETATM    4  C   UNL     1      25.141  49.497  48.656  1.00  0.00     0.068 A 
HETATM    5  N   UNL     1      23.927  49.988  48.356  1.00  0.00    -0.248 NA
HETATM    6  C   UNL     1      22.810  49.280  48.659  1.00  0.00     0.068 A 
HETATM    7  C   UNL     1      22.898  48.018  49.219  1.00  0.00     0.050 A 
HETATM    8  C   UNL     1      24.161  47.491  49.494  1.00  0.00     0.046 A 
HETATM    9  C   UNL     1      26.252  50.279  48.368  1.00  0.00     0.032 A 
HETATM   10  C   UNL     1      27.549  49.864  48.674  1.00  0.00     0.002 A 
ENDROOT
BRANCH   6  11
HETATM   11  C   UNL     1      21.526  49.943  48.345  1.00  0.00    -0.007 A 
HETATM   12  C   UNL     1      20.567  49.305  47.531  1.00  0.00     0.016 A 
HETATM   13  C   UNL     1      19.351  49.917  47.209  1.00  0.00     0.037 A 
HETATM   14  C   UNL     1      19.077  51.187  47.697  1.00  0.00     0.065 A 
HETATM   15  C   UNL     1      19.997  51.849  48.499  1.00  0.00     0.037 A 
HETATM   16  C   UNL     1      21.212  51.232  48.817  1.00  0.00     0.016 A 
BRANCH  14  17
HETATM   17  O   UNL     1      17.911  51.828  47.403  1.00  0.00    -0.361 OA
HETATM   18  H   UNL     1      17.232  51.536  48.032  1.00  0.00     0.217 HD
ENDBRANCH  14  17
ENDBRANCH   6  11
BRANCH   8  19
HETATM   19  C   UNL     1      24.180  46.116  50.042  1.00  0.00     0.253 C 
HETATM   20  N   UNL     1      24.556  46.013  51.367  1.00  0.00    -0.352 N 
HETATM   21  H   UNL     1      24.850  46.847  51.862  1.00  0.00     0.163 HD
HETATM   22  O   UNL     1      23.936  45.168  49.308  1.00  0.00    -0.268 OA
BRANCH  20  23
HETATM   23  C   UNL     1      24.688  44.751  52.024  1.00  0.00     0.084 A 
HETATM   24  C   UNL     1      26.043  44.126  52.213  1.00  0.00     0.027 A 
HETATM   25  C   UNL     1      25.293  44.663  53.397  1.00  0.00     0.027 A 
ENDBRANCH  20  23
ENDBRANCH   8  19
TORSDOF 4
ENDMDL
MODEL 7
REMARK VINA RESULT:      -7.5      4.330      7.143
REMARK  4 active torsions:
REMARK  status: ('A' for Active; 'I' for Inactive)
REMARK    1  A    between atoms: C_6  and  C_7 
REMARK    2  A    between atoms: C_10  and  O_11 
REMARK    3  A    between atoms: C_15  and  C_16 
REMARK       I    between atoms: C_16  and  N_17 
REMARK    4  A    between atoms: N_17  and  C_18 
ROOT
HETATM    1  C   UNL     1      26.433  50.505  48.375  1.00  0.00     0.001 A 
HETATM    2  C   UNL     1      25.244  49.785  48.466  1.00  0.00     0.015 A 
HETATM    3  C   UNL     1      25.225  48.466  48.989  1.00  0.00     0.008 A 
HETATM    4  C   UNL     1      26.437  47.872  49.379  1.00  0.00     0.068 A 
HETATM    5  N   UNL     1      26.523  46.610  49.833  1.00  0.00    -0.248 NA
HETATM    6  C   UNL     1      25.413  45.833  49.901  1.00  0.00     0.068 A 
HETATM    7  C   UNL     1      24.169  46.337  49.569  1.00  0.00     0.050 A 
HETATM    8  C   UNL     1      24.074  47.661  49.136  1.00  0.00     0.046 A 
HETATM    9  C   UNL     1      27.607  48.613  49.285  1.00  0.00     0.032 A 
HETATM   10  C   UNL     1      27.619  49.920  48.794  1.00  0.00     0.002 A 
ENDROOT
BRANCH   6  11
HETATM   11  C   UNL     1      25.632  44.441  50.352  1.00  0.00    -0.007 A 
HETATM   12  C   UNL     1      26.629  44.142  51.303  1.00  0.00     0.016 A 
HETATM   13  C   UNL     1      26.865  42.832  51.735  1.00  0.00     0.037 A 
HETATM   14  C   UNL     1      26.103  41.795  51.214  1.00  0.00     0.065 A 
HETATM   15  C   UNL     1      25.114  42.049  50.274  1.00  0.00     0.037 A 
HETATM   16  C   UNL     1      24.883  43.361  49.845  1.00  0.00     0.016 A 
BRANCH  14  17
HETATM   17  O   UNL     1      26.301  40.503  51.596  1.00  0.00    -0.361 OA
HETATM   18  H   UNL     1      26.930  40.492  52.335  1.00  0.00     0.217 HD
ENDBRANCH  14  17
ENDBRANCH   6  11
BRANCH   8  19
HETATM   19  C   UNL     1      22.706  48.149  48.850  1.00  0.00     0.253 C 
HETATM   20  N   UNL     1      22.261  49.172  49.665  1.00  0.00    -0.352 N 
HETATM   21  H   UNL     1      22.849  49.483  50.430  1.00  0.00     0.163 HD
HETATM   22  O   UNL     1      22.035  47.601  47.985  1.00  0.00    -0.268 OA
BRANCH  20  23
HETATM   23  C   UNL     1      20.941  49.707  49.562  1.00  0.00     0.084 A 
HETATM   24  C   UNL     1      20.588  51.007  50.230  1.00  0.00     0.027 A 
HETATM   25  C   UNL     1      20.675  50.932  48.733  1.00  0.00     0.027 A 
ENDBRANCH  20  23
ENDBRANCH   8  19
TORSDOF 4
ENDMDL
MODEL 8
REMARK VINA RESULT:      -7.3     11.375     15.878
REMARK  4 active torsions:
REMARK  status: ('A' for Active; 'I' for Inactive)
REMARK    1  A    between atoms: C_6  and  C_7 
REMARK    2  A    between atoms: C_10  and  O_11 
REMARK    3  A    between atoms: C_15  and  C_16 
REMARK       I    between atoms: C_16  and  N_17 
REMARK    4  A    between atoms: N_17  and  C_18 
ROOT
HETATM    1  C   UNL     1      12.881  54.403  47.002  1.00  0.00     0.001 A 
HETATM    2  C   UNL     1      13.330  54.387  48.321  1.00  0.00     0.015 A 
HETATM    3  C   UNL     1      14.568  53.784  48.666  1.00  0.00     0.008 A 
HETATM    4  C   UNL     1      15.324  53.161  47.659  1.00  0.00     0.068 A 
HETATM    5  N   UNL     1      16.480  52.518  47.902  1.00  0.00    -0.248 NA
HETATM    6  C   UNL     1      16.952  52.419  49.169  1.00  0.00     0.068 A 
HETATM    7  C   UNL     1      16.295  53.026  50.224  1.00  0.00     0.050 A 
HETATM    8  C   UNL     1      15.116  53.728  49.966  1.00  0.00     0.046 A 
HETATM    9  C   UNL     1      14.859  53.197  46.352  1.00  0.00     0.032 A 
HETATM   10  C   UNL     1      13.652  53.813  46.012  1.00  0.00     0.002 A 
ENDROOT
BRANCH   6  11
HETATM   11  C   UNL     1      18.196  51.634  49.330  1.00  0.00    -0.007 A 
HETATM   12  C   UNL     1      19.397  52.059  48.725  1.00  0.00     0.016 A 
HETATM   13  C   UNL     1      20.583  51.327  48.851  1.00  0.00     0.037 A 
HETATM   14  C   UNL     1      20.582  50.149  49.584  1.00  0.00     0.065 A 
HETATM   15  C   UNL     1      19.419  49.696  50.192  1.00  0.00     0.037 A 
HETATM   16  C   UNL     1      18.235  50.432  50.063  1.00  0.00     0.016 A 
BRANCH  14  17
HETATM   17  O   UNL     1      21.709  49.397  49.728  1.00  0.00    -0.361 OA
HETATM   18  H   UNL     1      22.245  49.487  48.924  1.00  0.00     0.217 HD
ENDBRANCH  14  17
ENDBRANCH   6  11
BRANCH   8  19
HETATM   19  C   UNL     1      14.497  54.398  51.132  1.00  0.00     0.253 C 
HETATM   20  N   UNL     1      15.304  55.309  51.788  1.00  0.00    -0.352 N 
HETATM   21  H   UNL     1      16.264  55.422  51.485  1.00  0.00     0.163 HD
HETATM   22  O   UNL     1      13.370  54.079  51.488  1.00  0.00    -0.268 OA
BRANCH  20  23
HETATM   23  C   UNL     1      14.878  55.988  52.969  1.00  0.00     0.084 A 
HETATM   24  C   UNL     1      15.885  56.604  53.902  1.00  0.00     0.027 A 
HETATM   25  C   UNL     1      14.993  57.483  53.075  1.00  0.00     0.027 A 
ENDBRANCH  20  23
ENDBRANCH   8  19
TORSDOF 4
ENDMDL
MODEL 9
REMARK VINA RESULT:      -7.3      3.363      6.022
REMARK  4 active torsions:
REMARK  status: ('A' for Active; 'I' for Inactive)
REMARK    1  A    between atoms: C_6  and  C_7 
REMARK    2  A    between atoms: C_10  and  O_11 
REMARK    3  A    between atoms: C_15  and  C_16 
REMARK       I    between atoms: C_16  and  N_17 
REMARK    4  A    between atoms: N_17  and  C_18 
ROOT
HETATM    1  C   UNL     1      21.689  45.840  47.083  1.00  0.00     0.001 A 
HETATM    2  C   UNL     1      22.195  46.890  47.847  1.00  0.00     0.015 A 
HETATM    3  C   UNL     1      23.207  46.668  48.818  1.00  0.00     0.008 A 
HETATM    4  C   UNL     1      23.668  45.357  49.031  1.00  0.00     0.068 A 
HETATM    5  N   UNL     1      24.582  45.045  49.965  1.00  0.00    -0.248 NA
HETATM    6  C   UNL     1      25.082  46.008  50.780  1.00  0.00     0.068 A 
HETATM    7  C   UNL     1      24.714  47.332  50.626  1.00  0.00     0.050 A 
HETATM    8  C   UNL     1      23.794  47.663  49.629  1.00  0.00     0.046 A 
HETATM    9  C   UNL     1      23.152  44.331  48.252  1.00  0.00     0.032 A 
HETATM   10  C   UNL     1      22.175  44.557  47.281  1.00  0.00     0.002 A 
ENDROOT
BRANCH   6  11
HETATM   11  C   UNL     1      26.031  45.543  51.815  1.00  0.00    -0.007 A 
HETATM   12  C   UNL     1      26.138  46.218  53.048  1.00  0.00     0.016 A 
HETATM   13  C   UNL     1      27.038  45.805  54.037  1.00  0.00     0.037 A 
HETATM   14  C   UNL     1      27.853  44.707  53.801  1.00  0.00     0.065 A 
HETATM   15  C   UNL     1      27.779  44.018  52.599  1.00  0.00     0.037 A 
HETATM   16  C   UNL     1      26.878  44.435  51.613  1.00  0.00     0.016 A 
BRANCH  14  17
HETATM   17  O   UNL     1      28.751  44.273  54.729  1.00  0.00    -0.361 OA
HETATM   18  H   UNL     1      29.184  45.046  55.125  1.00  0.00     0.217 HD
ENDBRANCH  14  17
ENDBRANCH   6  11
BRANCH   8  19
HETATM   19  C   UNL     1      23.489  49.104  49.487  1.00  0.00     0.253 C 
HETATM   20  N   UNL     1      22.206  49.475  49.841  1.00  0.00    -0.352 N 
HETATM   21  H   UNL     1      21.544  48.758  50.112  1.00  0.00     0.163 HD
HETATM   22  O   UNL     1      24.331  49.859  49.018  1.00  0.00    -0.268 OA
BRANCH  20  23
HETATM   23  C   UNL     1      21.735  50.816  49.698  1.00  0.00     0.084 A 
HETATM   24  C   UNL     1      20.921  51.217  48.498  1.00  0.00     0.027 A 
HETATM   25  C   UNL     1      20.274  51.134  49.850  1.00  0.00     0.027 A 
ENDBRANCH  20  23
ENDBRANCH   8  19
TORSDOF 4
ENDMDL
MODEL 10
REMARK VINA RESULT:      -7.2     14.589     15.542
REMARK  4 active torsions:
REMARK  status: ('A' for Active; 'I' for Inactive)
REMARK    1  A    between atoms: C_6  and  C_7 
REMARK    2  A    between atoms: C_10  and  O_11 
REMARK    3  A    between atoms: C_15  and  C_16 
REMARK       I    between atoms: C_16  and  N_17 
REMARK    4  A    between atoms: N_17  and  C_18 
ROOT
HETATM    1  C   UNL     1      39.282  43.338  62.505  1.00  0.00     0.001 A 
HETATM    2  C   UNL     1      38.617  44.461  62.995  1.00  0.00     0.015 A 
HETATM    3  C   UNL     1      37.601  44.338  63.979  1.00  0.00     0.008 A 
HETATM    4  C   UNL     1      37.240  43.056  64.427  1.00  0.00     0.068 A 
HETATM    5  N   UNL     1      36.254  42.841  65.314  1.00  0.00    -0.248 NA
HETATM    6  C   UNL     1      35.530  43.882  65.796  1.00  0.00     0.068 A 
HETATM    7  C   UNL     1      35.830  45.184  65.439  1.00  0.00     0.050 A 
HETATM    8  C   UNL     1      36.882  45.411  64.548  1.00  0.00     0.046 A 
HETATM    9  C   UNL     1      37.923  41.955  63.928  1.00  0.00     0.032 A 
HETATM   10  C   UNL     1      38.939  42.081  62.979  1.00  0.00     0.002 A 
ENDROOT
BRANCH   6  11
HETATM   11  C   UNL     1      34.426  43.525  66.714  1.00  0.00    -0.007 A 
HETATM   12  C   UNL     1      34.528  43.787  68.096  1.00  0.00     0.016 A 
HETATM   13  C   UNL     1      33.504  43.446  68.986  1.00  0.00     0.037 A 
HETATM   14  C   UNL     1      32.358  42.829  68.503  1.00  0.00     0.065 A 
HETATM   15  C   UNL     1      32.222  42.552  67.150  1.00  0.00     0.037 A 
HETATM   16  C   UNL     1      33.250  42.895  66.264  1.00  0.00     0.016 A 
BRANCH  14  17
HETATM   17  O   UNL     1      31.338  42.470  69.332  1.00  0.00    -0.361 OA
HETATM   18  H   UNL     1      30.648  43.151  69.285  1.00  0.00     0.217 HD
ENDBRANCH  14  17
ENDBRANCH   6  11
BRANCH   8  19
HETATM   19  C   UNL     1      37.181  46.831  64.254  1.00  0.00     0.253 C 
HETATM   20  N   UNL     1      38.043  47.449  65.139  1.00  0.00    -0.352 N 
HETATM   21  H   UNL     1      38.366  46.936  65.950  1.00  0.00     0.163 HD
HETATM   22  O   UNL     1      36.621  47.387  63.317  1.00  0.00    -0.268 OA
BRANCH  20  23
HETATM   23  C   UNL     1      38.378  48.833  65.031  1.00  0.00     0.084 A 
HETATM   24  C   UNL     1      39.458  49.428  65.893  1.00  0.00     0.027 A 
HETATM   25  C   UNL     1      39.682  49.259  64.418  1.00  0.00     0.027 A 
ENDBRANCH  20  23
ENDBRANCH   8  19
TORSDOF 4
ENDMDL
