MODEL 1
REMARK VINA RESULT:      -9.1      0.000      0.000
REMARK  9 active torsions:
REMARK  status: ('A' for Active; 'I' for Inactive)
REMARK    1  A    between atoms: C_4  and  C_5 
REMARK    2  A    between atoms: C_8  and  C_9 
REMARK       I    between atoms: C_9  and  N_10 
REMARK    3  A    between atoms: N_10  and  C_26 
REMARK    4  A    between atoms: N_10  and  C_11 
REMARK    5  A    between atoms: C_11  and  C_12 
REMARK    6  A    between atoms: C_11  and  C_21 
REMARK       I    between atoms: C_12  and  N_13 
REMARK    7  A    between atoms: N_13  and  C_14 
REMARK    8  A    between atoms: C_14  and  C_15 
REMARK    9  A    between atoms: C_26  and  C_27 
ROOT
HETATM    1  C   UNL     1      25.141  46.498  51.906  1.00  0.00     0.271 C 
HETATM    2  N   UNL     1      24.794  45.907  50.686  1.00  0.00    -0.324 N 
HETATM    3  O   UNL     1      24.907  47.690  52.108  1.00  0.00    -0.266 OA
ENDROOT
BRANCH   2   4
HETATM    4  C   UNL     1      24.546  46.829  49.567  1.00  0.00     0.173 C 
BRANCH   4   5
HETATM    5  C   UNL     1      25.686  47.770  49.336  1.00  0.00     0.000 A 
HETATM    6  S   UNL     1      25.401  49.359  48.754  1.00  0.00    -0.105 SA
HETATM    7  C   UNL     1      27.068  49.734  48.771  1.00  0.00     0.050 A 
HETATM    8  C   UNL     1      27.834  48.664  49.172  1.00  0.00     0.008 A 
HETATM    9  C   UNL     1      27.038  47.524  49.483  1.00  0.00     0.017 A 
ENDBRANCH   4   5
ENDBRANCH   2   4
BRANCH   2  10
HETATM   10  C   UNL     1      24.786  44.442  50.438  1.00  0.00     0.220 C 
BRANCH  10  11
HETATM   11  C   UNL     1      26.241  43.927  50.421  1.00  0.00     0.245 C 
HETATM   12  N   UNL     1      26.506  42.782  51.146  1.00  0.00    -0.357 N 
HETATM   13  H   UNL     1      25.827  42.496  51.846  1.00  0.00     0.162 HD
HETATM   14  O   UNL     1      27.051  44.416  49.627  1.00  0.00    -0.271 OA
BRANCH  12  15
HETATM   15  C   UNL     1      27.818  42.161  51.178  1.00  0.00     0.154 C 
BRANCH  15  16
HETATM   16  C   UNL     1      27.760  40.652  50.877  1.00  0.00     0.139 C 
HETATM   17  O   UNL     1      28.688  40.318  49.831  1.00  0.00    -0.384 OA
HETATM   18  C   UNL     1      27.971  40.207  48.592  1.00  0.00     0.168 C 
HETATM   19  C   UNL     1      26.513  40.503  48.877  1.00  0.00     0.029 C 
HETATM   20  C   UNL     1      26.398  40.222  50.355  1.00  0.00     0.035 C 
ENDBRANCH  15  16
ENDBRANCH  12  15
ENDBRANCH  10  11
BRANCH  10  21
HETATM   21  C   UNL     1      23.846  44.021  49.326  1.00  0.00     0.014 A 
HETATM   22  S   UNL     1      22.147  44.285  49.393  1.00  0.00    -0.104 SA
HETATM   23  C   UNL     1      21.908  43.693  47.811  1.00  0.00     0.050 A 
HETATM   24  C   UNL     1      23.094  43.345  47.208  1.00  0.00     0.008 A 
HETATM   25  C   UNL     1      24.207  43.557  48.069  1.00  0.00     0.017 A 
ENDBRANCH  10  21
ENDBRANCH   2  10
BRANCH   1  26
HETATM   26  C   UNL     1      25.754  45.694  52.945  1.00  0.00     0.101 C 
HETATM   27  N   UNL     1      27.036  45.821  53.445  1.00  0.00    -0.351 N 
HETATM   28  C   UNL     1      27.317  44.790  54.317  1.00  0.00     0.043 C 
HETATM   29  H   UNL     1      27.710  46.520  53.148  1.00  0.00     0.166 HD
HETATM   30  C   UNL     1      26.114  44.155  54.568  1.00  0.00     0.033 C 
HETATM   31  C   UNL     1      25.136  44.731  53.725  1.00  0.00     0.037 C 
BRANCH  28  32
HETATM   32  C   UNL     1      28.661  44.508  54.823  1.00  0.00    -0.009 A 
HETATM   33  C   UNL     1      29.259  45.354  55.766  1.00  0.00     0.013 A 
HETATM   34  C   UNL     1      30.514  45.053  56.301  1.00  0.00     0.001 A 
HETATM   35  C   UNL     1      31.182  43.896  55.905  1.00  0.00     0.000 A 
HETATM   36  C   UNL     1      30.600  43.046  54.967  1.00  0.00     0.001 A 
HETATM   37  C   UNL     1      29.348  43.352  54.426  1.00  0.00     0.013 A 
ENDBRANCH  28  32
ENDBRANCH   1  26
TORSDOF 9
ENDMDL
MODEL 2
REMARK VINA RESULT:      -8.1      1.044      1.802
REMARK  9 active torsions:
REMARK  status: ('A' for Active; 'I' for Inactive)
REMARK    1  A    between atoms: C_4  and  C_5 
REMARK    2  A    between atoms: C_8  and  C_9 
REMARK       I    between atoms: C_9  and  N_10 
REMARK    3  A    between atoms: N_10  and  C_26 
REMARK    4  A    between atoms: N_10  and  C_11 
REMARK    5  A    between atoms: C_11  and  C_12 
REMARK    6  A    between atoms: C_11  and  C_21 
REMARK       I    between atoms: C_12  and  N_13 
REMARK    7  A    between atoms: N_13  and  C_14 
REMARK    8  A    between atoms: C_14  and  C_15 
REMARK    9  A    between atoms: C_26  and  C_27 
ROOT
HETATM    1  C   UNL     1      25.495  46.569  51.470  1.00  0.00     0.271 C 
HETATM    2  N   UNL     1      25.143  45.891  50.298  1.00  0.00    -0.324 N 
HETATM    3  O   UNL     1      25.422  47.797  51.525  1.00  0.00    -0.266 OA
ENDROOT
BRANCH   2   4
HETATM    4  C   UNL     1      25.098  46.701  49.071  1.00  0.00     0.173 C 
BRANCH   4   5
HETATM    5  C   UNL     1      23.924  47.628  49.038  1.00  0.00     0.000 A 
HETATM    6  S   UNL     1      24.152  49.317  48.839  1.00  0.00    -0.105 SA
HETATM    7  C   UNL     1      22.470  49.617  48.901  1.00  0.00     0.050 A 
HETATM    8  C   UNL     1      21.748  48.465  49.110  1.00  0.00     0.008 A 
HETATM    9  C   UNL     1      22.588  47.318  49.205  1.00  0.00     0.017 A 
ENDBRANCH   4   5
ENDBRANCH   2   4
BRANCH   2  10
HETATM   10  C   UNL     1      24.942  44.422  50.208  1.00  0.00     0.220 C 
BRANCH  10  11
HETATM   11  C   UNL     1      26.317  43.723  50.247  1.00  0.00     0.245 C 
HETATM   12  N   UNL     1      26.385  42.517  50.917  1.00  0.00    -0.357 N 
HETATM   13  H   UNL     1      25.631  42.288  51.557  1.00  0.00     0.162 HD
HETATM   14  O   UNL     1      27.234  44.141  49.532  1.00  0.00    -0.271 OA
BRANCH  12  15
HETATM   15  C   UNL     1      27.603  41.729  50.989  1.00  0.00     0.154 C 
BRANCH  15  16
HETATM   16  C   UNL     1      27.454  40.357  50.306  1.00  0.00     0.139 C 
HETATM   17  O   UNL     1      28.692  39.976  49.682  1.00  0.00    -0.384 OA
HETATM   18  C   UNL     1      28.611  40.261  48.278  1.00  0.00     0.168 C 
HETATM   19  C   UNL     1      27.249  40.867  48.009  1.00  0.00     0.029 C 
HETATM   20  C   UNL     1      26.431  40.383  49.181  1.00  0.00     0.035 C 
ENDBRANCH  15  16
ENDBRANCH  12  15
ENDBRANCH  10  11
BRANCH  10  21
HETATM   21  C   UNL     1      23.939  44.012  49.148  1.00  0.00     0.014 A 
HETATM   22  S   UNL     1      22.240  44.046  49.410  1.00  0.00    -0.104 SA
HETATM   23  C   UNL     1      21.897  43.611  47.797  1.00  0.00     0.050 A 
HETATM   24  C   UNL     1      23.041  43.488  47.044  1.00  0.00     0.008 A 
HETATM   25  C   UNL     1      24.210  43.743  47.814  1.00  0.00     0.017 A 
ENDBRANCH  10  21
ENDBRANCH   2  10
BRANCH   1  26
HETATM   26  C   UNL     1      25.923  45.817  52.634  1.00  0.00     0.101 C 
HETATM   27  N   UNL     1      27.169  45.849  53.232  1.00  0.00    -0.351 N 
HETATM   28  C   UNL     1      27.253  44.893  54.222  1.00  0.00     0.043 C 
HETATM   29  H   UNL     1      27.945  46.430  52.929  1.00  0.00     0.166 HD
HETATM   30  C   UNL     1      25.964  44.431  54.425  1.00  0.00     0.033 C 
HETATM   31  C   UNL     1      25.133  45.020  53.446  1.00  0.00     0.037 C 
BRANCH  28  32
HETATM   32  C   UNL     1      28.508  44.515  54.872  1.00  0.00    -0.009 A 
HETATM   33  C   UNL     1      29.167  43.332  54.513  1.00  0.00     0.013 A 
HETATM   34  C   UNL     1      30.398  43.000  55.084  1.00  0.00     0.001 A 
HETATM   35  C   UNL     1      30.989  43.853  56.014  1.00  0.00     0.000 A 
HETATM   36  C   UNL     1      30.344  45.033  56.381  1.00  0.00     0.001 A 
HETATM   37  C   UNL     1      29.109  45.359  55.816  1.00  0.00     0.013 A 
ENDBRANCH  28  32
ENDBRANCH   1  26
TORSDOF 9
ENDMDL
MODEL 3
REMARK VINA RESULT:      -8.0      7.966     11.767
REMARK  9 active torsions:
REMARK  status: ('A' for Active; 'I' for Inactive)
REMARK    1  A    between atoms: C_4  and  C_5 
REMARK    2  A    between atoms: C_8  and  C_9 
REMARK       I    between atoms: C_9  and  N_10 
REMARK    3  A    between atoms: N_10  and  C_26 
REMARK    4  A    between atoms: N_10  and  C_11 
REMARK    5  A    between atoms: C_11  and  C_12 
REMARK    6  A    between atoms: C_11  and  C_21 
REMARK       I    between atoms: C_12  and  N_13 
REMARK    7  A    between atoms: N_13  and  C_14 
REMARK    8  A    between atoms: C_14  and  C_15 
REMARK    9  A    between atoms: C_26  and  C_27 
ROOT
HETATM    1  C   UNL     1      19.651  48.710  48.501  1.00  0.00     0.271 C 
HETATM    2  N   UNL     1      18.480  49.458  48.340  1.00  0.00    -0.324 N 
HETATM    3  O   UNL     1      19.596  47.486  48.619  1.00  0.00    -0.266 OA
ENDROOT
BRANCH   2   4
HETATM    4  C   UNL     1      17.228  48.791  48.729  1.00  0.00     0.173 C 
BRANCH   4   5
HETATM    5  C   UNL     1      16.363  48.464  47.553  1.00  0.00     0.000 A 
HETATM    6  S   UNL     1      16.887  47.333  46.373  1.00  0.00    -0.105 SA
HETATM    7  C   UNL     1      15.451  47.517  45.465  1.00  0.00     0.050 A 
HETATM    8  C   UNL     1      14.604  48.448  46.021  1.00  0.00     0.008 A 
HETATM    9  C   UNL     1      15.137  49.006  47.218  1.00  0.00     0.017 A 
ENDBRANCH   4   5
ENDBRANCH   2   4
BRANCH   2  10
HETATM   10  C   UNL     1      18.448  50.885  47.928  1.00  0.00     0.220 C 
BRANCH  10  11
HETATM   11  C   UNL     1      17.700  51.702  49.003  1.00  0.00     0.245 C 
HETATM   12  N   UNL     1      16.322  51.731  48.917  1.00  0.00    -0.357 N 
HETATM   13  H   UNL     1      15.896  51.455  48.037  1.00  0.00     0.162 HD
HETATM   14  O   UNL     1      18.316  52.120  49.989  1.00  0.00    -0.271 OA
BRANCH  12  15
HETATM   15  C   UNL     1      15.490  52.419  49.889  1.00  0.00     0.154 C 
BRANCH  15  16
HETATM   16  C   UNL     1      14.965  53.766  49.361  1.00  0.00     0.139 C 
HETATM   17  O   UNL     1      15.710  54.851  49.940  1.00  0.00    -0.384 OA
HETATM   18  C   UNL     1      14.950  55.411  51.022  1.00  0.00     0.168 C 
HETATM   19  C   UNL     1      13.661  54.622  51.135  1.00  0.00     0.029 C 
HETATM   20  C   UNL     1      13.520  54.017  49.760  1.00  0.00     0.035 C 
ENDBRANCH  15  16
ENDBRANCH  12  15
ENDBRANCH  10  11
BRANCH  10  21
HETATM   21  C   UNL     1      18.087  51.087  46.470  1.00  0.00     0.014 A 
HETATM   22  S   UNL     1      17.011  52.319  45.938  1.00  0.00    -0.104 SA
HETATM   23  C   UNL     1      17.269  51.950  44.292  1.00  0.00     0.050 A 
HETATM   24  C   UNL     1      18.193  50.945  44.130  1.00  0.00     0.008 A 
HETATM   25  C   UNL     1      18.680  50.468  45.378  1.00  0.00     0.017 A 
ENDBRANCH  10  21
ENDBRANCH   2  10
BRANCH   1  26
HETATM   26  C   UNL     1      20.937  49.380  48.502  1.00  0.00     0.101 C 
HETATM   27  N   UNL     1      22.181  48.791  48.374  1.00  0.00    -0.351 N 
HETATM   28  C   UNL     1      23.178  49.723  48.570  1.00  0.00     0.043 C 
HETATM   29  H   UNL     1      22.343  47.797  48.244  1.00  0.00     0.166 HD
HETATM   30  C   UNL     1      22.559  50.961  48.563  1.00  0.00     0.033 C 
HETATM   31  C   UNL     1      21.163  50.746  48.503  1.00  0.00     0.037 C 
BRANCH  28  32
HETATM   32  C   UNL     1      24.588  49.371  48.737  1.00  0.00    -0.009 A 
HETATM   33  C   UNL     1      25.593  50.172  48.181  1.00  0.00     0.013 A 
HETATM   34  C   UNL     1      26.942  49.876  48.394  1.00  0.00     0.001 A 
HETATM   35  C   UNL     1      27.300  48.778  49.174  1.00  0.00     0.000 A 
HETATM   36  C   UNL     1      26.311  47.972  49.732  1.00  0.00     0.001 A 
HETATM   37  C   UNL     1      24.963  48.263  49.512  1.00  0.00     0.013 A 
ENDBRANCH  28  32
ENDBRANCH   1  26
TORSDOF 9
ENDMDL
MODEL 4
REMARK VINA RESULT:      -7.8      7.119     10.518
REMARK  9 active torsions:
REMARK  status: ('A' for Active; 'I' for Inactive)
REMARK    1  A    between atoms: C_4  and  C_5 
REMARK    2  A    between atoms: C_8  and  C_9 
REMARK       I    between atoms: C_9  and  N_10 
REMARK    3  A    between atoms: N_10  and  C_26 
REMARK    4  A    between atoms: N_10  and  C_11 
REMARK    5  A    between atoms: C_11  and  C_12 
REMARK    6  A    between atoms: C_11  and  C_21 
REMARK       I    between atoms: C_12  and  N_13 
REMARK    7  A    between atoms: N_13  and  C_14 
REMARK    8  A    between atoms: C_14  and  C_15 
REMARK    9  A    between atoms: C_26  and  C_27 
ROOT
HETATM    1  C   UNL     1      20.019  49.606  49.598  1.00  0.00     0.271 C 
HETATM    2  N   UNL     1      19.051  49.169  48.687  1.00  0.00    -0.324 N 
HETATM    3  O   UNL     1      19.749  49.701  50.795  1.00  0.00    -0.266 OA
ENDROOT
BRANCH   2   4
HETATM    4  C   UNL     1      17.655  49.240  49.143  1.00  0.00     0.173 C 
BRANCH   4   5
HETATM    5  C   UNL     1      17.134  50.643  49.178  1.00  0.00     0.000 A 
HETATM    6  S   UNL     1      15.665  51.047  48.389  1.00  0.00    -0.105 SA
HETATM    7  C   UNL     1      15.779  52.682  48.873  1.00  0.00     0.050 A 
HETATM    8  C   UNL     1      16.930  52.930  49.586  1.00  0.00     0.008 A 
HETATM    9  C   UNL     1      17.720  51.756  49.749  1.00  0.00     0.017 A 
ENDBRANCH   4   5
ENDBRANCH   2   4
BRANCH   2  10
HETATM   10  C   UNL     1      19.341  48.769  47.286  1.00  0.00     0.220 C 
BRANCH  10  11
HETATM   11  C   UNL     1      18.163  49.198  46.387  1.00  0.00     0.245 C 
HETATM   12  N   UNL     1      18.269  50.427  45.765  1.00  0.00    -0.357 N 
HETATM   13  H   UNL     1      18.956  51.082  46.125  1.00  0.00     0.162 HD
HETATM   14  O   UNL     1      17.287  48.377  46.095  1.00  0.00    -0.271 OA
BRANCH  12  15
HETATM   15  C   UNL     1      17.257  50.934  44.854  1.00  0.00     0.154 C 
BRANCH  15  16
HETATM   16  C   UNL     1      17.263  52.471  44.769  1.00  0.00     0.139 C 
HETATM   17  O   UNL     1      16.105  53.010  45.431  1.00  0.00    -0.384 OA
HETATM   18  C   UNL     1      15.117  53.337  44.443  1.00  0.00     0.168 C 
HETATM   19  C   UNL     1      15.683  52.971  43.086  1.00  0.00     0.029 C 
HETATM   20  C   UNL     1      17.171  52.969  43.336  1.00  0.00     0.035 C 
ENDBRANCH  15  16
ENDBRANCH  12  15
ENDBRANCH  10  11
BRANCH  10  21
HETATM   21  C   UNL     1      19.886  47.360  47.159  1.00  0.00     0.014 A 
HETATM   22  S   UNL     1      19.633  46.152  48.357  1.00  0.00    -0.104 SA
HETATM   23  C   UNL     1      20.391  44.945  47.420  1.00  0.00     0.050 A 
HETATM   24  C   UNL     1      20.789  45.421  46.193  1.00  0.00     0.008 A 
HETATM   25  C   UNL     1      20.476  46.800  46.035  1.00  0.00     0.017 A 
ENDBRANCH  10  21
ENDBRANCH   2  10
BRANCH   1  26
HETATM   26  C   UNL     1      21.355  49.922  49.131  1.00  0.00     0.101 C 
HETATM   27  N   UNL     1      22.459  49.091  49.149  1.00  0.00    -0.351 N 
HETATM   28  C   UNL     1      23.589  49.782  48.762  1.00  0.00     0.043 C 
HETATM   29  H   UNL     1      22.461  48.133  49.486  1.00  0.00     0.166 HD
HETATM   30  C   UNL     1      23.148  50.988  48.246  1.00  0.00     0.033 C 
HETATM   31  C   UNL     1      21.753  51.067  48.461  1.00  0.00     0.037 C 
BRANCH  28  32
HETATM   32  C   UNL     1      24.945  49.254  48.908  1.00  0.00    -0.009 A 
HETATM   33  C   UNL     1      26.046  49.979  48.436  1.00  0.00     0.013 A 
HETATM   34  C   UNL     1      27.347  49.510  48.632  1.00  0.00     0.001 A 
HETATM   35  C   UNL     1      27.562  48.311  49.310  1.00  0.00     0.000 A 
HETATM   36  C   UNL     1      26.476  47.578  49.784  1.00  0.00     0.001 A 
HETATM   37  C   UNL     1      25.175  48.044  49.580  1.00  0.00     0.013 A 
ENDBRANCH  28  32
ENDBRANCH   1  26
TORSDOF 9
ENDMDL
MODEL 5
REMARK VINA RESULT:      -7.7      6.892     10.274
REMARK  9 active torsions:
REMARK  status: ('A' for Active; 'I' for Inactive)
REMARK    1  A    between atoms: C_4  and  C_5 
REMARK    2  A    between atoms: C_8  and  C_9 
REMARK       I    between atoms: C_9  and  N_10 
REMARK    3  A    between atoms: N_10  and  C_26 
REMARK    4  A    between atoms: N_10  and  C_11 
REMARK    5  A    between atoms: C_11  and  C_12 
REMARK    6  A    between atoms: C_11  and  C_21 
REMARK       I    between atoms: C_12  and  N_13 
REMARK    7  A    between atoms: N_13  and  C_14 
REMARK    8  A    between atoms: C_14  and  C_15 
REMARK    9  A    between atoms: C_26  and  C_27 
ROOT
HETATM    1  C   UNL     1      19.988  49.668  49.663  1.00  0.00     0.271 C 
HETATM    2  N   UNL     1      18.985  49.254  48.780  1.00  0.00    -0.324 N 
HETATM    3  O   UNL     1      19.748  49.792  50.864  1.00  0.00    -0.266 OA
ENDROOT
BRANCH   2   4
HETATM    4  C   UNL     1      17.602  49.385  49.265  1.00  0.00     0.173 C 
BRANCH   4   5
HETATM    5  C   UNL     1      17.150  50.810  49.330  1.00  0.00     0.000 A 
HETATM    6  S   UNL     1      15.609  51.264  48.728  1.00  0.00    -0.105 SA
HETATM    7  C   UNL     1      15.855  52.902  49.149  1.00  0.00     0.050 A 
HETATM    8  C   UNL     1      17.098  53.112  49.699  1.00  0.00     0.008 A 
HETATM    9  C   UNL     1      17.852  51.908  49.790  1.00  0.00     0.017 A 
ENDBRANCH   4   5
ENDBRANCH   2   4
BRANCH   2  10
HETATM   10  C   UNL     1      19.228  48.821  47.380  1.00  0.00     0.220 C 
BRANCH  10  11
HETATM   11  C   UNL     1      18.254  49.569  46.446  1.00  0.00     0.245 C 
HETATM   12  N   UNL     1      17.097  48.903  46.091  1.00  0.00    -0.357 N 
HETATM   13  H   UNL     1      17.066  47.898  46.229  1.00  0.00     0.162 HD
HETATM   14  O   UNL     1      18.429  50.769  46.217  1.00  0.00    -0.271 OA
BRANCH  12  15
HETATM   15  C   UNL     1      16.070  49.506  45.258  1.00  0.00     0.154 C 
BRANCH  15  16
HETATM   16  C   UNL     1      14.699  49.546  45.956  1.00  0.00     0.139 C 
HETATM   17  O   UNL     1      14.329  48.229  46.401  1.00  0.00    -0.384 OA
HETATM   18  C   UNL     1      13.409  47.662  45.458  1.00  0.00     0.168 C 
HETATM   19  C   UNL     1      13.200  48.676  44.352  1.00  0.00     0.029 C 
HETATM   20  C   UNL     1      13.585  49.976  45.014  1.00  0.00     0.035 C 
ENDBRANCH  15  16
ENDBRANCH  12  15
ENDBRANCH  10  11
BRANCH  10  21
HETATM   21  C   UNL     1      19.384  47.320  47.229  1.00  0.00     0.014 A 
HETATM   22  S   UNL     1      19.930  46.582  45.775  1.00  0.00    -0.104 SA
HETATM   23  C   UNL     1      19.948  45.025  46.473  1.00  0.00     0.050 A 
HETATM   24  C   UNL     1      19.598  45.055  47.802  1.00  0.00     0.008 A 
HETATM   25  C   UNL     1      19.299  46.374  48.241  1.00  0.00     0.017 A 
ENDBRANCH  10  21
ENDBRANCH   2  10
BRANCH   1  26
HETATM   26  C   UNL     1      21.324  49.925  49.162  1.00  0.00     0.101 C 
HETATM   27  N   UNL     1      22.414  49.079  49.230  1.00  0.00    -0.351 N 
HETATM   28  C   UNL     1      23.551  49.720  48.784  1.00  0.00     0.043 C 
HETATM   29  H   UNL     1      22.403  48.147  49.635  1.00  0.00     0.166 HD
HETATM   30  C   UNL     1      23.126  50.892  48.186  1.00  0.00     0.033 C 
HETATM   31  C   UNL     1      21.734  51.011  48.407  1.00  0.00     0.037 C 
BRANCH  28  32
HETATM   32  C   UNL     1      24.900  49.179  48.955  1.00  0.00    -0.009 A 
HETATM   33  C   UNL     1      26.014  49.882  48.480  1.00  0.00     0.013 A 
HETATM   34  C   UNL     1      27.308  49.402  48.699  1.00  0.00     0.001 A 
HETATM   35  C   UNL     1      27.502  48.216  49.405  1.00  0.00     0.000 A 
HETATM   36  C   UNL     1      26.402  47.506  49.882  1.00  0.00     0.001 A 
HETATM   37  C   UNL     1      25.109  47.982  49.655  1.00  0.00     0.013 A 
ENDBRANCH  28  32
ENDBRANCH   1  26
TORSDOF 9
ENDMDL
MODEL 6
REMARK VINA RESULT:      -7.7      2.326      5.137
REMARK  9 active torsions:
REMARK  status: ('A' for Active; 'I' for Inactive)
REMARK    1  A    between atoms: C_4  and  C_5 
REMARK    2  A    between atoms: C_8  and  C_9 
REMARK       I    between atoms: C_9  and  N_10 
REMARK    3  A    between atoms: N_10  and  C_26 
REMARK    4  A    between atoms: N_10  and  C_11 
REMARK    5  A    between atoms: C_11  and  C_12 
REMARK    6  A    between atoms: C_11  and  C_21 
REMARK       I    between atoms: C_12  and  N_13 
REMARK    7  A    between atoms: N_13  and  C_14 
REMARK    8  A    between atoms: C_14  and  C_15 
REMARK    9  A    between atoms: C_26  and  C_27 
ROOT
HETATM    1  C   UNL     1      27.953  43.129  51.340  1.00  0.00     0.271 C 
HETATM    2  N   UNL     1      26.900  43.458  50.479  1.00  0.00    -0.324 N 
HETATM    3  O   UNL     1      28.921  42.491  50.924  1.00  0.00    -0.266 OA
ENDROOT
BRANCH   2   4
HETATM    4  C   UNL     1      26.813  42.676  49.236  1.00  0.00     0.173 C 
BRANCH   4   5
HETATM    5  C   UNL     1      26.862  41.201  49.481  1.00  0.00     0.000 A 
HETATM    6  S   UNL     1      27.933  40.204  48.585  1.00  0.00    -0.105 SA
HETATM    7  C   UNL     1      27.413  38.797  49.405  1.00  0.00     0.050 A 
HETATM    8  C   UNL     1      26.417  39.069  50.314  1.00  0.00     0.008 A 
HETATM    9  C   UNL     1      26.087  40.454  50.347  1.00  0.00     0.017 A 
ENDBRANCH   4   5
ENDBRANCH   2   4
BRANCH   2  10
HETATM   10  C   UNL     1      25.829  44.435  50.802  1.00  0.00     0.220 C 
BRANCH  10  11
HETATM   11  C   UNL     1      24.456  43.780  50.545  1.00  0.00     0.245 C 
HETATM   12  N   UNL     1      23.894  43.980  49.299  1.00  0.00    -0.357 N 
HETATM   13  H   UNL     1      24.259  44.738  48.730  1.00  0.00     0.162 HD
HETATM   14  O   UNL     1      24.011  42.958  51.352  1.00  0.00    -0.271 OA
BRANCH  12  15
HETATM   15  C   UNL     1      22.630  43.382  48.904  1.00  0.00     0.154 C 
BRANCH  15  16
HETATM   16  C   UNL     1      22.647  42.887  47.447  1.00  0.00     0.139 C 
HETATM   17  O   UNL     1      21.615  41.905  47.244  1.00  0.00    -0.384 OA
HETATM   18  C   UNL     1      22.203  40.597  47.297  1.00  0.00     0.168 C 
HETATM   19  C   UNL     1      23.685  40.768  47.561  1.00  0.00     0.029 C 
HETATM   20  C   UNL     1      23.945  42.179  47.095  1.00  0.00     0.035 C 
ENDBRANCH  15  16
ENDBRANCH  12  15
ENDBRANCH  10  11
BRANCH  10  21
HETATM   21  C   UNL     1      26.093  45.825  50.257  1.00  0.00     0.014 A 
HETATM   22  S   UNL     1      25.086  47.173  50.612  1.00  0.00    -0.104 SA
HETATM   23  C   UNL     1      26.108  48.261  49.787  1.00  0.00     0.050 A 
HETATM   24  C   UNL     1      27.227  47.637  49.289  1.00  0.00     0.008 A 
HETATM   25  C   UNL     1      27.230  46.245  49.580  1.00  0.00     0.017 A 
ENDBRANCH  10  21
ENDBRANCH   2  10
BRANCH   1  26
HETATM   26  C   UNL     1      27.914  43.566  52.722  1.00  0.00     0.101 C 
HETATM   27  N   UNL     1      28.983  43.988  53.490  1.00  0.00    -0.351 N 
HETATM   28  C   UNL     1      28.589  44.183  54.798  1.00  0.00     0.043 C 
HETATM   29  H   UNL     1      29.942  44.058  53.164  1.00  0.00     0.166 HD
HETATM   30  C   UNL     1      27.207  44.134  54.798  1.00  0.00     0.033 C 
HETATM   31  C   UNL     1      26.786  43.767  53.499  1.00  0.00     0.037 C 
BRANCH  28  32
HETATM   32  C   UNL     1      29.530  44.395  55.898  1.00  0.00    -0.009 A 
HETATM   33  C   UNL     1      30.582  43.497  56.119  1.00  0.00     0.013 A 
HETATM   34  C   UNL     1      31.520  43.730  57.127  1.00  0.00     0.001 A 
HETATM   35  C   UNL     1      31.421  44.871  57.922  1.00  0.00     0.000 A 
HETATM   36  C   UNL     1      30.379  45.772  57.715  1.00  0.00     0.001 A 
HETATM   37  C   UNL     1      29.436  45.533  56.712  1.00  0.00     0.013 A 
ENDBRANCH  28  32
ENDBRANCH   1  26
TORSDOF 9
ENDMDL
MODEL 7
REMARK VINA RESULT:      -7.7     10.820     12.982
REMARK  9 active torsions:
REMARK  status: ('A' for Active; 'I' for Inactive)
REMARK    1  A    between atoms: C_4  and  C_5 
REMARK    2  A    between atoms: C_8  and  C_9 
REMARK       I    between atoms: C_9  and  N_10 
REMARK    3  A    between atoms: N_10  and  C_26 
REMARK    4  A    between atoms: N_10  and  C_11 
REMARK    5  A    between atoms: C_11  and  C_12 
REMARK    6  A    between atoms: C_11  and  C_21 
REMARK       I    between atoms: C_12  and  N_13 
REMARK    7  A    between atoms: N_13  and  C_14 
REMARK    8  A    between atoms: C_14  and  C_15 
REMARK    9  A    between atoms: C_26  and  C_27 
ROOT
HETATM    1  C   UNL     1      29.645  48.292  39.324  1.00  0.00     0.271 C 
HETATM    2  N   UNL     1      28.313  48.586  39.010  1.00  0.00    -0.324 N 
HETATM    3  O   UNL     1      30.357  47.696  38.515  1.00  0.00    -0.266 OA
ENDROOT
BRANCH   2   4
HETATM    4  C   UNL     1      27.722  47.812  37.908  1.00  0.00     0.173 C 
BRANCH   4   5
HETATM    5  C   UNL     1      27.676  46.344  38.198  1.00  0.00     0.000 A 
HETATM    6  S   UNL     1      28.122  45.204  36.996  1.00  0.00    -0.105 SA
HETATM    7  C   UNL     1      27.821  43.886  38.041  1.00  0.00     0.050 A 
HETATM    8  C   UNL     1      27.351  44.297  39.267  1.00  0.00     0.008 A 
HETATM    9  C   UNL     1      27.253  45.716  39.353  1.00  0.00     0.017 A 
ENDBRANCH   4   5
ENDBRANCH   2   4
BRANCH   2  10
HETATM   10  C   UNL     1      27.456  49.518  39.788  1.00  0.00     0.220 C 
BRANCH  10  11
HETATM   11  C   UNL     1      25.975  49.201  39.496  1.00  0.00     0.245 C 
HETATM   12  N   UNL     1      25.331  48.361  40.382  1.00  0.00    -0.357 N 
HETATM   13  H   UNL     1      25.904  47.797  41.003  1.00  0.00     0.162 HD
HETATM   14  O   UNL     1      25.374  49.844  38.629  1.00  0.00    -0.271 OA
BRANCH  12  15
HETATM   15  C   UNL     1      23.925  48.017  40.256  1.00  0.00     0.154 C 
BRANCH  15  16
HETATM   16  C   UNL     1      23.700  46.498  40.148  1.00  0.00     0.139 C 
HETATM   17  O   UNL     1      22.335  46.222  39.790  1.00  0.00    -0.384 OA
HETATM   18  C   UNL     1      21.609  45.863  40.975  1.00  0.00     0.168 C 
HETATM   19  C   UNL     1      22.571  45.930  42.143  1.00  0.00     0.029 C 
HETATM   20  C   UNL     1      23.916  45.789  41.475  1.00  0.00     0.035 C 
ENDBRANCH  15  16
ENDBRANCH  12  15
ENDBRANCH  10  11
BRANCH  10  21
HETATM   21  C   UNL     1      27.924  50.959  39.732  1.00  0.00     0.014 A 
HETATM   22  S   UNL     1      28.141  51.924  41.139  1.00  0.00    -0.104 SA
HETATM   23  C   UNL     1      28.768  53.234  40.247  1.00  0.00     0.050 A 
HETATM   24  C   UNL     1      28.868  52.943  38.907  1.00  0.00     0.008 A 
HETATM   25  C   UNL     1      28.407  51.629  38.616  1.00  0.00     0.017 A 
ENDBRANCH  10  21
ENDBRANCH   2  10
BRANCH   1  26
HETATM   26  C   UNL     1      30.194  48.716  40.597  1.00  0.00     0.101 C 
HETATM   27  N   UNL     1      31.113  49.726  40.810  1.00  0.00    -0.351 N 
HETATM   28  C   UNL     1      31.511  49.743  42.131  1.00  0.00     0.043 C 
HETATM   29  H   UNL     1      31.509  50.315  40.084  1.00  0.00     0.166 HD
HETATM   30  C   UNL     1      30.643  48.907  42.809  1.00  0.00     0.033 C 
HETATM   31  C   UNL     1      29.810  48.280  41.855  1.00  0.00     0.037 C 
BRANCH  28  32
HETATM   32  C   UNL     1      32.644  50.530  42.619  1.00  0.00    -0.009 A 
HETATM   33  C   UNL     1      32.530  51.293  43.788  1.00  0.00     0.013 A 
HETATM   34  C   UNL     1      33.628  51.993  44.294  1.00  0.00     0.001 A 
HETATM   35  C   UNL     1      34.857  51.931  43.639  1.00  0.00     0.000 A 
HETATM   36  C   UNL     1      34.984  51.178  42.474  1.00  0.00     0.001 A 
HETATM   37  C   UNL     1      33.884  50.485  41.964  1.00  0.00     0.013 A 
ENDBRANCH  28  32
ENDBRANCH   1  26
TORSDOF 9
ENDMDL
MODEL 8
REMARK VINA RESULT:      -7.6      2.772      6.215
REMARK  9 active torsions:
REMARK  status: ('A' for Active; 'I' for Inactive)
REMARK    1  A    between atoms: C_4  and  C_5 
REMARK    2  A    between atoms: C_8  and  C_9 
REMARK       I    between atoms: C_9  and  N_10 
REMARK    3  A    between atoms: N_10  and  C_26 
REMARK    4  A    between atoms: N_10  and  C_11 
REMARK    5  A    between atoms: C_11  and  C_12 
REMARK    6  A    between atoms: C_11  and  C_21 
REMARK       I    between atoms: C_12  and  N_13 
REMARK    7  A    between atoms: N_13  and  C_14 
REMARK    8  A    between atoms: C_14  and  C_15 
REMARK    9  A    between atoms: C_26  and  C_27 
ROOT
HETATM    1  C   UNL     1      24.488  43.157  50.633  1.00  0.00     0.271 C 
HETATM    2  N   UNL     1      25.467  42.285  50.144  1.00  0.00    -0.324 N 
HETATM    3  O   UNL     1      23.346  42.752  50.849  1.00  0.00    -0.266 OA
ENDROOT
BRANCH   2   4
HETATM    4  C   UNL     1      24.977  41.041  49.530  1.00  0.00     0.173 C 
BRANCH   4   5
HETATM    5  C   UNL     1      24.318  41.276  48.207  1.00  0.00     0.000 A 
HETATM    6  S   UNL     1      23.673  39.963  47.309  1.00  0.00    -0.105 SA
HETATM    7  C   UNL     1      23.150  40.995  46.051  1.00  0.00     0.050 A 
HETATM    8  C   UNL     1      23.491  42.308  46.285  1.00  0.00     0.008 A 
HETATM    9  C   UNL     1      24.179  42.468  47.522  1.00  0.00     0.017 A 
ENDBRANCH   4   5
ENDBRANCH   2   4
BRANCH   2  10
HETATM   10  C   UNL     1      26.919  42.595  50.100  1.00  0.00     0.220 C 
BRANCH  10  11
HETATM   11  C   UNL     1      27.597  41.684  49.056  1.00  0.00     0.245 C 
HETATM   12  N   UNL     1      27.996  40.433  49.486  1.00  0.00    -0.357 N 
HETATM   13  H   UNL     1      28.070  40.277  50.487  1.00  0.00     0.162 HD
HETATM   14  O   UNL     1      27.581  42.005  47.864  1.00  0.00    -0.271 OA
BRANCH  12  15
HETATM   15  C   UNL     1      28.602  39.455  48.598  1.00  0.00     0.154 C 
BRANCH  15  16
HETATM   16  C   UNL     1      27.564  38.496  47.988  1.00  0.00     0.139 C 
HETATM   17  O   UNL     1      28.121  37.176  47.863  1.00  0.00    -0.384 OA
HETATM   18  C   UNL     1      28.543  36.977  46.506  1.00  0.00     0.168 C 
HETATM   19  C   UNL     1      28.246  38.250  45.740  1.00  0.00     0.029 C 
HETATM   20  C   UNL     1      27.169  38.898  46.576  1.00  0.00     0.035 C 
ENDBRANCH  15  16
ENDBRANCH  12  15
ENDBRANCH  10  11
BRANCH  10  21
HETATM   21  C   UNL     1      27.549  42.736  51.472  1.00  0.00     0.014 A 
HETATM   22  S   UNL     1      27.513  41.480  52.647  1.00  0.00    -0.104 SA
HETATM   23  C   UNL     1      28.493  42.355  53.735  1.00  0.00     0.050 A 
HETATM   24  C   UNL     1      28.893  43.561  53.210  1.00  0.00     0.008 A 
HETATM   25  C   UNL     1      28.372  43.767  51.903  1.00  0.00     0.017 A 
ENDBRANCH  10  21
ENDBRANCH   2  10
BRANCH   1  26
HETATM   26  C   UNL     1      24.832  44.538  50.911  1.00  0.00     0.101 C 
HETATM   27  N   UNL     1      24.898  45.576  50.001  1.00  0.00    -0.351 N 
HETATM   28  C   UNL     1      25.400  46.712  50.602  1.00  0.00     0.043 C 
HETATM   29  H   UNL     1      24.694  45.495  49.009  1.00  0.00     0.166 HD
HETATM   30  C   UNL     1      25.405  46.461  51.962  1.00  0.00     0.033 C 
HETATM   31  C   UNL     1      25.034  45.111  52.155  1.00  0.00     0.037 C 
BRANCH  28  32
HETATM   32  C   UNL     1      25.816  47.900  49.856  1.00  0.00    -0.009 A 
HETATM   33  C   UNL     1      27.172  48.227  49.736  1.00  0.00     0.013 A 
HETATM   34  C   UNL     1      27.577  49.323  48.970  1.00  0.00     0.001 A 
HETATM   35  C   UNL     1      26.628  50.101  48.309  1.00  0.00     0.000 A 
HETATM   36  C   UNL     1      25.275  49.789  48.421  1.00  0.00     0.001 A 
HETATM   37  C   UNL     1      24.871  48.697  49.194  1.00  0.00     0.013 A 
ENDBRANCH  28  32
ENDBRANCH   1  26
TORSDOF 9
ENDMDL
MODEL 9
REMARK VINA RESULT:      -7.6      2.369      5.914
REMARK  9 active torsions:
REMARK  status: ('A' for Active; 'I' for Inactive)
REMARK    1  A    between atoms: C_4  and  C_5 
REMARK    2  A    between atoms: C_8  and  C_9 
REMARK       I    between atoms: C_9  and  N_10 
REMARK    3  A    between atoms: N_10  and  C_26 
REMARK    4  A    between atoms: N_10  and  C_11 
REMARK    5  A    between atoms: C_11  and  C_12 
REMARK    6  A    between atoms: C_11  and  C_21 
REMARK       I    between atoms: C_12  and  N_13 
REMARK    7  A    between atoms: N_13  and  C_14 
REMARK    8  A    between atoms: C_14  and  C_15 
REMARK    9  A    between atoms: C_26  and  C_27 
ROOT
HETATM    1  C   UNL     1      26.836  42.829  50.002  1.00  0.00     0.271 C 
HETATM    2  N   UNL     1      25.503  43.215  49.827  1.00  0.00    -0.324 N 
HETATM    3  O   UNL     1      27.591  42.745  49.033  1.00  0.00    -0.266 OA
ENDROOT
BRANCH   2   4
HETATM    4  C   UNL     1      24.969  43.101  48.461  1.00  0.00     0.173 C 
BRANCH   4   5
HETATM    5  C   UNL     1      24.950  41.688  47.970  1.00  0.00     0.000 A 
HETATM    6  S   UNL     1      24.402  41.323  46.385  1.00  0.00    -0.105 SA
HETATM    7  C   UNL     1      24.681  39.651  46.603  1.00  0.00     0.050 A 
HETATM    8  C   UNL     1      25.143  39.366  47.867  1.00  0.00     0.008 A 
HETATM    9  C   UNL     1      25.283  40.539  48.662  1.00  0.00     0.017 A 
ENDBRANCH   4   5
ENDBRANCH   2   4
BRANCH   2  10
HETATM   10  C   UNL     1      24.591  43.602  50.935  1.00  0.00     0.220 C 
BRANCH  10  11
HETATM   11  C   UNL     1      23.142  43.629  50.408  1.00  0.00     0.245 C 
HETATM   12  N   UNL     1      22.756  44.751  49.702  1.00  0.00    -0.357 N 
HETATM   13  H   UNL     1      23.327  45.586  49.790  1.00  0.00     0.162 HD
HETATM   14  O   UNL     1      22.458  42.601  50.453  1.00  0.00    -0.271 OA
BRANCH  12  15
HETATM   15  C   UNL     1      21.438  44.888  49.107  1.00  0.00     0.154 C 
BRANCH  15  16
HETATM   16  C   UNL     1      21.436  45.843  47.900  1.00  0.00     0.139 C 
HETATM   17  O   UNL     1      22.488  46.815  48.035  1.00  0.00    -0.384 OA
HETATM   18  C   UNL     1      21.926  48.042  48.525  1.00  0.00     0.168 C 
HETATM   19  C   UNL     1      20.440  47.822  48.721  1.00  0.00     0.029 C 
HETATM   20  C   UNL     1      20.153  46.654  47.809  1.00  0.00     0.035 C 
ENDBRANCH  15  16
ENDBRANCH  12  15
ENDBRANCH  10  11
BRANCH  10  21
HETATM   21  C   UNL     1      25.097  44.774  51.753  1.00  0.00     0.014 A 
HETATM   22  S   UNL     1      25.549  46.277  51.048  1.00  0.00    -0.104 SA
HETATM   23  C   UNL     1      25.826  47.002  52.567  1.00  0.00     0.050 A 
HETATM   24  C   UNL     1      25.536  46.148  53.605  1.00  0.00     0.008 A 
HETATM   25  C   UNL     1      25.094  44.879  53.137  1.00  0.00     0.017 A 
ENDBRANCH  10  21
ENDBRANCH   2  10
BRANCH   1  26
HETATM   26  C   UNL     1      27.336  42.555  51.335  1.00  0.00     0.101 C 
HETATM   27  N   UNL     1      27.853  43.470  52.233  1.00  0.00    -0.351 N 
HETATM   28  C   UNL     1      28.364  42.823  53.339  1.00  0.00     0.043 C 
HETATM   29  H   UNL     1      27.930  44.468  52.066  1.00  0.00     0.166 HD
HETATM   30  C   UNL     1      27.931  41.512  53.255  1.00  0.00     0.033 C 
HETATM   31  C   UNL     1      27.276  41.349  52.014  1.00  0.00     0.037 C 
BRANCH  28  32
HETATM   32  C   UNL     1      29.189  43.486  54.349  1.00  0.00    -0.009 A 
HETATM   33  C   UNL     1      28.836  44.749  54.839  1.00  0.00     0.013 A 
HETATM   34  C   UNL     1      29.584  45.357  55.851  1.00  0.00     0.001 A 
HETATM   35  C   UNL     1      30.691  44.703  56.390  1.00  0.00     0.000 A 
HETATM   36  C   UNL     1      31.054  43.446  55.910  1.00  0.00     0.001 A 
HETATM   37  C   UNL     1      30.311  42.843  54.893  1.00  0.00     0.013 A 
ENDBRANCH  28  32
ENDBRANCH   1  26
TORSDOF 9
ENDMDL
MODEL 10
REMARK VINA RESULT:      -7.6      8.893     12.767
REMARK  9 active torsions:
REMARK  status: ('A' for Active; 'I' for Inactive)
REMARK    1  A    between atoms: C_4  and  C_5 
REMARK    2  A    between atoms: C_8  and  C_9 
REMARK       I    between atoms: C_9  and  N_10 
REMARK    3  A    between atoms: N_10  and  C_26 
REMARK    4  A    between atoms: N_10  and  C_11 
REMARK    5  A    between atoms: C_11  and  C_12 
REMARK    6  A    between atoms: C_11  and  C_21 
REMARK       I    between atoms: C_12  and  N_13 
REMARK    7  A    between atoms: N_13  and  C_14 
REMARK    8  A    between atoms: C_14  and  C_15 
REMARK    9  A    between atoms: C_26  and  C_27 
ROOT
HETATM    1  C   UNL     1      17.596  48.857  48.627  1.00  0.00     0.271 C 
HETATM    2  N   UNL     1      16.618  49.625  47.985  1.00  0.00    -0.324 N 
HETATM    3  O   UNL     1      17.433  47.647  48.786  1.00  0.00    -0.266 OA
ENDROOT
BRANCH   2   4
HETATM    4  C   UNL     1      15.277  49.026  47.902  1.00  0.00     0.173 C 
BRANCH   4   5
HETATM    5  C   UNL     1      14.923  48.602  46.512  1.00  0.00     0.000 A 
HETATM    6  S   UNL     1      15.971  47.577  45.620  1.00  0.00    -0.105 SA
HETATM    7  C   UNL     1      14.925  47.574  44.268  1.00  0.00     0.050 A 
HETATM    8  C   UNL     1      13.819  48.368  44.470  1.00  0.00     0.008 A 
HETATM    9  C   UNL     1      13.826  48.974  45.759  1.00  0.00     0.017 A 
ENDBRANCH   4   5
ENDBRANCH   2   4
BRANCH   2  10
HETATM   10  C   UNL     1      16.824  51.018  47.511  1.00  0.00     0.220 C 
BRANCH  10  11
HETATM   11  C   UNL     1      15.708  51.915  48.085  1.00  0.00     0.245 C 
HETATM   12  N   UNL     1      15.624  52.001  49.461  1.00  0.00    -0.357 N 
HETATM   13  H   UNL     1      16.099  51.292  50.010  1.00  0.00     0.162 HD
HETATM   14  O   UNL     1      15.078  52.662  47.330  1.00  0.00    -0.271 OA
BRANCH  12  15
HETATM   15  C   UNL     1      14.653  52.846  50.135  1.00  0.00     0.154 C 
BRANCH  15  16
HETATM   16  C   UNL     1      15.305  54.074  50.795  1.00  0.00     0.139 C 
HETATM   17  O   UNL     1      14.585  54.439  51.985  1.00  0.00    -0.384 OA
HETATM   18  C   UNL     1      13.713  55.538  51.682  1.00  0.00     0.168 C 
HETATM   19  C   UNL     1      13.887  55.873  50.215  1.00  0.00     0.029 C 
HETATM   20  C   UNL     1      15.250  55.305  49.903  1.00  0.00     0.035 C 
ENDBRANCH  15  16
ENDBRANCH  12  15
ENDBRANCH  10  11
BRANCH  10  21
HETATM   21  C   UNL     1      17.155  51.111  46.034  1.00  0.00     0.014 A 
HETATM   22  S   UNL     1      18.611  50.487  45.364  1.00  0.00    -0.104 SA
HETATM   23  C   UNL     1      18.134  50.856  43.769  1.00  0.00     0.050 A 
HETATM   24  C   UNL     1      16.871  51.396  43.722  1.00  0.00     0.008 A 
HETATM   25  C   UNL     1      16.300  51.519  45.020  1.00  0.00     0.017 A 
ENDBRANCH  10  21
ENDBRANCH   2  10
BRANCH   1  26
HETATM   26  C   UNL     1      18.820  49.488  49.083  1.00  0.00     0.101 C 
HETATM   27  N   UNL     1      20.060  49.431  48.475  1.00  0.00    -0.351 N 
HETATM   28  C   UNL     1      21.015  50.026  49.272  1.00  0.00     0.043 C 
HETATM   29  H   UNL     1      20.261  48.942  47.608  1.00  0.00     0.166 HD
HETATM   30  C   UNL     1      20.326  50.694  50.269  1.00  0.00     0.033 C 
HETATM   31  C   UNL     1      18.956  50.372  50.140  1.00  0.00     0.037 C 
BRANCH  28  32
HETATM   32  C   UNL     1      22.452  49.917  49.024  1.00  0.00    -0.009 A 
HETATM   33  C   UNL     1      23.169  48.801  49.473  1.00  0.00     0.013 A 
HETATM   34  C   UNL     1      24.528  48.661  49.181  1.00  0.00     0.001 A 
HETATM   35  C   UNL     1      25.185  49.633  48.429  1.00  0.00     0.000 A 
HETATM   36  C   UNL     1      24.484  50.750  47.977  1.00  0.00     0.001 A 
HETATM   37  C   UNL     1      23.127  50.893  48.277  1.00  0.00     0.013 A 
ENDBRANCH  28  32
ENDBRANCH   1  26
TORSDOF 9
ENDMDL
