MODEL 1
REMARK VINA RESULT:      -9.8      0.000      0.000
REMARK  5 active torsions:
REMARK  status: ('A' for Active; 'I' for Inactive)
REMARK    1  A    between atoms: C_6  and  C_7 
REMARK       I    between atoms: C_7  and  N_8 
REMARK    2  A    between atoms: N_8  and  C_9 
REMARK    3  A    between atoms: C_20  and  C_21 
REMARK    4  A    between atoms: C_22  and  C_23 
REMARK    5  A    between atoms: C_26  and  O_27 
ROOT
HETATM    1  C   UNL     1      25.528  37.584  46.464  1.00  0.00     0.118 C 
HETATM    2  C   UNL     1      26.614  38.043  47.464  1.00  0.00     0.202 C 
HETATM    3  N   UNL     1      26.983  39.383  47.054  1.00  0.00    -0.332 N 
HETATM    4  C   UNL     1      27.687  40.271  47.824  1.00  0.00     0.257 C 
HETATM    5  O   UNL     1      27.887  41.434  47.484  1.00  0.00    -0.267 OA
HETATM    6  C   UNL     1      28.222  39.791  49.127  1.00  0.00     0.059 A 
HETATM    7  C   UNL     1      28.842  38.540  49.301  1.00  0.00     0.050 A 
HETATM    8  N   UNL     1      28.863  37.503  48.347  1.00  0.00    -0.324 N 
HETATM    9  C   UNL     1      27.898  37.212  47.409  1.00  0.00     0.247 C 
HETATM   10  O   UNL     1      28.091  36.292  46.614  1.00  0.00    -0.271 OA
HETATM   11  C   UNL     1      28.199  40.715  50.185  1.00  0.00     0.030 A 
HETATM   12  C   UNL     1      28.770  40.405  51.423  1.00  0.00    -0.035 A 
HETATM   13  C   UNL     1      29.460  39.198  51.561  1.00  0.00     0.013 A 
HETATM   14  C   UNL     1      29.505  38.280  50.506  1.00  0.00     0.031 A 
HETATM   15  C   UNL     1      26.574  39.651  45.698  1.00  0.00     0.129 C 
HETATM   16  C   UNL     1      25.353  38.774  45.500  1.00  0.00     0.047 C 
HETATM   17  H   UNL     1      29.563  36.776  48.430  1.00  0.00     0.169 HD
ENDROOT
BRANCH   1  18
HETATM   18  N   UNL     1      24.241  37.286  47.108  1.00  0.00    -0.350 N 
HETATM   19  C   UNL     1      23.514  36.162  46.770  1.00  0.00     0.252 C 
HETATM   20  O   UNL     1      23.898  35.335  45.952  1.00  0.00    -0.268 OA
HETATM   21  H   UNL     1      23.745  38.054  47.541  1.00  0.00     0.163 HD
BRANCH  19  22
HETATM   22  C   UNL     1      22.216  35.978  47.471  1.00  0.00     0.035 A 
HETATM   23  C   UNL     1      22.067  35.042  48.502  1.00  0.00     0.059 A 
HETATM   24  C   UNL     1      20.821  34.880  49.097  1.00  0.00     0.117 A 
HETATM   25  C   UNL     1      19.720  35.624  48.685  1.00  0.00     0.042 A 
HETATM   26  F   UNL     1      20.676  33.981  50.079  1.00  0.00    -0.206 F 
HETATM   27  C   UNL     1      19.862  36.546  47.649  1.00  0.00     0.004 A 
HETATM   28  C   UNL     1      21.107  36.719  47.039  1.00  0.00     0.017 A 
ENDBRANCH  19  22
ENDBRANCH   1  18
BRANCH  12  29
HETATM   29  C   UNL     1      28.685  41.318  52.569  1.00  0.00     0.012 C 
HETATM   30  C   UNL     1      29.638  42.228  52.830  1.00  0.00     0.012 C 
BRANCH  30  31
HETATM   31  C   UNL     1      29.579  43.197  53.931  1.00  0.00    -0.036 A 
HETATM   32  C   UNL     1      30.627  43.228  54.861  1.00  0.00     0.014 A 
HETATM   33  C   UNL     1      30.639  44.170  55.893  1.00  0.00     0.037 A 
HETATM   34  C   UNL     1      29.603  45.092  55.987  1.00  0.00     0.065 A 
HETATM   35  C   UNL     1      28.561  45.086  55.068  1.00  0.00     0.037 A 
HETATM   36  C   UNL     1      28.551  44.143  54.038  1.00  0.00     0.014 A 
BRANCH  34  37
HETATM   37  O   UNL     1      29.576  46.033  56.973  1.00  0.00    -0.361 OA
HETATM   38  H   UNL     1      29.395  45.591  57.818  1.00  0.00     0.217 HD
ENDBRANCH  34  37
ENDBRANCH  30  31
ENDBRANCH  12  29
TORSDOF 5
ENDMDL
MODEL 2
REMARK VINA RESULT:      -9.5      6.459      8.178
REMARK  5 active torsions:
REMARK  status: ('A' for Active; 'I' for Inactive)
REMARK    1  A    between atoms: C_6  and  C_7 
REMARK       I    between atoms: C_7  and  N_8 
REMARK    2  A    between atoms: N_8  and  C_9 
REMARK    3  A    between atoms: C_20  and  C_21 
REMARK    4  A    between atoms: C_22  and  C_23 
REMARK    5  A    between atoms: C_26  and  O_27 
ROOT
HETATM    1  C   UNL     1      22.783  44.440  46.286  1.00  0.00     0.118 C 
HETATM    2  C   UNL     1      23.302  44.917  47.662  1.00  0.00     0.202 C 
HETATM    3  N   UNL     1      22.774  43.976  48.628  1.00  0.00    -0.332 N 
HETATM    4  C   UNL     1      23.218  43.846  49.917  1.00  0.00     0.257 C 
HETATM    5  O   UNL     1      22.819  42.964  50.673  1.00  0.00    -0.267 OA
HETATM    6  C   UNL     1      24.231  44.820  50.406  1.00  0.00     0.059 A 
HETATM    7  C   UNL     1      24.171  46.202  50.148  1.00  0.00     0.050 A 
HETATM    8  N   UNL     1      23.286  46.822  49.244  1.00  0.00    -0.324 N 
HETATM    9  C   UNL     1      22.778  46.294  48.078  1.00  0.00     0.247 C 
HETATM   10  O   UNL     1      21.976  46.955  47.418  1.00  0.00    -0.271 OA
HETATM   11  C   UNL     1      25.214  44.311  51.272  1.00  0.00     0.030 A 
HETATM   12  C   UNL     1      26.152  45.157  51.872  1.00  0.00    -0.035 A 
HETATM   13  C   UNL     1      26.031  46.536  51.681  1.00  0.00     0.013 A 
HETATM   14  C   UNL     1      25.043  47.053  50.836  1.00  0.00     0.031 A 
HETATM   15  C   UNL     1      21.666  43.229  48.086  1.00  0.00     0.129 C 
HETATM   16  C   UNL     1      21.946  43.184  46.596  1.00  0.00     0.047 C 
HETATM   17  H   UNL     1      23.107  47.815  49.337  1.00  0.00     0.169 HD
ENDROOT
BRANCH   1  18
HETATM   18  N   UNL     1      23.864  44.086  45.354  1.00  0.00    -0.350 N 
HETATM   19  C   UNL     1      23.875  44.559  44.058  1.00  0.00     0.252 C 
HETATM   20  O   UNL     1      23.022  45.317  43.612  1.00  0.00    -0.268 OA
HETATM   21  H   UNL     1      24.402  43.254  45.555  1.00  0.00     0.163 HD
BRANCH  19  22
HETATM   22  C   UNL     1      25.006  44.116  43.200  1.00  0.00     0.035 A 
HETATM   23  C   UNL     1      25.731  45.022  42.418  1.00  0.00     0.059 A 
HETATM   24  C   UNL     1      26.753  44.549  41.602  1.00  0.00     0.117 A 
HETATM   25  C   UNL     1      27.065  43.195  41.545  1.00  0.00     0.042 A 
HETATM   26  F   UNL     1      27.444  45.415  40.849  1.00  0.00    -0.206 F 
HETATM   27  C   UNL     1      26.336  42.288  42.312  1.00  0.00     0.004 A 
HETATM   28  C   UNL     1      25.304  42.747  43.135  1.00  0.00     0.017 A 
ENDBRANCH  19  22
ENDBRANCH   1  18
BRANCH  12  29
HETATM   29  C   UNL     1      27.239  44.641  52.711  1.00  0.00     0.012 C 
HETATM   30  C   UNL     1      27.734  45.337  53.748  1.00  0.00     0.012 C 
BRANCH  30  31
HETATM   31  C   UNL     1      28.786  44.847  54.649  1.00  0.00    -0.036 A 
HETATM   32  C   UNL     1      29.382  43.608  54.379  1.00  0.00     0.014 A 
HETATM   33  C   UNL     1      30.424  43.128  55.178  1.00  0.00     0.037 A 
HETATM   34  C   UNL     1      30.876  43.897  56.243  1.00  0.00     0.065 A 
HETATM   35  C   UNL     1      30.307  45.134  56.520  1.00  0.00     0.037 A 
HETATM   36  C   UNL     1      29.265  45.611  55.721  1.00  0.00     0.014 A 
BRANCH  34  37
HETATM   37  O   UNL     1      31.894  43.473  57.044  1.00  0.00    -0.361 OA
HETATM   38  H   UNL     1      32.633  44.097  56.964  1.00  0.00     0.217 HD
ENDBRANCH  34  37
ENDBRANCH  30  31
ENDBRANCH  12  29
TORSDOF 5
ENDMDL
MODEL 3
REMARK VINA RESULT:      -9.0     14.666     16.275
REMARK  5 active torsions:
REMARK  status: ('A' for Active; 'I' for Inactive)
REMARK    1  A    between atoms: C_6  and  C_7 
REMARK       I    between atoms: C_7  and  N_8 
REMARK    2  A    between atoms: N_8  and  C_9 
REMARK    3  A    between atoms: C_20  and  C_21 
REMARK    4  A    between atoms: C_22  and  C_23 
REMARK    5  A    between atoms: C_26  and  O_27 
ROOT
HETATM    1  C   UNL     1      14.778  51.599  44.798  1.00  0.00     0.118 C 
HETATM    2  C   UNL     1      15.913  51.540  45.847  1.00  0.00     0.202 C 
HETATM    3  N   UNL     1      15.907  50.183  46.355  1.00  0.00    -0.332 N 
HETATM    4  C   UNL     1      16.923  49.614  47.076  1.00  0.00     0.257 C 
HETATM    5  O   UNL     1      16.929  48.428  47.396  1.00  0.00    -0.267 OA
HETATM    6  C   UNL     1      18.063  50.482  47.477  1.00  0.00     0.059 A 
HETATM    7  C   UNL     1      17.910  51.788  47.976  1.00  0.00     0.050 A 
HETATM    8  N   UNL     1      16.707  52.522  47.977  1.00  0.00    -0.324 N 
HETATM    9  C   UNL     1      15.684  52.448  47.057  1.00  0.00     0.247 C 
HETATM   10  O   UNL     1      14.674  53.131  47.226  1.00  0.00    -0.271 OA
HETATM   11  C   UNL     1      19.335  49.883  47.459  1.00  0.00     0.030 A 
HETATM   12  C   UNL     1      20.462  50.575  47.916  1.00  0.00    -0.035 A 
HETATM   13  C   UNL     1      20.288  51.836  48.491  1.00  0.00     0.013 A 
HETATM   14  C   UNL     1      19.022  52.432  48.531  1.00  0.00     0.031 A 
HETATM   15  C   UNL     1      14.663  49.516  46.065  1.00  0.00     0.129 C 
HETATM   16  C   UNL     1      14.177  50.179  44.791  1.00  0.00     0.047 C 
HETATM   17  H   UNL     1      16.615  53.311  48.606  1.00  0.00     0.169 HD
ENDROOT
BRANCH   1  18
HETATM   18  N   UNL     1      15.258  51.931  43.449  1.00  0.00    -0.350 N 
HETATM   19  C   UNL     1      15.190  53.220  42.962  1.00  0.00     0.252 C 
HETATM   20  O   UNL     1      14.765  54.164  43.618  1.00  0.00    -0.268 OA
HETATM   21  H   UNL     1      15.325  51.178  42.777  1.00  0.00     0.163 HD
BRANCH  19  22
HETATM   22  C   UNL     1      15.684  53.432  41.575  1.00  0.00     0.035 A 
HETATM   23  C   UNL     1      16.687  52.625  41.024  1.00  0.00     0.059 A 
HETATM   24  C   UNL     1      17.142  52.891  39.738  1.00  0.00     0.117 A 
HETATM   25  C   UNL     1      16.625  53.945  38.991  1.00  0.00     0.042 A 
HETATM   26  F   UNL     1      18.105  52.123  39.212  1.00  0.00    -0.206 F 
HETATM   27  C   UNL     1      15.637  54.759  39.543  1.00  0.00     0.004 A 
HETATM   28  C   UNL     1      15.171  54.506  40.835  1.00  0.00     0.017 A 
ENDBRANCH  19  22
ENDBRANCH   1  18
BRANCH  12  29
HETATM   29  C   UNL     1      21.811  50.005  47.829  1.00  0.00     0.012 C 
HETATM   30  C   UNL     1      22.758  50.267  48.744  1.00  0.00     0.012 C 
BRANCH  30  31
HETATM   31  C   UNL     1      24.106  49.685  48.732  1.00  0.00    -0.036 A 
HETATM   32  C   UNL     1      25.139  50.387  48.094  1.00  0.00     0.014 A 
HETATM   33  C   UNL     1      26.448  49.897  48.106  1.00  0.00     0.037 A 
HETATM   34  C   UNL     1      26.725  48.706  48.767  1.00  0.00     0.065 A 
HETATM   35  C   UNL     1      25.718  48.002  49.416  1.00  0.00     0.037 A 
HETATM   36  C   UNL     1      24.410  48.493  49.402  1.00  0.00     0.014 A 
BRANCH  34  37
HETATM   37  O   UNL     1      27.987  48.194  48.810  1.00  0.00    -0.361 OA
HETATM   38  H   UNL     1      27.993  47.343  48.342  1.00  0.00     0.217 HD
ENDBRANCH  34  37
ENDBRANCH  30  31
ENDBRANCH  12  29
TORSDOF 5
ENDMDL
MODEL 4
REMARK VINA RESULT:      -8.8     14.793     18.227
REMARK  5 active torsions:
REMARK  status: ('A' for Active; 'I' for Inactive)
REMARK    1  A    between atoms: C_6  and  C_7 
REMARK       I    between atoms: C_7  and  N_8 
REMARK    2  A    between atoms: N_8  and  C_9 
REMARK    3  A    between atoms: C_20  and  C_21 
REMARK    4  A    between atoms: C_22  and  C_23 
REMARK    5  A    between atoms: C_26  and  O_27 
ROOT
HETATM    1  C   UNL     1      40.438  49.875  43.359  1.00  0.00     0.118 C 
HETATM    2  C   UNL     1      39.046  50.548  43.342  1.00  0.00     0.202 C 
HETATM    3  N   UNL     1      38.787  50.879  41.955  1.00  0.00    -0.332 N 
HETATM    4  C   UNL     1      37.560  51.215  41.447  1.00  0.00     0.257 C 
HETATM    5  O   UNL     1      37.360  51.383  40.247  1.00  0.00    -0.267 OA
HETATM    6  C   UNL     1      36.431  51.374  42.402  1.00  0.00     0.059 A 
HETATM    7  C   UNL     1      36.543  52.042  43.636  1.00  0.00     0.050 A 
HETATM    8  N   UNL     1      37.751  52.464  44.225  1.00  0.00    -0.324 N 
HETATM    9  C   UNL     1      38.988  51.869  44.113  1.00  0.00     0.247 C 
HETATM   10  O   UNL     1      39.959  52.392  44.659  1.00  0.00    -0.271 OA
HETATM   11  C   UNL     1      35.175  50.931  41.957  1.00  0.00     0.030 A 
HETATM   12  C   UNL     1      34.026  51.127  42.732  1.00  0.00    -0.035 A 
HETATM   13  C   UNL     1      34.132  51.867  43.912  1.00  0.00     0.013 A 
HETATM   14  C   UNL     1      35.376  52.330  44.353  1.00  0.00     0.031 A 
HETATM   15  C   UNL     1      40.001  50.877  41.177  1.00  0.00     0.129 C 
HETATM   16  C   UNL     1      40.892  49.876  41.886  1.00  0.00     0.047 C 
HETATM   17  H   UNL     1      37.723  53.180  44.942  1.00  0.00     0.169 HD
ENDROOT
BRANCH   1  18
HETATM   18  N   UNL     1      40.403  48.492  43.856  1.00  0.00    -0.350 N 
HETATM   19  C   UNL     1      41.312  48.045  44.794  1.00  0.00     0.252 C 
HETATM   20  O   UNL     1      42.172  48.763  45.290  1.00  0.00    -0.268 OA
HETATM   21  H   UNL     1      39.941  47.799  43.283  1.00  0.00     0.163 HD
BRANCH  19  22
HETATM   22  C   UNL     1      41.194  46.621  45.205  1.00  0.00     0.035 A 
HETATM   23  C   UNL     1      40.081  45.848  44.856  1.00  0.00     0.059 A 
HETATM   24  C   UNL     1      40.000  44.534  45.301  1.00  0.00     0.117 A 
HETATM   25  C   UNL     1      41.000  43.974  46.089  1.00  0.00     0.042 A 
HETATM   26  F   UNL     1      38.932  43.795  44.972  1.00  0.00    -0.206 F 
HETATM   27  C   UNL     1      42.103  44.745  46.450  1.00  0.00     0.004 A 
HETATM   28  C   UNL     1      42.198  46.069  46.013  1.00  0.00     0.017 A 
ENDBRANCH  19  22
ENDBRANCH   1  18
BRANCH  12  29
HETATM   29  C   UNL     1      32.718  50.599  42.329  1.00  0.00     0.012 C 
HETATM   30  C   UNL     1      31.599  51.338  42.391  1.00  0.00     0.012 C 
BRANCH  30  31
HETATM   31  C   UNL     1      30.275  50.877  41.954  1.00  0.00    -0.036 A 
HETATM   32  C   UNL     1      30.006  49.501  41.954  1.00  0.00     0.014 A 
HETATM   33  C   UNL     1      28.743  49.020  41.599  1.00  0.00     0.037 A 
HETATM   34  C   UNL     1      27.742  49.922  41.254  1.00  0.00     0.065 A 
HETATM   35  C   UNL     1      27.985  51.290  41.260  1.00  0.00     0.037 A 
HETATM   36  C   UNL     1      29.249  51.768  41.614  1.00  0.00     0.014 A 
BRANCH  34  37
HETATM   37  O   UNL     1      26.494  49.499  40.907  1.00  0.00    -0.361 OA
HETATM   38  H   UNL     1      26.579  48.742  40.306  1.00  0.00     0.217 HD
ENDBRANCH  34  37
ENDBRANCH  30  31
ENDBRANCH  12  29
TORSDOF 5
ENDMDL
MODEL 5
REMARK VINA RESULT:      -8.7     14.198     18.209
REMARK  5 active torsions:
REMARK  status: ('A' for Active; 'I' for Inactive)
REMARK    1  A    between atoms: C_6  and  C_7 
REMARK       I    between atoms: C_7  and  N_8 
REMARK    2  A    between atoms: N_8  and  C_9 
REMARK    3  A    between atoms: C_20  and  C_21 
REMARK    4  A    between atoms: C_22  and  C_23 
REMARK    5  A    between atoms: C_26  and  O_27 
ROOT
HETATM    1  C   UNL     1      38.755  50.931  43.064  1.00  0.00     0.118 C 
HETATM    2  C   UNL     1      37.216  51.076  43.012  1.00  0.00     0.202 C 
HETATM    3  N   UNL     1      36.875  51.136  41.605  1.00  0.00    -0.332 N 
HETATM    4  C   UNL     1      35.614  50.968  41.099  1.00  0.00     0.257 C 
HETATM    5  O   UNL     1      35.382  50.918  39.894  1.00  0.00    -0.267 OA
HETATM    6  C   UNL     1      34.488  50.836  42.062  1.00  0.00     0.059 A 
HETATM    7  C   UNL     1      34.348  51.638  43.210  1.00  0.00     0.050 A 
HETATM    8  N   UNL     1      35.328  52.516  43.713  1.00  0.00    -0.324 N 
HETATM    9  C   UNL     1      36.696  52.375  43.632  1.00  0.00     0.247 C 
HETATM   10  O   UNL     1      37.419  53.260  44.089  1.00  0.00    -0.271 OA
HETATM   11  C   UNL     1      33.468  49.939  41.706  1.00  0.00     0.030 A 
HETATM   12  C   UNL     1      32.314  49.814  42.487  1.00  0.00    -0.035 A 
HETATM   13  C   UNL     1      32.143  50.676  43.574  1.00  0.00     0.013 A 
HETATM   14  C   UNL     1      33.145  51.587  43.924  1.00  0.00     0.031 A 
HETATM   15  C   UNL     1      38.023  51.464  40.797  1.00  0.00     0.129 C 
HETATM   16  C   UNL     1      39.198  50.920  41.588  1.00  0.00     0.047 C 
HETATM   17  H   UNL     1      35.046  53.255  44.346  1.00  0.00     0.169 HD
ENDROOT
BRANCH   1  18
HETATM   18  N   UNL     1      39.195  49.688  43.714  1.00  0.00    -0.350 N 
HETATM   19  C   UNL     1      40.425  49.600  44.333  1.00  0.00     0.252 C 
HETATM   20  O   UNL     1      41.206  50.541  44.411  1.00  0.00    -0.268 OA
HETATM   21  H   UNL     1      38.752  48.826  43.425  1.00  0.00     0.163 HD
BRANCH  19  22
HETATM   22  C   UNL     1      40.771  48.285  44.935  1.00  0.00     0.035 A 
HETATM   23  C   UNL     1      42.084  47.972  45.305  1.00  0.00     0.059 A 
HETATM   24  C   UNL     1      42.361  46.713  45.826  1.00  0.00     0.117 A 
HETATM   25  C   UNL     1      41.361  45.759  45.982  1.00  0.00     0.042 A 
HETATM   26  F   UNL     1      43.618  46.411  46.175  1.00  0.00    -0.206 F 
HETATM   27  C   UNL     1      40.055  46.063  45.601  1.00  0.00     0.004 A 
HETATM   28  C   UNL     1      39.761  47.322  45.073  1.00  0.00     0.017 A 
ENDBRANCH  19  22
ENDBRANCH   1  18
BRANCH  12  29
HETATM   29  C   UNL     1      31.274  48.825  42.184  1.00  0.00     0.012 C 
HETATM   30  C   UNL     1      30.609  48.821  41.017  1.00  0.00     0.012 C 
BRANCH  30  31
HETATM   31  C   UNL     1      29.596  47.825  40.643  1.00  0.00    -0.036 A 
HETATM   32  C   UNL     1      29.963  46.778  39.787  1.00  0.00     0.014 A 
HETATM   33  C   UNL     1      29.046  45.778  39.449  1.00  0.00     0.037 A 
HETATM   34  C   UNL     1      27.762  45.823  39.979  1.00  0.00     0.065 A 
HETATM   35  C   UNL     1      27.383  46.846  40.839  1.00  0.00     0.037 A 
HETATM   36  C   UNL     1      28.300  47.844  41.175  1.00  0.00     0.014 A 
BRANCH  34  37
HETATM   37  O   UNL     1      26.837  44.866  39.683  1.00  0.00    -0.361 OA
HETATM   38  H   UNL     1      27.188  44.002  39.954  1.00  0.00     0.217 HD
ENDBRANCH  34  37
ENDBRANCH  30  31
ENDBRANCH  12  29
TORSDOF 5
ENDMDL
MODEL 6
REMARK VINA RESULT:      -8.7      5.466     11.444
REMARK  5 active torsions:
REMARK  status: ('A' for Active; 'I' for Inactive)
REMARK    1  A    between atoms: C_6  and  C_7 
REMARK       I    between atoms: C_7  and  N_8 
REMARK    2  A    between atoms: N_8  and  C_9 
REMARK    3  A    between atoms: C_20  and  C_21 
REMARK    4  A    between atoms: C_22  and  C_23 
REMARK    5  A    between atoms: C_26  and  O_27 
ROOT
HETATM    1  C   UNL     1      26.776  45.779  54.100  1.00  0.00     0.118 C 
HETATM    2  C   UNL     1      26.377  44.863  52.921  1.00  0.00     0.202 C 
HETATM    3  N   UNL     1      26.459  45.691  51.735  1.00  0.00    -0.332 N 
HETATM    4  C   UNL     1      26.478  45.218  50.450  1.00  0.00     0.257 C 
HETATM    5  O   UNL     1      26.658  45.944  49.476  1.00  0.00    -0.267 OA
HETATM    6  C   UNL     1      26.276  43.759  50.242  1.00  0.00     0.059 A 
HETATM    7  C   UNL     1      25.307  43.002  50.927  1.00  0.00     0.050 A 
HETATM    8  N   UNL     1      24.549  43.454  52.025  1.00  0.00    -0.324 N 
HETATM    9  C   UNL     1      24.933  44.359  52.989  1.00  0.00     0.247 C 
HETATM   10  O   UNL     1      24.131  44.682  53.864  1.00  0.00    -0.271 OA
HETATM   11  C   UNL     1      27.026  43.169  49.211  1.00  0.00     0.030 A 
HETATM   12  C   UNL     1      26.838  41.827  48.862  1.00  0.00    -0.035 A 
HETATM   13  C   UNL     1      25.814  41.108  49.485  1.00  0.00     0.013 A 
HETATM   14  C   UNL     1      25.049  41.694  50.499  1.00  0.00     0.031 A 
HETATM   15  C   UNL     1      26.452  47.094  52.069  1.00  0.00     0.129 C 
HETATM   16  C   UNL     1      27.073  47.146  53.452  1.00  0.00     0.047 C 
HETATM   17  H   UNL     1      23.690  42.970  52.260  1.00  0.00     0.169 HD
ENDROOT
BRANCH   1  18
HETATM   18  N   UNL     1      27.971  45.311  54.816  1.00  0.00    -0.350 N 
HETATM   19  C   UNL     1      28.388  45.912  55.985  1.00  0.00     0.252 C 
HETATM   20  O   UNL     1      27.785  46.838  56.516  1.00  0.00    -0.268 OA
HETATM   21  H   UNL     1      28.655  44.782  54.290  1.00  0.00     0.163 HD
BRANCH  19  22
HETATM   22  C   UNL     1      29.624  45.367  56.607  1.00  0.00     0.035 A 
HETATM   23  C   UNL     1      30.355  44.338  56.003  1.00  0.00     0.059 A 
HETATM   24  C   UNL     1      31.480  43.836  56.647  1.00  0.00     0.117 A 
HETATM   25  C   UNL     1      31.889  44.332  57.880  1.00  0.00     0.042 A 
HETATM   26  F   UNL     1      32.177  42.847  56.072  1.00  0.00    -0.206 F 
HETATM   27  C   UNL     1      31.155  45.347  58.491  1.00  0.00     0.004 A 
HETATM   28  C   UNL     1      30.021  45.860  57.859  1.00  0.00     0.017 A 
ENDBRANCH  19  22
ENDBRANCH   1  18
BRANCH  12  29
HETATM   29  C   UNL     1      27.666  41.165  47.847  1.00  0.00     0.012 C 
HETATM   30  C   UNL     1      27.147  40.671  46.712  1.00  0.00     0.012 C 
BRANCH  30  31
HETATM   31  C   UNL     1      27.936  40.044  45.643  1.00  0.00    -0.036 A 
HETATM   32  C   UNL     1      28.071  38.649  45.633  1.00  0.00     0.014 A 
HETATM   33  C   UNL     1      28.767  38.007  44.605  1.00  0.00     0.037 A 
HETATM   34  C   UNL     1      29.320  38.765  43.579  1.00  0.00     0.065 A 
HETATM   35  C   UNL     1      29.186  40.147  43.564  1.00  0.00     0.037 A 
HETATM   36  C   UNL     1      28.491  40.787  44.593  1.00  0.00     0.014 A 
BRANCH  34  37
HETATM   37  O   UNL     1      30.001  38.181  42.552  1.00  0.00    -0.361 OA
HETATM   38  H   UNL     1      30.612  37.522  42.920  1.00  0.00     0.217 HD
ENDBRANCH  34  37
ENDBRANCH  30  31
ENDBRANCH  12  29
TORSDOF 5
ENDMDL
MODEL 7
REMARK VINA RESULT:      -8.6     12.893     14.647
REMARK  5 active torsions:
REMARK  status: ('A' for Active; 'I' for Inactive)
REMARK    1  A    between atoms: C_6  and  C_7 
REMARK       I    between atoms: C_7  and  N_8 
REMARK    2  A    between atoms: N_8  and  C_9 
REMARK    3  A    between atoms: C_20  and  C_21 
REMARK    4  A    between atoms: C_22  and  C_23 
REMARK    5  A    between atoms: C_26  and  O_27 
ROOT
HETATM    1  C   UNL     1      16.967  51.648  46.693  1.00  0.00     0.118 C 
HETATM    2  C   UNL     1      18.126  51.118  47.569  1.00  0.00     0.202 C 
HETATM    3  N   UNL     1      17.630  49.903  48.183  1.00  0.00    -0.332 N 
HETATM    4  C   UNL     1      18.413  48.961  48.796  1.00  0.00     0.257 C 
HETATM    5  O   UNL     1      17.968  47.893  49.209  1.00  0.00    -0.267 OA
HETATM    6  C   UNL     1      19.862  49.256  48.954  1.00  0.00     0.059 A 
HETATM    7  C   UNL     1      20.363  50.507  49.360  1.00  0.00     0.050 A 
HETATM    8  N   UNL     1      19.604  51.688  49.472  1.00  0.00    -0.324 N 
HETATM    9  C   UNL     1      18.509  52.052  48.719  1.00  0.00     0.247 C 
HETATM   10  O   UNL     1      17.928  53.107  48.974  1.00  0.00    -0.271 OA
HETATM   11  C   UNL     1      20.737  48.166  48.803  1.00  0.00     0.030 A 
HETATM   12  C   UNL     1      22.109  48.309  49.033  1.00  0.00    -0.035 A 
HETATM   13  C   UNL     1      22.585  49.529  49.520  1.00  0.00     0.013 A 
HETATM   14  C   UNL     1      21.719  50.613  49.693  1.00  0.00     0.031 A 
HETATM   15  C   UNL     1      16.191  49.836  48.132  1.00  0.00     0.129 C 
HETATM   16  C   UNL     1      15.828  50.628  46.891  1.00  0.00     0.047 C 
HETATM   17  H   UNL     1      19.961  52.447  50.040  1.00  0.00     0.169 HD
ENDROOT
BRANCH   1  18
HETATM   18  N   UNL     1      17.311  51.722  45.266  1.00  0.00    -0.350 N 
HETATM   19  C   UNL     1      16.773  52.696  44.449  1.00  0.00     0.252 C 
HETATM   20  O   UNL     1      16.014  53.568  44.855  1.00  0.00    -0.268 OA
HETATM   21  H   UNL     1      17.668  50.885  44.825  1.00  0.00     0.163 HD
BRANCH  19  22
HETATM   22  C   UNL     1      17.176  52.658  43.018  1.00  0.00     0.035 A 
HETATM   23  C   UNL     1      16.780  53.655  42.119  1.00  0.00     0.059 A 
HETATM   24  C   UNL     1      17.150  53.550  40.783  1.00  0.00     0.117 A 
HETATM   25  C   UNL     1      17.900  52.473  40.323  1.00  0.00     0.042 A 
HETATM   26  F   UNL     1      16.766  54.501  39.921  1.00  0.00    -0.206 F 
HETATM   27  C   UNL     1      18.284  51.472  41.213  1.00  0.00     0.004 A 
HETATM   28  C   UNL     1      17.918  51.561  42.558  1.00  0.00     0.017 A 
ENDBRANCH  19  22
ENDBRANCH   1  18
BRANCH  12  29
HETATM   29  C   UNL     1      23.054  47.210  48.800  1.00  0.00     0.012 C 
HETATM   30  C   UNL     1      23.854  46.738  49.770  1.00  0.00     0.012 C 
BRANCH  30  31
HETATM   31  C   UNL     1      24.780  45.610  49.605  1.00  0.00    -0.036 A 
HETATM   32  C   UNL     1      26.123  45.781  49.967  1.00  0.00     0.014 A 
HETATM   33  C   UNL     1      27.027  44.719  49.878  1.00  0.00     0.037 A 
HETATM   34  C   UNL     1      26.581  43.479  49.435  1.00  0.00     0.065 A 
HETATM   35  C   UNL     1      25.251  43.286  49.083  1.00  0.00     0.037 A 
HETATM   36  C   UNL     1      24.350  44.349  49.172  1.00  0.00     0.014 A 
BRANCH  34  37
HETATM   37  O   UNL     1      27.426  42.413  49.339  1.00  0.00    -0.361 OA
HETATM   38  H   UNL     1      28.320  42.703  49.580  1.00  0.00     0.217 HD
ENDBRANCH  34  37
ENDBRANCH  30  31
ENDBRANCH  12  29
TORSDOF 5
ENDMDL
MODEL 8
REMARK VINA RESULT:      -8.5      8.711     12.637
REMARK  5 active torsions:
REMARK  status: ('A' for Active; 'I' for Inactive)
REMARK    1  A    between atoms: C_6  and  C_7 
REMARK       I    between atoms: C_7  and  N_8 
REMARK    2  A    between atoms: N_8  and  C_9 
REMARK    3  A    between atoms: C_20  and  C_21 
REMARK    4  A    between atoms: C_22  and  C_23 
REMARK    5  A    between atoms: C_26  and  O_27 
ROOT
HETATM    1  C   UNL     1      28.513  46.698  39.376  1.00  0.00     0.118 C 
HETATM    2  C   UNL     1      27.862  45.515  40.130  1.00  0.00     0.202 C 
HETATM    3  N   UNL     1      28.353  44.317  39.478  1.00  0.00    -0.332 N 
HETATM    4  C   UNL     1      28.269  43.054  39.999  1.00  0.00     0.257 C 
HETATM    5  O   UNL     1      28.792  42.078  39.467  1.00  0.00    -0.267 OA
HETATM    6  C   UNL     1      27.510  42.872  41.266  1.00  0.00     0.059 A 
HETATM    7  C   UNL     1      26.274  43.490  41.529  1.00  0.00     0.050 A 
HETATM    8  N   UNL     1      25.688  44.502  40.745  1.00  0.00    -0.324 N 
HETATM    9  C   UNL     1      26.337  45.470  40.010  1.00  0.00     0.247 C 
HETATM   10  O   UNL     1      25.674  46.261  39.339  1.00  0.00    -0.271 OA
HETATM   11  C   UNL     1      28.029  41.928  42.169  1.00  0.00     0.030 A 
HETATM   12  C   UNL     1      27.341  41.603  43.343  1.00  0.00    -0.035 A 
HETATM   13  C   UNL     1      26.074  42.154  43.553  1.00  0.00     0.013 A 
HETATM   14  C   UNL     1      25.541  43.079  42.650  1.00  0.00     0.031 A 
HETATM   15  C   UNL     1      28.888  44.609  38.172  1.00  0.00     0.129 C 
HETATM   16  C   UNL     1      29.380  46.039  38.285  1.00  0.00     0.047 C 
HETATM   17  H   UNL     1      24.693  44.675  40.830  1.00  0.00     0.169 HD
ENDROOT
BRANCH   1  18
HETATM   18  N   UNL     1      29.366  47.530  40.238  1.00  0.00    -0.350 N 
HETATM   19  C   UNL     1      28.998  48.814  40.584  1.00  0.00     0.252 C 
HETATM   20  O   UNL     1      27.943  49.328  40.232  1.00  0.00    -0.268 OA
HETATM   21  H   UNL     1      30.346  47.289  40.300  1.00  0.00     0.163 HD
BRANCH  19  22
HETATM   22  C   UNL     1      29.951  49.568  41.441  1.00  0.00     0.035 A 
HETATM   23  C   UNL     1      30.010  50.966  41.417  1.00  0.00     0.059 A 
HETATM   24  C   UNL     1      30.948  51.620  42.208  1.00  0.00     0.117 A 
HETATM   25  C   UNL     1      31.831  50.913  43.017  1.00  0.00     0.042 A 
HETATM   26  F   UNL     1      31.008  52.958  42.181  1.00  0.00    -0.206 F 
HETATM   27  C   UNL     1      31.784  49.520  43.033  1.00  0.00     0.004 A 
HETATM   28  C   UNL     1      30.850  48.848  42.242  1.00  0.00     0.017 A 
ENDBRANCH  19  22
ENDBRANCH   1  18
BRANCH  12  29
HETATM   29  C   UNL     1      27.900  40.686  44.343  1.00  0.00     0.012 C 
HETATM   30  C   UNL     1      27.597  40.779  45.648  1.00  0.00     0.012 C 
BRANCH  30  31
HETATM   31  C   UNL     1      28.089  39.858  46.680  1.00  0.00    -0.036 A 
HETATM   32  C   UNL     1      28.415  40.372  47.943  1.00  0.00     0.014 A 
HETATM   33  C   UNL     1      28.834  39.524  48.972  1.00  0.00     0.037 A 
HETATM   34  C   UNL     1      28.916  38.157  48.739  1.00  0.00     0.065 A 
HETATM   35  C   UNL     1      28.585  37.626  47.498  1.00  0.00     0.037 A 
HETATM   36  C   UNL     1      28.168  38.475  46.470  1.00  0.00     0.014 A 
BRANCH  34  37
HETATM   37  O   UNL     1      29.314  37.292  49.714  1.00  0.00    -0.361 OA
HETATM   38  H   UNL     1      28.587  36.674  49.896  1.00  0.00     0.217 HD
ENDBRANCH  34  37
ENDBRANCH  30  31
ENDBRANCH  12  29
TORSDOF 5
ENDMDL
MODEL 9
REMARK VINA RESULT:      -8.4     14.087     17.202
REMARK  5 active torsions:
REMARK  status: ('A' for Active; 'I' for Inactive)
REMARK    1  A    between atoms: C_6  and  C_7 
REMARK       I    between atoms: C_7  and  N_8 
REMARK    2  A    between atoms: N_8  and  C_9 
REMARK    3  A    between atoms: C_20  and  C_21 
REMARK    4  A    between atoms: C_22  and  C_23 
REMARK    5  A    between atoms: C_26  and  O_27 
ROOT
HETATM    1  C   UNL     1      25.773  48.440  39.088  1.00  0.00     0.118 C 
HETATM    2  C   UNL     1      24.271  48.804  39.047  1.00  0.00     0.202 C 
HETATM    3  N   UNL     1      23.619  47.883  39.957  1.00  0.00    -0.332 N 
HETATM    4  C   UNL     1      22.350  48.035  40.447  1.00  0.00     0.257 C 
HETATM    5  O   UNL     1      21.872  47.291  41.300  1.00  0.00    -0.267 OA
HETATM    6  C   UNL     1      21.529  49.158  39.919  1.00  0.00     0.059 A 
HETATM    7  C   UNL     1      21.469  49.505  38.556  1.00  0.00     0.050 A 
HETATM    8  N   UNL     1      22.308  48.990  37.549  1.00  0.00    -0.324 N 
HETATM    9  C   UNL     1      23.618  48.585  37.680  1.00  0.00     0.247 C 
HETATM   10  O   UNL     1      24.203  48.116  36.704  1.00  0.00    -0.271 OA
HETATM   11  C   UNL     1      20.688  49.801  40.843  1.00  0.00     0.030 A 
HETATM   12  C   UNL     1      19.799  50.799  40.433  1.00  0.00    -0.035 A 
HETATM   13  C   UNL     1      19.682  51.075  39.068  1.00  0.00     0.013 A 
HETATM   14  C   UNL     1      20.500  50.426  38.139  1.00  0.00     0.031 A 
HETATM   15  C   UNL     1      24.451  46.739  40.234  1.00  0.00     0.129 C 
HETATM   16  C   UNL     1      25.865  47.265  40.081  1.00  0.00     0.047 C 
HETATM   17  H   UNL     1      22.013  49.060  36.582  1.00  0.00     0.169 HD
ENDROOT
BRANCH   1  18
HETATM   18  N   UNL     1      26.620  49.544  39.561  1.00  0.00    -0.350 N 
HETATM   19  C   UNL     1      27.212  50.423  38.677  1.00  0.00     0.252 C 
HETATM   20  O   UNL     1      27.049  50.366  37.464  1.00  0.00    -0.268 OA
HETATM   21  H   UNL     1      27.028  49.460  40.483  1.00  0.00     0.163 HD
BRANCH  19  22
HETATM   22  C   UNL     1      28.066  51.486  39.271  1.00  0.00     0.035 A 
HETATM   23  C   UNL     1      28.360  51.510  40.639  1.00  0.00     0.059 A 
HETATM   24  C   UNL     1      29.130  52.549  41.150  1.00  0.00     0.117 A 
HETATM   25  C   UNL     1      29.606  53.567  40.330  1.00  0.00     0.042 A 
HETATM   26  F   UNL     1      29.408  52.575  42.460  1.00  0.00    -0.206 F 
HETATM   27  C   UNL     1      29.302  53.554  38.970  1.00  0.00     0.004 A 
HETATM   28  C   UNL     1      28.528  52.518  38.442  1.00  0.00     0.017 A 
ENDBRANCH  19  22
ENDBRANCH   1  18
BRANCH  12  29
HETATM   29  C   UNL     1      18.972  51.544  41.390  1.00  0.00     0.012 C 
HETATM   30  C   UNL     1      18.548  51.001  42.543  1.00  0.00     0.012 C 
BRANCH  30  31
HETATM   31  C   UNL     1      17.762  51.717  43.556  1.00  0.00    -0.036 A 
HETATM   32  C   UNL     1      16.947  52.782  43.150  1.00  0.00     0.014 A 
HETATM   33  C   UNL     1      16.141  53.456  44.072  1.00  0.00     0.037 A 
HETATM   34  C   UNL     1      16.144  53.053  45.403  1.00  0.00     0.065 A 
HETATM   35  C   UNL     1      16.935  51.992  45.823  1.00  0.00     0.037 A 
HETATM   36  C   UNL     1      17.741  51.321  44.900  1.00  0.00     0.014 A 
BRANCH  34  37
HETATM   37  O   UNL     1      15.368  53.676  46.335  1.00  0.00    -0.361 OA
HETATM   38  H   UNL     1      14.460  53.342  46.257  1.00  0.00     0.217 HD
ENDBRANCH  34  37
ENDBRANCH  30  31
ENDBRANCH  12  29
TORSDOF 5
ENDMDL
MODEL 10
REMARK VINA RESULT:      -8.3     12.004     13.791
REMARK  5 active torsions:
REMARK  status: ('A' for Active; 'I' for Inactive)
REMARK    1  A    between atoms: C_6  and  C_7 
REMARK       I    between atoms: C_7  and  N_8 
REMARK    2  A    between atoms: N_8  and  C_9 
REMARK    3  A    between atoms: C_20  and  C_21 
REMARK    4  A    between atoms: C_22  and  C_23 
REMARK    5  A    between atoms: C_26  and  O_27 
ROOT
HETATM    1  C   UNL     1      17.987  50.719  44.899  1.00  0.00     0.118 C 
HETATM    2  C   UNL     1      18.877  50.466  46.137  1.00  0.00     0.202 C 
HETATM    3  N   UNL     1      18.362  49.258  46.750  1.00  0.00    -0.332 N 
HETATM    4  C   UNL     1      19.025  48.514  47.690  1.00  0.00     0.257 C 
HETATM    5  O   UNL     1      18.603  47.439  48.106  1.00  0.00    -0.267 OA
HETATM    6  C   UNL     1      20.313  49.043  48.215  1.00  0.00     0.059 A 
HETATM    7  C   UNL     1      20.517  50.391  48.564  1.00  0.00     0.050 A 
HETATM    8  N   UNL     1      19.628  51.446  48.283  1.00  0.00    -0.324 N 
HETATM    9  C   UNL     1      18.780  51.559  47.203  1.00  0.00     0.247 C 
HETATM   10  O   UNL     1      18.031  52.533  47.127  1.00  0.00    -0.271 OA
HETATM   11  C   UNL     1      21.312  48.091  48.480  1.00  0.00     0.030 A 
HETATM   12  C   UNL     1      22.523  48.466  49.072  1.00  0.00    -0.035 A 
HETATM   13  C   UNL     1      22.683  49.788  49.495  1.00  0.00     0.013 A 
HETATM   14  C   UNL     1      21.685  50.738  49.254  1.00  0.00     0.031 A 
HETATM   15  C   UNL     1      17.025  48.965  46.297  1.00  0.00     0.129 C 
HETATM   16  C   UNL     1      16.969  49.561  44.904  1.00  0.00     0.047 C 
HETATM   17  H   UNL     1      19.704  52.306  48.815  1.00  0.00     0.169 HD
ENDROOT
BRANCH   1  18
HETATM   18  N   UNL     1      18.738  50.699  43.635  1.00  0.00    -0.350 N 
HETATM   19  C   UNL     1      18.328  51.441  42.546  1.00  0.00     0.252 C 
HETATM   20  O   UNL     1      17.348  52.177  42.566  1.00  0.00    -0.268 OA
HETATM   21  H   UNL     1      19.346  49.909  43.463  1.00  0.00     0.163 HD
BRANCH  19  22
HETATM   22  C   UNL     1      19.154  51.324  41.316  1.00  0.00     0.035 A 
HETATM   23  C   UNL     1      18.648  51.673  40.058  1.00  0.00     0.059 A 
HETATM   24  C   UNL     1      19.449  51.506  38.934  1.00  0.00     0.117 A 
HETATM   25  C   UNL     1      20.738  50.995  39.034  1.00  0.00     0.042 A 
HETATM   26  F   UNL     1      18.963  51.834  37.729  1.00  0.00    -0.206 F 
HETATM   27  C   UNL     1      21.240  50.633  40.283  1.00  0.00     0.004 A 
HETATM   28  C   UNL     1      20.447  50.792  41.422  1.00  0.00     0.017 A 
ENDBRANCH  19  22
ENDBRANCH   1  18
BRANCH  12  29
HETATM   29  C   UNL     1      23.615  47.508  49.280  1.00  0.00     0.012 C 
HETATM   30  C   UNL     1      24.307  47.452  50.430  1.00  0.00     0.012 C 
BRANCH  30  31
HETATM   31  C   UNL     1      25.373  46.481  50.709  1.00  0.00    -0.036 A 
HETATM   32  C   UNL     1      25.652  46.149  52.042  1.00  0.00     0.014 A 
HETATM   33  C   UNL     1      26.620  45.190  52.351  1.00  0.00     0.037 A 
HETATM   34  C   UNL     1      27.304  44.555  51.321  1.00  0.00     0.065 A 
HETATM   35  C   UNL     1      27.034  44.861  49.993  1.00  0.00     0.037 A 
HETATM   36  C   UNL     1      26.066  45.820  49.687  1.00  0.00     0.014 A 
BRANCH  34  37
HETATM   37  O   UNL     1      28.252  43.608  51.576  1.00  0.00    -0.361 OA
HETATM   38  H   UNL     1      29.046  44.049  51.917  1.00  0.00     0.217 HD
ENDBRANCH  34  37
ENDBRANCH  30  31
ENDBRANCH  12  29
TORSDOF 5
ENDMDL
