MODEL 1
REMARK VINA RESULT:      -9.6      0.000      0.000
REMARK  4 active torsions:
REMARK  status: ('A' for Active; 'I' for Inactive)
REMARK    1  A    between atoms: C_3  and  C_4 
REMARK    2  A    between atoms: C_9  and  N_10 
REMARK       I    between atoms: N_10  and  C_11 
REMARK    3  A    between atoms: C_11  and  C_12 
REMARK    4  A    between atoms: C_12  and  C_13 
ROOT
HETATM    1  N   UNL     1      25.831  46.442  51.997  1.00  0.00    -0.327 N 
HETATM    2  C   UNL     1      25.739  46.681  53.347  1.00  0.00     0.227 C 
HETATM    3  O   UNL     1      25.492  47.775  53.856  1.00  0.00    -0.273 OA
HETATM    4  H   UNL     1      26.078  45.486  51.737  1.00  0.00     0.169 HD
ENDROOT
BRANCH   2   5
HETATM    5  C   UNL     1      25.972  45.500  54.270  1.00  0.00     0.165 C 
BRANCH   5   6
HETATM    6  C   UNL     1      26.847  44.328  53.867  1.00  0.00     0.074 A 
HETATM    7  N   UNL     1      26.403  43.465  53.000  1.00  0.00    -0.175 NA
HETATM    8  N   UNL     1      27.197  42.417  52.655  1.00  0.00    -0.243 N 
HETATM    9  C   UNL     1      28.456  42.160  53.140  1.00  0.00     0.272 A 
HETATM   10  H   UNL     1      26.827  41.754  51.980  1.00  0.00     0.192 HD
HETATM   11  O   UNL     1      29.105  41.182  52.788  1.00  0.00    -0.266 OA
HETATM   12  C   UNL     1      28.989  43.132  54.107  1.00  0.00     0.046 A 
HETATM   13  C   UNL     1      28.204  44.224  54.471  1.00  0.00     0.006 A 
HETATM   14  C   UNL     1      30.272  42.962  54.640  1.00  0.00     0.018 A 
HETATM   15  C   UNL     1      28.719  45.166  55.371  1.00  0.00     0.014 A 
HETATM   16  C   UNL     1      30.001  44.998  55.905  1.00  0.00     0.001 A 
HETATM   17  C   UNL     1      30.775  43.897  55.543  1.00  0.00     0.001 A 
ENDBRANCH   5   6
ENDBRANCH   2   5
BRANCH   1  18
HETATM   18  C   UNL     1      25.639  47.341  50.931  1.00  0.00     0.035 A 
HETATM   19  C   UNL     1      24.391  47.710  50.428  1.00  0.00     0.046 A 
HETATM   20  C   UNL     1      24.272  48.615  49.351  1.00  0.00     0.056 A 
HETATM   21  C   UNL     1      25.438  49.173  48.786  1.00  0.00    -0.047 A 
HETATM   22  C   UNL     1      25.377  50.141  47.635  1.00  0.00     0.049 C 
HETATM   23  C   UNL     1      26.689  48.788  49.287  1.00  0.00     0.010 A 
HETATM   24  C   UNL     1      26.786  47.884  50.347  1.00  0.00     0.030 A 
BRANCH  20  25
HETATM   25  C   UNL     1      22.892  48.981  48.845  1.00  0.00     0.418 C 
HETATM   26  F   UNL     1      22.569  50.284  49.083  1.00  0.00    -0.166 F 
HETATM   27  F   UNL     1      22.731  48.808  47.503  1.00  0.00    -0.166 F 
HETATM   28  F   UNL     1      21.910  48.241  49.432  1.00  0.00    -0.166 F 
ENDBRANCH  20  25
ENDBRANCH   1  18
TORSDOF 4
ENDMDL
MODEL 2
REMARK VINA RESULT:      -9.4      4.588      8.515
REMARK  4 active torsions:
REMARK  status: ('A' for Active; 'I' for Inactive)
REMARK    1  A    between atoms: C_3  and  C_4 
REMARK    2  A    between atoms: C_9  and  N_10 
REMARK       I    between atoms: N_10  and  C_11 
REMARK    3  A    between atoms: C_11  and  C_12 
REMARK    4  A    between atoms: C_12  and  C_13 
ROOT
HETATM    1  N   UNL     1      27.648  44.128  53.528  1.00  0.00    -0.327 N 
HETATM    2  C   UNL     1      26.303  43.929  53.729  1.00  0.00     0.227 C 
HETATM    3  O   UNL     1      25.781  43.669  54.814  1.00  0.00    -0.273 OA
HETATM    4  H   UNL     1      27.926  44.299  52.561  1.00  0.00     0.169 HD
ENDROOT
BRANCH   2   5
HETATM    5  C   UNL     1      25.405  44.031  52.511  1.00  0.00     0.165 C 
BRANCH   5   6
HETATM    6  C   UNL     1      25.315  45.301  51.685  1.00  0.00     0.074 A 
HETATM    7  N   UNL     1      26.130  46.285  51.932  1.00  0.00    -0.175 NA
HETATM    8  N   UNL     1      26.031  47.417  51.186  1.00  0.00    -0.243 N 
HETATM    9  C   UNL     1      25.135  47.644  50.170  1.00  0.00     0.272 A 
HETATM   10  H   UNL     1      26.675  48.174  51.401  1.00  0.00     0.192 HD
HETATM   11  O   UNL     1      25.102  48.702  49.552  1.00  0.00    -0.266 OA
HETATM   12  C   UNL     1      24.218  46.538  49.858  1.00  0.00     0.046 A 
HETATM   13  C   UNL     1      24.301  45.360  50.596  1.00  0.00     0.006 A 
HETATM   14  C   UNL     1      23.283  46.671  48.825  1.00  0.00     0.018 A 
HETATM   15  C   UNL     1      23.446  44.294  50.283  1.00  0.00     0.014 A 
HETATM   16  C   UNL     1      22.512  44.426  49.250  1.00  0.00     0.001 A 
HETATM   17  C   UNL     1      22.428  45.612  48.525  1.00  0.00     0.001 A 
ENDBRANCH   5   6
ENDBRANCH   2   5
BRANCH   1  18
HETATM   18  C   UNL     1      28.689  44.114  54.476  1.00  0.00     0.035 A 
HETATM   19  C   UNL     1      28.741  44.942  55.598  1.00  0.00     0.046 A 
HETATM   20  C   UNL     1      29.819  44.880  56.506  1.00  0.00     0.056 A 
HETATM   21  C   UNL     1      30.855  43.947  56.286  1.00  0.00    -0.047 A 
HETATM   22  C   UNL     1      32.032  43.834  57.217  1.00  0.00     0.049 C 
HETATM   23  C   UNL     1      30.804  43.128  55.150  1.00  0.00     0.010 A 
HETATM   24  C   UNL     1      29.732  43.211  54.258  1.00  0.00     0.030 A 
BRANCH  20  25
HETATM   25  C   UNL     1      29.824  45.801  57.708  1.00  0.00     0.418 C 
HETATM   26  F   UNL     1      29.859  45.127  58.893  1.00  0.00    -0.166 F 
HETATM   27  F   UNL     1      30.887  46.654  57.747  1.00  0.00    -0.166 F 
HETATM   28  F   UNL     1      28.716  46.591  57.763  1.00  0.00    -0.166 F 
ENDBRANCH  20  25
ENDBRANCH   1  18
TORSDOF 4
ENDMDL
MODEL 3
REMARK VINA RESULT:      -9.2      6.495      8.635
REMARK  4 active torsions:
REMARK  status: ('A' for Active; 'I' for Inactive)
REMARK    1  A    between atoms: C_3  and  C_4 
REMARK    2  A    between atoms: C_9  and  N_10 
REMARK       I    between atoms: N_10  and  C_11 
REMARK    3  A    between atoms: C_11  and  C_12 
REMARK    4  A    between atoms: C_12  and  C_13 
ROOT
HETATM    1  N   UNL     1      28.930  43.260  52.921  1.00  0.00    -0.327 N 
HETATM    2  C   UNL     1      27.668  42.994  52.447  1.00  0.00     0.227 C 
HETATM    3  O   UNL     1      26.620  43.246  53.044  1.00  0.00    -0.273 OA
HETATM    4  H   UNL     1      29.697  42.957  52.320  1.00  0.00     0.169 HD
ENDROOT
BRANCH   2   5
HETATM    5  C   UNL     1      27.572  42.331  51.085  1.00  0.00     0.165 C 
BRANCH   5   6
HETATM    6  C   UNL     1      28.210  40.983  50.804  1.00  0.00     0.074 A 
HETATM    7  N   UNL     1      28.797  40.337  51.770  1.00  0.00    -0.175 NA
HETATM    8  N   UNL     1      29.368  39.134  51.498  1.00  0.00    -0.243 N 
HETATM    9  C   UNL     1      29.399  38.508  50.276  1.00  0.00     0.272 A 
HETATM   10  H   UNL     1      29.824  38.651  52.267  1.00  0.00     0.192 HD
HETATM   11  O   UNL     1      29.949  37.426  50.110  1.00  0.00    -0.266 OA
HETATM   12  C   UNL     1      28.725  39.209  49.173  1.00  0.00     0.046 A 
HETATM   13  C   UNL     1      28.118  40.438  49.421  1.00  0.00     0.006 A 
HETATM   14  C   UNL     1      28.688  38.637  47.896  1.00  0.00     0.018 A 
HETATM   15  C   UNL     1      27.452  41.095  48.378  1.00  0.00     0.014 A 
HETATM   16  C   UNL     1      27.414  40.525  47.102  1.00  0.00     0.001 A 
HETATM   17  C   UNL     1      28.034  39.300  46.859  1.00  0.00     0.001 A 
ENDBRANCH   5   6
ENDBRANCH   2   5
BRANCH   1  18
HETATM   18  C   UNL     1      29.301  43.882  54.128  1.00  0.00     0.035 A 
HETATM   19  C   UNL     1      30.239  43.367  55.022  1.00  0.00     0.046 A 
HETATM   20  C   UNL     1      30.560  44.042  56.220  1.00  0.00     0.056 A 
HETATM   21  C   UNL     1      29.934  45.274  56.507  1.00  0.00    -0.047 A 
HETATM   22  C   UNL     1      30.231  46.040  57.768  1.00  0.00     0.049 C 
HETATM   23  C   UNL     1      28.982  45.780  55.611  1.00  0.00     0.010 A 
HETATM   24  C   UNL     1      28.672  45.091  54.435  1.00  0.00     0.030 A 
BRANCH  20  25
HETATM   25  C   UNL     1      31.586  43.438  57.155  1.00  0.00     0.418 C 
HETATM   26  F   UNL     1      31.939  44.277  58.170  1.00  0.00    -0.166 F 
HETATM   27  F   UNL     1      31.173  42.291  57.764  1.00  0.00    -0.166 F 
HETATM   28  F   UNL     1      32.746  43.118  56.517  1.00  0.00    -0.166 F 
ENDBRANCH  20  25
ENDBRANCH   1  18
TORSDOF 4
ENDMDL
MODEL 4
REMARK VINA RESULT:      -9.2      1.941      2.611
REMARK  4 active torsions:
REMARK  status: ('A' for Active; 'I' for Inactive)
REMARK    1  A    between atoms: C_3  and  C_4 
REMARK    2  A    between atoms: C_9  and  N_10 
REMARK       I    between atoms: N_10  and  C_11 
REMARK    3  A    between atoms: C_11  and  C_12 
REMARK    4  A    between atoms: C_12  and  C_13 
ROOT
HETATM    1  N   UNL     1      25.708  46.318  50.852  1.00  0.00    -0.327 N 
HETATM    2  C   UNL     1      26.457  45.238  50.452  1.00  0.00     0.227 C 
HETATM    3  O   UNL     1      26.771  44.986  49.287  1.00  0.00    -0.273 OA
HETATM    4  H   UNL     1      25.504  46.364  51.851  1.00  0.00     0.169 HD
ENDROOT
BRANCH   2   5
HETATM    5  C   UNL     1      26.920  44.284  51.537  1.00  0.00     0.165 C 
BRANCH   5   6
HETATM    6  C   UNL     1      27.309  44.772  52.921  1.00  0.00     0.074 A 
HETATM    7  N   UNL     1      26.569  45.661  53.519  1.00  0.00    -0.175 NA
HETATM    8  N   UNL     1      26.935  46.091  54.755  1.00  0.00    -0.243 N 
HETATM    9  C   UNL     1      28.038  45.680  55.463  1.00  0.00     0.272 A 
HETATM   10  H   UNL     1      26.345  46.788  55.199  1.00  0.00     0.192 HD
HETATM   11  O   UNL     1      28.308  46.128  56.571  1.00  0.00    -0.266 OA
HETATM   12  C   UNL     1      28.879  44.661  54.817  1.00  0.00     0.046 A 
HETATM   13  C   UNL     1      28.524  44.190  53.555  1.00  0.00     0.006 A 
HETATM   14  C   UNL     1      30.013  44.168  55.472  1.00  0.00     0.018 A 
HETATM   15  C   UNL     1      29.308  43.200  52.949  1.00  0.00     0.014 A 
HETATM   16  C   UNL     1      30.441  42.705  53.602  1.00  0.00     0.001 A 
HETATM   17  C   UNL     1      30.796  43.190  54.860  1.00  0.00     0.001 A 
ENDBRANCH   5   6
ENDBRANCH   2   5
BRANCH   1  18
HETATM   18  C   UNL     1      25.177  47.357  50.065  1.00  0.00     0.035 A 
HETATM   19  C   UNL     1      23.823  47.498  49.758  1.00  0.00     0.046 A 
HETATM   20  C   UNL     1      23.359  48.564  48.956  1.00  0.00     0.056 A 
HETATM   21  C   UNL     1      24.282  49.517  48.474  1.00  0.00    -0.047 A 
HETATM   22  C   UNL     1      23.849  50.673  47.613  1.00  0.00     0.049 C 
HETATM   23  C   UNL     1      25.641  49.362  48.774  1.00  0.00     0.010 A 
HETATM   24  C   UNL     1      26.082  48.295  49.561  1.00  0.00     0.030 A 
BRANCH  20  25
HETATM   25  C   UNL     1      21.879  48.669  48.655  1.00  0.00     0.418 C 
HETATM   26  F   UNL     1      21.319  49.813  49.141  1.00  0.00    -0.166 F 
HETATM   27  F   UNL     1      21.583  48.659  47.325  1.00  0.00    -0.166 F 
HETATM   28  F   UNL     1      21.163  47.645  49.198  1.00  0.00    -0.166 F 
ENDBRANCH  20  25
ENDBRANCH   1  18
TORSDOF 4
ENDMDL
MODEL 5
REMARK VINA RESULT:      -9.2      4.065      8.436
REMARK  4 active torsions:
REMARK  status: ('A' for Active; 'I' for Inactive)
REMARK    1  A    between atoms: C_3  and  C_4 
REMARK    2  A    between atoms: C_9  and  N_10 
REMARK       I    between atoms: N_10  and  C_11 
REMARK    3  A    between atoms: C_11  and  C_12 
REMARK    4  A    between atoms: C_12  and  C_13 
ROOT
HETATM    1  N   UNL     1      26.492  45.575  51.705  1.00  0.00    -0.327 N 
HETATM    2  C   UNL     1      25.133  45.390  51.629  1.00  0.00     0.227 C 
HETATM    3  O   UNL     1      24.471  44.685  52.392  1.00  0.00    -0.273 OA
HETATM    4  H   UNL     1      26.897  46.162  50.975  1.00  0.00     0.169 HD
ENDROOT
BRANCH   2   5
HETATM    5  C   UNL     1      24.405  46.107  50.508  1.00  0.00     0.165 C 
BRANCH   5   6
HETATM    6  C   UNL     1      25.009  47.304  49.796  1.00  0.00     0.074 A 
HETATM    7  N   UNL     1      26.303  47.433  49.744  1.00  0.00    -0.175 NA
HETATM    8  N   UNL     1      26.826  48.514  49.108  1.00  0.00    -0.243 N 
HETATM    9  C   UNL     1      26.115  49.520  48.499  1.00  0.00     0.272 A 
HETATM   10  H   UNL     1      27.839  48.596  49.084  1.00  0.00     0.192 HD
HETATM   11  O   UNL     1      26.664  50.472  47.957  1.00  0.00    -0.266 OA
HETATM   12  C   UNL     1      24.651  49.387  48.528  1.00  0.00     0.046 A 
HETATM   13  C   UNL     1      24.084  48.283  49.160  1.00  0.00     0.006 A 
HETATM   14  C   UNL     1      23.846  50.354  47.916  1.00  0.00     0.018 A 
HETATM   15  C   UNL     1      22.690  48.139  49.166  1.00  0.00     0.014 A 
HETATM   16  C   UNL     1      21.884  49.104  48.555  1.00  0.00     0.001 A 
HETATM   17  C   UNL     1      22.459  50.211  47.934  1.00  0.00     0.001 A 
ENDBRANCH   5   6
ENDBRANCH   2   5
BRANCH   1  18
HETATM   18  C   UNL     1      27.397  45.054  52.649  1.00  0.00     0.035 A 
HETATM   19  C   UNL     1      27.763  45.703  53.829  1.00  0.00     0.046 A 
HETATM   20  C   UNL     1      28.683  45.124  54.731  1.00  0.00     0.056 A 
HETATM   21  C   UNL     1      29.226  43.854  54.442  1.00  0.00    -0.047 A 
HETATM   22  C   UNL     1      30.212  43.186  55.362  1.00  0.00     0.049 C 
HETATM   23  C   UNL     1      28.865  43.214  53.249  1.00  0.00     0.010 A 
HETATM   24  C   UNL     1      27.960  43.807  52.365  1.00  0.00     0.030 A 
BRANCH  20  25
HETATM   25  C   UNL     1      29.044  45.872  55.997  1.00  0.00     0.418 C 
HETATM   26  F   UNL     1      28.392  47.064  56.113  1.00  0.00    -0.166 F 
HETATM   27  F   UNL     1      28.758  45.191  57.142  1.00  0.00    -0.166 F 
HETATM   28  F   UNL     1      30.372  46.167  56.065  1.00  0.00    -0.166 F 
ENDBRANCH  20  25
ENDBRANCH   1  18
TORSDOF 4
ENDMDL
MODEL 6
REMARK VINA RESULT:      -9.1      4.912      7.483
REMARK  4 active torsions:
REMARK  status: ('A' for Active; 'I' for Inactive)
REMARK    1  A    between atoms: C_3  and  C_4 
REMARK    2  A    between atoms: C_9  and  N_10 
REMARK       I    between atoms: N_10  and  C_11 
REMARK    3  A    between atoms: C_11  and  C_12 
REMARK    4  A    between atoms: C_12  and  C_13 
ROOT
HETATM    1  N   UNL     1      28.143  42.706  52.705  1.00  0.00    -0.327 N 
HETATM    2  C   UNL     1      27.768  43.016  51.420  1.00  0.00     0.227 C 
HETATM    3  O   UNL     1      27.737  44.153  50.946  1.00  0.00    -0.273 OA
HETATM    4  H   UNL     1      28.079  41.718  52.955  1.00  0.00     0.169 HD
ENDROOT
BRANCH   2   5
HETATM    5  C   UNL     1      27.352  41.860  50.530  1.00  0.00     0.165 C 
BRANCH   5   6
HETATM    6  C   UNL     1      28.139  40.563  50.480  1.00  0.00     0.074 A 
HETATM    7  N   UNL     1      28.743  40.138  51.551  1.00  0.00    -0.175 NA
HETATM    8  N   UNL     1      29.448  38.978  51.486  1.00  0.00    -0.243 N 
HETATM    9  C   UNL     1      29.600  38.182  50.377  1.00  0.00     0.272 A 
HETATM   10  H   UNL     1      29.915  38.668  52.334  1.00  0.00     0.192 HD
HETATM   11  O   UNL     1      30.267  37.153  50.397  1.00  0.00    -0.266 OA
HETATM   12  C   UNL     1      28.910  38.631  49.159  1.00  0.00     0.046 A 
HETATM   13  C   UNL     1      28.168  39.809  49.195  1.00  0.00     0.006 A 
HETATM   14  C   UNL     1      28.992  37.873  47.985  1.00  0.00     0.018 A 
HETATM   15  C   UNL     1      27.488  40.226  48.044  1.00  0.00     0.014 A 
HETATM   16  C   UNL     1      27.569  39.469  46.870  1.00  0.00     0.001 A 
HETATM   17  C   UNL     1      28.322  38.297  46.839  1.00  0.00     0.001 A 
ENDBRANCH   5   6
ENDBRANCH   2   5
BRANCH   1  18
HETATM   18  C   UNL     1      28.591  43.571  53.721  1.00  0.00     0.035 A 
HETATM   19  C   UNL     1      27.966  44.770  54.066  1.00  0.00     0.046 A 
HETATM   20  C   UNL     1      28.473  45.594  55.093  1.00  0.00     0.056 A 
HETATM   21  C   UNL     1      29.625  45.186  55.800  1.00  0.00    -0.047 A 
HETATM   22  C   UNL     1      30.215  46.023  56.903  1.00  0.00     0.049 C 
HETATM   23  C   UNL     1      30.256  43.988  55.440  1.00  0.00     0.010 A 
HETATM   24  C   UNL     1      29.743  43.191  54.414  1.00  0.00     0.030 A 
BRANCH  20  25
HETATM   25  C   UNL     1      27.754  46.884  55.426  1.00  0.00     0.418 C 
HETATM   26  F   UNL     1      26.468  46.907  54.974  1.00  0.00    -0.166 F 
HETATM   27  F   UNL     1      27.671  47.143  56.762  1.00  0.00    -0.166 F 
HETATM   28  F   UNL     1      28.360  47.974  54.877  1.00  0.00    -0.166 F 
ENDBRANCH  20  25
ENDBRANCH   1  18
TORSDOF 4
ENDMDL
MODEL 7
REMARK VINA RESULT:      -8.9      5.215      7.318
REMARK  4 active torsions:
REMARK  status: ('A' for Active; 'I' for Inactive)
REMARK    1  A    between atoms: C_3  and  C_4 
REMARK    2  A    between atoms: C_9  and  N_10 
REMARK       I    between atoms: N_10  and  C_11 
REMARK    3  A    between atoms: C_11  and  C_12 
REMARK    4  A    between atoms: C_12  and  C_13 
ROOT
HETATM    1  N   UNL     1      26.869  43.264  51.822  1.00  0.00    -0.327 N 
HETATM    2  C   UNL     1      27.068  43.238  50.462  1.00  0.00     0.227 C 
HETATM    3  O   UNL     1      27.381  44.211  49.774  1.00  0.00    -0.273 OA
HETATM    4  H   UNL     1      26.577  42.379  52.239  1.00  0.00     0.169 HD
ENDROOT
BRANCH   2   5
HETATM    5  C   UNL     1      26.874  41.904  49.766  1.00  0.00     0.165 C 
BRANCH   5   6
HETATM    6  C   UNL     1      27.796  40.726  50.020  1.00  0.00     0.074 A 
HETATM    7  N   UNL     1      28.336  40.576  51.195  1.00  0.00    -0.175 NA
HETATM    8  N   UNL     1      29.164  39.518  51.402  1.00  0.00    -0.243 N 
HETATM    9  C   UNL     1      29.507  38.562  50.478  1.00  0.00     0.272 A 
HETATM   10  H   UNL     1      29.577  39.424  52.326  1.00  0.00     0.192 HD
HETATM   11  O   UNL     1      30.274  37.644  50.741  1.00  0.00    -0.266 OA
HETATM   12  C   UNL     1      28.893  38.699  49.148  1.00  0.00     0.046 A 
HETATM   13  C   UNL     1      28.030  39.765  48.906  1.00  0.00     0.006 A 
HETATM   14  C   UNL     1      29.169  37.760  48.147  1.00  0.00     0.018 A 
HETATM   15  C   UNL     1      27.423  39.882  47.649  1.00  0.00     0.014 A 
HETATM   16  C   UNL     1      27.697  38.945  46.648  1.00  0.00     0.001 A 
HETATM   17  C   UNL     1      28.571  37.887  46.895  1.00  0.00     0.001 A 
ENDBRANCH   5   6
ENDBRANCH   2   5
BRANCH   1  18
HETATM   18  C   UNL     1      27.003  44.349  52.708  1.00  0.00     0.035 A 
HETATM   19  C   UNL     1      27.949  44.417  53.731  1.00  0.00     0.046 A 
HETATM   20  C   UNL     1      28.025  45.536  54.588  1.00  0.00     0.056 A 
HETATM   21  C   UNL     1      27.139  46.616  54.393  1.00  0.00    -0.047 A 
HETATM   22  C   UNL     1      27.168  47.835  55.276  1.00  0.00     0.049 C 
HETATM   23  C   UNL     1      26.181  46.536  53.373  1.00  0.00     0.010 A 
HETATM   24  C   UNL     1      26.117  45.416  52.541  1.00  0.00     0.030 A 
BRANCH  20  25
HETATM   25  C   UNL     1      29.072  45.557  55.682  1.00  0.00     0.418 C 
HETATM   26  F   UNL     1      29.791  44.400  55.751  1.00  0.00    -0.166 F 
HETATM   27  F   UNL     1      29.997  46.548  55.543  1.00  0.00    -0.166 F 
HETATM   28  F   UNL     1      28.529  45.731  56.919  1.00  0.00    -0.166 F 
ENDBRANCH  20  25
ENDBRANCH   1  18
TORSDOF 4
ENDMDL
MODEL 8
REMARK VINA RESULT:      -8.9      2.245      3.273
REMARK  4 active torsions:
REMARK  status: ('A' for Active; 'I' for Inactive)
REMARK    1  A    between atoms: C_3  and  C_4 
REMARK    2  A    between atoms: C_9  and  N_10 
REMARK       I    between atoms: N_10  and  C_11 
REMARK    3  A    between atoms: C_11  and  C_12 
REMARK    4  A    between atoms: C_12  and  C_13 
ROOT
HETATM    1  N   UNL     1      24.993  45.447  50.473  1.00  0.00    -0.327 N 
HETATM    2  C   UNL     1      26.313  45.169  50.211  1.00  0.00     0.227 C 
HETATM    3  O   UNL     1      26.938  45.566  49.227  1.00  0.00    -0.273 OA
HETATM    4  H   UNL     1      24.611  45.012  51.314  1.00  0.00     0.169 HD
ENDROOT
BRANCH   2   5
HETATM    5  C   UNL     1      27.041  44.295  51.215  1.00  0.00     0.165 C 
BRANCH   5   6
HETATM    6  C   UNL     1      27.350  44.776  52.621  1.00  0.00     0.074 A 
HETATM    7  N   UNL     1      26.581  45.667  53.178  1.00  0.00    -0.175 NA
HETATM    8  N   UNL     1      26.877  46.090  54.435  1.00  0.00    -0.243 N 
HETATM    9  C   UNL     1      27.934  45.671  55.205  1.00  0.00     0.272 A 
HETATM   10  H   UNL     1      26.264  46.789  54.847  1.00  0.00     0.192 HD
HETATM   11  O   UNL     1      28.140  46.114  56.329  1.00  0.00    -0.266 OA
HETATM   12  C   UNL     1      28.806  44.650  54.605  1.00  0.00     0.046 A 
HETATM   13  C   UNL     1      28.523  44.185  53.323  1.00  0.00     0.006 A 
HETATM   14  C   UNL     1      29.897  44.149  55.324  1.00  0.00     0.018 A 
HETATM   15  C   UNL     1      29.337  43.194  52.760  1.00  0.00     0.014 A 
HETATM   16  C   UNL     1      30.427  42.691  53.477  1.00  0.00     0.001 A 
HETATM   17  C   UNL     1      30.710  43.170  54.755  1.00  0.00     0.001 A 
ENDBRANCH   5   6
ENDBRANCH   2   5
BRANCH   1  18
HETATM   18  C   UNL     1      24.099  46.242  49.729  1.00  0.00     0.035 A 
HETATM   19  C   UNL     1      24.231  47.619  49.554  1.00  0.00     0.046 A 
HETATM   20  C   UNL     1      23.294  48.357  48.800  1.00  0.00     0.056 A 
HETATM   21  C   UNL     1      22.213  47.683  48.192  1.00  0.00    -0.047 A 
HETATM   22  C   UNL     1      21.179  48.413  47.378  1.00  0.00     0.049 C 
HETATM   23  C   UNL     1      22.078  46.301  48.384  1.00  0.00     0.010 A 
HETATM   24  C   UNL     1      23.012  45.591  49.142  1.00  0.00     0.030 A 
BRANCH  20  25
HETATM   25  C   UNL     1      23.486  49.851  48.641  1.00  0.00     0.418 C 
HETATM   26  F   UNL     1      23.342  50.270  47.352  1.00  0.00    -0.166 F 
HETATM   27  F   UNL     1      22.609  50.602  49.365  1.00  0.00    -0.166 F 
HETATM   28  F   UNL     1      24.727  50.259  49.028  1.00  0.00    -0.166 F 
ENDBRANCH  20  25
ENDBRANCH   1  18
TORSDOF 4
ENDMDL
MODEL 9
REMARK VINA RESULT:      -8.7      4.314      9.089
REMARK  4 active torsions:
REMARK  status: ('A' for Active; 'I' for Inactive)
REMARK    1  A    between atoms: C_3  and  C_4 
REMARK    2  A    between atoms: C_9  and  N_10 
REMARK       I    between atoms: N_10  and  C_11 
REMARK    3  A    between atoms: C_11  and  C_12 
REMARK    4  A    between atoms: C_12  and  C_13 
ROOT
HETATM    1  N   UNL     1      23.888  47.004  49.857  1.00  0.00    -0.327 N 
HETATM    2  C   UNL     1      23.910  48.228  49.232  1.00  0.00     0.227 C 
HETATM    3  O   UNL     1      24.772  49.092  49.396  1.00  0.00    -0.273 OA
HETATM    4  H   UNL     1      23.084  46.414  49.640  1.00  0.00     0.169 HD
ENDROOT
BRANCH   2   5
HETATM    5  C   UNL     1      22.771  48.529  48.275  1.00  0.00     0.165 C 
BRANCH   5   6
HETATM    6  C   UNL     1      21.319  48.341  48.674  1.00  0.00     0.074 A 
HETATM    7  N   UNL     1      20.878  47.147  48.949  1.00  0.00    -0.175 NA
HETATM    8  N   UNL     1      19.573  46.997  49.297  1.00  0.00    -0.243 N 
HETATM    9  C   UNL     1      18.638  47.998  49.390  1.00  0.00     0.272 A 
HETATM   10  H   UNL     1      19.252  46.055  49.504  1.00  0.00     0.192 HD
HETATM   11  O   UNL     1      17.473  47.778  49.699  1.00  0.00    -0.266 OA
HETATM   12  C   UNL     1      19.116  49.359  49.104  1.00  0.00     0.046 A 
HETATM   13  C   UNL     1      20.451  49.549  48.756  1.00  0.00     0.006 A 
HETATM   14  C   UNL     1      18.238  50.446  49.193  1.00  0.00     0.018 A 
HETATM   15  C   UNL     1      20.916  50.847  48.508  1.00  0.00     0.014 A 
HETATM   16  C   UNL     1      20.040  51.934  48.597  1.00  0.00     0.001 A 
HETATM   17  C   UNL     1      18.703  51.734  48.935  1.00  0.00     0.001 A 
ENDBRANCH   5   6
ENDBRANCH   2   5
BRANCH   1  18
HETATM   18  C   UNL     1      24.822  46.465  50.762  1.00  0.00     0.035 A 
HETATM   19  C   UNL     1      25.178  47.062  51.972  1.00  0.00     0.046 A 
HETATM   20  C   UNL     1      26.128  46.468  52.832  1.00  0.00     0.056 A 
HETATM   21  C   UNL     1      26.713  45.236  52.468  1.00  0.00    -0.047 A 
HETATM   22  C   UNL     1      27.734  44.556  53.341  1.00  0.00     0.049 C 
HETATM   23  C   UNL     1      26.362  44.650  51.246  1.00  0.00     0.010 A 
HETATM   24  C   UNL     1      25.426  45.257  50.405  1.00  0.00     0.030 A 
BRANCH  20  25
HETATM   25  C   UNL     1      26.477  47.159  54.134  1.00  0.00     0.418 C 
HETATM   26  F   UNL     1      25.656  48.211  54.413  1.00  0.00    -0.166 F 
HETATM   27  F   UNL     1      26.408  46.347  55.226  1.00  0.00    -0.166 F 
HETATM   28  F   UNL     1      27.742  47.665  54.131  1.00  0.00    -0.166 F 
ENDBRANCH  20  25
ENDBRANCH   1  18
TORSDOF 4
ENDMDL
MODEL 10
REMARK VINA RESULT:      -8.6      5.699      8.527
REMARK  4 active torsions:
REMARK  status: ('A' for Active; 'I' for Inactive)
REMARK    1  A    between atoms: C_3  and  C_4 
REMARK    2  A    between atoms: C_9  and  N_10 
REMARK       I    between atoms: N_10  and  C_11 
REMARK    3  A    between atoms: C_11  and  C_12 
REMARK    4  A    between atoms: C_12  and  C_13 
ROOT
HETATM    1  N   UNL     1      29.227  42.947  52.736  1.00  0.00    -0.327 N 
HETATM    2  C   UNL     1      28.504  41.800  52.511  1.00  0.00     0.227 C 
HETATM    3  O   UNL     1      27.942  41.135  53.383  1.00  0.00    -0.273 OA
HETATM    4  H   UNL     1      29.661  43.361  51.911  1.00  0.00     0.169 HD
ENDROOT
BRANCH   2   5
HETATM    5  C   UNL     1      28.407  41.322  51.074  1.00  0.00     0.165 C 
BRANCH   5   6
HETATM    6  C   UNL     1      27.088  41.300  50.324  1.00  0.00     0.074 A 
HETATM    7  N   UNL     1      26.529  40.159  50.041  1.00  0.00    -0.175 NA
HETATM    8  N   UNL     1      25.351  40.159  49.363  1.00  0.00    -0.243 N 
HETATM    9  C   UNL     1      24.667  41.267  48.926  1.00  0.00     0.272 A 
HETATM   10  H   UNL     1      24.937  39.256  49.150  1.00  0.00     0.192 HD
HETATM   11  O   UNL     1      23.613  41.182  48.307  1.00  0.00    -0.266 OA
HETATM   12  C   UNL     1      25.267  42.569  49.252  1.00  0.00     0.046 A 
HETATM   13  C   UNL     1      26.468  42.604  49.957  1.00  0.00     0.006 A 
HETATM   14  C   UNL     1      24.630  43.753  48.864  1.00  0.00     0.018 A 
HETATM   15  C   UNL     1      27.029  43.843  50.292  1.00  0.00     0.014 A 
HETATM   16  C   UNL     1      26.394  45.028  49.906  1.00  0.00     0.001 A 
HETATM   17  C   UNL     1      25.198  44.984  49.191  1.00  0.00     0.001 A 
ENDBRANCH   5   6
ENDBRANCH   2   5
BRANCH   1  18
HETATM   18  C   UNL     1      29.454  43.615  53.954  1.00  0.00     0.035 A 
HETATM   19  C   UNL     1      30.378  43.206  54.916  1.00  0.00     0.046 A 
HETATM   20  C   UNL     1      30.551  43.921  56.120  1.00  0.00     0.056 A 
HETATM   21  C   UNL     1      29.788  45.087  56.345  1.00  0.00    -0.047 A 
HETATM   22  C   UNL     1      29.925  45.892  57.610  1.00  0.00     0.049 C 
HETATM   23  C   UNL     1      28.852  45.486  55.382  1.00  0.00     0.010 A 
HETATM   24  C   UNL     1      28.689  44.759  54.201  1.00  0.00     0.030 A 
BRANCH  20  25
HETATM   25  C   UNL     1      31.569  43.432  57.129  1.00  0.00     0.418 C 
HETATM   26  F   UNL     1      31.855  44.360  58.086  1.00  0.00    -0.166 F 
HETATM   27  F   UNL     1      31.181  42.318  57.811  1.00  0.00    -0.166 F 
HETATM   28  F   UNL     1      32.761  43.113  56.552  1.00  0.00    -0.166 F 
ENDBRANCH  20  25
ENDBRANCH   1  18
TORSDOF 4
ENDMDL
