MODEL 1
REMARK VINA RESULT:      -8.2      0.000      0.000
REMARK  4 active torsions:
REMARK  status: ('A' for Active; 'I' for Inactive)
REMARK    1  A    between atoms: C_6  and  C_7 
REMARK    2  A    between atoms: C_10  and  N_11 
REMARK       I    between atoms: N_11  and  C_12 
REMARK       I    between atoms: C_12  and  N_13 
REMARK    3  A    between atoms: N_13  and  C_14 
REMARK    4  A    between atoms: C_14  and  C_15 
ROOT
HETATM    1  N   UNL     1      25.078  46.796  50.242  1.00  0.00    -0.305 N 
HETATM    2  C   UNL     1      25.435  46.624  51.557  1.00  0.00     0.322 C 
HETATM    3  N   UNL     1      25.181  45.357  52.081  1.00  0.00    -0.334 N 
HETATM    4  C   UNL     1      24.563  44.257  51.352  1.00  0.00     0.155 C 
HETATM    5  O   UNL     1      25.947  47.507  52.240  1.00  0.00    -0.247 OA
HETATM    6  H   UNL     1      24.841  45.978  49.710  1.00  0.00     0.171 HD
ENDROOT
BRANCH   1   7
HETATM    7  C   UNL     1      25.139  47.975  49.509  1.00  0.00     0.092 A 
HETATM    8  C   UNL     1      23.984  48.581  49.046  1.00  0.00     0.053 A 
HETATM    9  C   UNL     1      22.549  48.233  49.173  1.00  0.00     0.072 C 
HETATM   10  N   UNL     1      24.391  49.684  48.358  1.00  0.00    -0.280 N 
HETATM   11  H   UNL     1      23.819  50.369  47.871  1.00  0.00     0.189 HD
HETATM   12  N   UNL     1      25.712  49.857  48.347  1.00  0.00    -0.171 NA
HETATM   13  C   UNL     1      26.201  48.835  49.082  1.00  0.00     0.147 A 
BRANCH  13  14
HETATM   14  C   UNL     1      27.676  48.760  49.370  1.00  0.00     0.409 C 
HETATM   15  F   UNL     1      28.280  47.725  48.707  1.00  0.00    -0.207 F 
HETATM   16  F   UNL     1      28.324  49.879  48.933  1.00  0.00    -0.207 F 
ENDBRANCH  13  14
ENDBRANCH   1   7
BRANCH   3  17
HETATM   17  C   UNL     1      25.301  45.189  53.530  1.00  0.00     0.165 C 
BRANCH  17  18
HETATM   18  C   UNL     1      26.662  44.670  53.935  1.00  0.00    -0.039 A 
HETATM   19  C   UNL     1      27.540  45.470  54.682  1.00  0.00     0.032 A 
HETATM   20  C   UNL     1      28.804  44.990  55.029  1.00  0.00     0.034 A 
HETATM   21 CL   UNL     1      29.872  45.988  55.938  1.00  0.00    -0.084 Cl
HETATM   22  C   UNL     1      29.209  43.715  54.641  1.00  0.00     0.024 A 
HETATM   23  C   UNL     1      28.343  42.912  53.899  1.00  0.00     0.002 A 
HETATM   24  C   UNL     1      27.078  43.387  53.546  1.00  0.00     0.009 A 
ENDBRANCH  17  18
ENDBRANCH   3  17
TORSDOF 4
ENDMDL
MODEL 2
REMARK VINA RESULT:      -8.2      2.103      3.030
REMARK  4 active torsions:
REMARK  status: ('A' for Active; 'I' for Inactive)
REMARK    1  A    between atoms: C_6  and  C_7 
REMARK    2  A    between atoms: C_10  and  N_11 
REMARK       I    between atoms: N_11  and  C_12 
REMARK       I    between atoms: C_12  and  N_13 
REMARK    3  A    between atoms: N_13  and  C_14 
REMARK    4  A    between atoms: C_14  and  C_15 
ROOT
HETATM    1  N   UNL     1      26.052  47.028  50.071  1.00  0.00    -0.305 N 
HETATM    2  C   UNL     1      25.952  46.748  51.411  1.00  0.00     0.322 C 
HETATM    3  N   UNL     1      26.486  45.522  51.805  1.00  0.00    -0.334 N 
HETATM    4  C   UNL     1      27.098  44.549  50.909  1.00  0.00     0.155 C 
HETATM    5  O   UNL     1      25.438  47.512  52.225  1.00  0.00    -0.247 OA
HETATM    6  H   UNL     1      26.646  46.441  49.514  1.00  0.00     0.171 HD
ENDROOT
BRANCH   1   7
HETATM    7  C   UNL     1      25.527  48.130  49.408  1.00  0.00     0.092 A 
HETATM    8  C   UNL     1      26.353  49.142  48.953  1.00  0.00     0.053 A 
HETATM    9  C   UNL     1      27.822  49.338  49.007  1.00  0.00     0.072 C 
HETATM   10  N   UNL     1      25.533  50.066  48.378  1.00  0.00    -0.280 N 
HETATM   11  H   UNL     1      25.786  50.948  47.943  1.00  0.00     0.189 HD
HETATM   12  N   UNL     1      24.242  49.732  48.405  1.00  0.00    -0.171 NA
HETATM   13  C   UNL     1      24.211  48.522  49.004  1.00  0.00     0.147 A 
BRANCH  13  14
HETATM   14  C   UNL     1      22.906  47.782  49.124  1.00  0.00     0.409 C 
HETATM   15  F   UNL     1      22.040  48.092  48.108  1.00  0.00    -0.207 F 
HETATM   16  F   UNL     1      23.090  46.433  49.025  1.00  0.00    -0.207 F 
ENDBRANCH  13  14
ENDBRANCH   1   7
BRANCH   3  17
HETATM   17  C   UNL     1      26.186  45.058  53.160  1.00  0.00     0.165 C 
BRANCH  17  18
HETATM   18  C   UNL     1      27.359  45.235  54.098  1.00  0.00    -0.039 A 
HETATM   19  C   UNL     1      28.351  44.248  54.197  1.00  0.00     0.032 A 
HETATM   20  C   UNL     1      29.417  44.411  55.083  1.00  0.00     0.034 A 
HETATM   21 CL   UNL     1      30.621  43.186  55.200  1.00  0.00    -0.084 Cl
HETATM   22  C   UNL     1      29.511  45.552  55.878  1.00  0.00     0.024 A 
HETATM   23  C   UNL     1      28.530  46.539  55.785  1.00  0.00     0.002 A 
HETATM   24  C   UNL     1      27.460  46.381  54.902  1.00  0.00     0.009 A 
ENDBRANCH  17  18
ENDBRANCH   3  17
TORSDOF 4
ENDMDL
MODEL 3
REMARK VINA RESULT:      -8.1      5.278      6.304
REMARK  4 active torsions:
REMARK  status: ('A' for Active; 'I' for Inactive)
REMARK    1  A    between atoms: C_6  and  C_7 
REMARK    2  A    between atoms: C_10  and  N_11 
REMARK       I    between atoms: N_11  and  C_12 
REMARK       I    between atoms: C_12  and  N_13 
REMARK    3  A    between atoms: N_13  and  C_14 
REMARK    4  A    between atoms: C_14  and  C_15 
ROOT
HETATM    1  N   UNL     1      26.863  42.562  52.678  1.00  0.00    -0.305 N 
HETATM    2  C   UNL     1      27.789  43.524  53.000  1.00  0.00     0.322 C 
HETATM    3  N   UNL     1      27.500  44.270  54.141  1.00  0.00    -0.334 N 
HETATM    4  C   UNL     1      26.308  44.112  54.966  1.00  0.00     0.155 C 
HETATM    5  O   UNL     1      28.809  43.726  52.346  1.00  0.00    -0.247 OA
HETATM    6  H   UNL     1      26.162  42.340  53.361  1.00  0.00     0.171 HD
ENDROOT
BRANCH   1   7
HETATM    7  C   UNL     1      26.864  41.748  51.552  1.00  0.00     0.092 A 
HETATM    8  C   UNL     1      25.864  41.853  50.602  1.00  0.00     0.053 A 
HETATM    9  C   UNL     1      24.675  42.732  50.490  1.00  0.00     0.072 C 
HETATM   10  N   UNL     1      26.145  40.913  49.657  1.00  0.00    -0.280 N 
HETATM   11  H   UNL     1      25.624  40.694  48.812  1.00  0.00     0.189 HD
HETATM   12  N   UNL     1      27.253  40.214  49.903  1.00  0.00    -0.171 NA
HETATM   13  C   UNL     1      27.740  40.733  51.051  1.00  0.00     0.147 A 
BRANCH  13  14
HETATM   14  C   UNL     1      29.057  40.244  51.591  1.00  0.00     0.409 C 
HETATM   15  F   UNL     1      29.071  40.203  52.960  1.00  0.00    -0.207 F 
HETATM   16  F   UNL     1      29.308  38.960  51.201  1.00  0.00    -0.207 F 
ENDBRANCH  13  14
ENDBRANCH   1   7
BRANCH   3  17
HETATM   17  C   UNL     1      28.307  45.466  54.389  1.00  0.00     0.165 C 
BRANCH  17  18
HETATM   18  C   UNL     1      29.111  45.357  55.665  1.00  0.00    -0.039 A 
HETATM   19  C   UNL     1      30.180  44.453  55.762  1.00  0.00     0.032 A 
HETATM   20  C   UNL     1      30.900  44.343  56.953  1.00  0.00     0.034 A 
HETATM   21 CL   UNL     1      32.202  43.222  57.058  1.00  0.00    -0.084 Cl
HETATM   22  C   UNL     1      30.571  45.128  58.056  1.00  0.00     0.024 A 
HETATM   23  C   UNL     1      29.511  46.030  57.968  1.00  0.00     0.002 A 
HETATM   24  C   UNL     1      28.784  46.143  56.781  1.00  0.00     0.009 A 
ENDBRANCH  17  18
ENDBRANCH   3  17
TORSDOF 4
ENDMDL
MODEL 4
REMARK VINA RESULT:      -8.0      5.144      5.967
REMARK  4 active torsions:
REMARK  status: ('A' for Active; 'I' for Inactive)
REMARK    1  A    between atoms: C_6  and  C_7 
REMARK    2  A    between atoms: C_10  and  N_11 
REMARK       I    between atoms: N_11  and  C_12 
REMARK       I    between atoms: C_12  and  N_13 
REMARK    3  A    between atoms: N_13  and  C_14 
REMARK    4  A    between atoms: C_14  and  C_15 
ROOT
HETATM    1  N   UNL     1      26.475  42.288  52.199  1.00  0.00    -0.305 N 
HETATM    2  C   UNL     1      27.453  43.208  52.486  1.00  0.00     0.322 C 
HETATM    3  N   UNL     1      27.397  43.756  53.766  1.00  0.00    -0.334 N 
HETATM    4  C   UNL     1      26.387  43.441  54.769  1.00  0.00     0.155 C 
HETATM    5  O   UNL     1      28.328  43.536  51.688  1.00  0.00    -0.247 OA
HETATM    6  H   UNL     1      25.919  41.943  52.960  1.00  0.00     0.171 HD
ENDROOT
BRANCH   1   7
HETATM    7  C   UNL     1      26.251  41.662  50.979  1.00  0.00     0.092 A 
HETATM    8  C   UNL     1      25.127  41.958  50.228  1.00  0.00     0.053 A 
HETATM    9  C   UNL     1      23.996  42.892  50.441  1.00  0.00     0.072 C 
HETATM   10  N   UNL     1      25.199  41.168  49.120  1.00  0.00    -0.280 N 
HETATM   11  H   UNL     1      24.542  41.108  48.347  1.00  0.00     0.189 HD
HETATM   12  N   UNL     1      26.283  40.394  49.078  1.00  0.00    -0.171 NA
HETATM   13  C   UNL     1      26.972  40.703  50.198  1.00  0.00     0.147 A 
BRANCH  13  14
HETATM   14  C   UNL     1      28.321  40.081  50.440  1.00  0.00     0.409 C 
HETATM   15  F   UNL     1      28.739  40.242  51.735  1.00  0.00    -0.207 F 
HETATM   16  F   UNL     1      28.285  38.730  50.250  1.00  0.00    -0.207 F 
ENDBRANCH  13  14
ENDBRANCH   1   7
BRANCH   3  17
HETATM   17  C   UNL     1      28.245  44.917  54.042  1.00  0.00     0.165 C 
BRANCH  17  18
HETATM   18  C   UNL     1      29.286  44.625  55.099  1.00  0.00    -0.039 A 
HETATM   19  C   UNL     1      29.506  45.523  56.155  1.00  0.00     0.032 A 
HETATM   20  C   UNL     1      30.486  45.255  57.112  1.00  0.00     0.034 A 
HETATM   21 CL   UNL     1      30.749  46.372  58.395  1.00  0.00    -0.084 Cl
HETATM   22  C   UNL     1      31.256  44.096  57.033  1.00  0.00     0.024 A 
HETATM   23  C   UNL     1      31.044  43.198  55.988  1.00  0.00     0.002 A 
HETATM   24  C   UNL     1      30.067  43.460  55.026  1.00  0.00     0.009 A 
ENDBRANCH  17  18
ENDBRANCH   3  17
TORSDOF 4
ENDMDL
MODEL 5
REMARK VINA RESULT:      -7.9      4.143      5.180
REMARK  4 active torsions:
REMARK  status: ('A' for Active; 'I' for Inactive)
REMARK    1  A    between atoms: C_6  and  C_7 
REMARK    2  A    between atoms: C_10  and  N_11 
REMARK       I    between atoms: N_11  and  C_12 
REMARK       I    between atoms: C_12  and  N_13 
REMARK    3  A    between atoms: N_13  and  C_14 
REMARK    4  A    between atoms: C_14  and  C_15 
ROOT
HETATM    1  N   UNL     1      25.564  42.989  52.040  1.00  0.00    -0.305 N 
HETATM    2  C   UNL     1      26.601  43.849  52.303  1.00  0.00     0.322 C 
HETATM    3  N   UNL     1      26.736  44.228  53.638  1.00  0.00    -0.334 N 
HETATM    4  C   UNL     1      25.860  43.801  54.723  1.00  0.00     0.155 C 
HETATM    5  O   UNL     1      27.371  44.264  51.441  1.00  0.00    -0.247 OA
HETATM    6  H   UNL     1      25.103  42.558  52.821  1.00  0.00     0.171 HD
ENDROOT
BRANCH   1   7
HETATM    7  C   UNL     1      25.156  42.531  50.793  1.00  0.00     0.092 A 
HETATM    8  C   UNL     1      25.649  41.344  50.280  1.00  0.00     0.053 A 
HETATM    9  C   UNL     1      26.601  40.340  50.813  1.00  0.00     0.072 C 
HETATM   10  N   UNL     1      25.075  41.200  49.053  1.00  0.00    -0.280 N 
HETATM   11  H   UNL     1      25.207  40.450  48.381  1.00  0.00     0.189 HD
HETATM   12  N   UNL     1      24.237  42.185  48.730  1.00  0.00    -0.171 NA
HETATM   13  C   UNL     1      24.239  43.006  49.802  1.00  0.00     0.147 A 
BRANCH  13  14
HETATM   14  C   UNL     1      23.319  44.196  49.833  1.00  0.00     0.409 C 
HETATM   15  F   UNL     1      22.083  43.882  50.335  1.00  0.00    -0.207 F 
HETATM   16  F   UNL     1      23.795  45.170  50.663  1.00  0.00    -0.207 F 
ENDBRANCH  13  14
ENDBRANCH   1   7
BRANCH   3  17
HETATM   17  C   UNL     1      27.652  45.329  53.939  1.00  0.00     0.165 C 
BRANCH  17  18
HETATM   18  C   UNL     1      28.799  44.893  54.821  1.00  0.00    -0.039 A 
HETATM   19  C   UNL     1      29.142  45.629  55.966  1.00  0.00     0.032 A 
HETATM   20  C   UNL     1      30.219  45.231  56.760  1.00  0.00     0.034 A 
HETATM   21 CL   UNL     1      30.632  46.150  58.155  1.00  0.00    -0.084 Cl
HETATM   22  C   UNL     1      30.964  44.101  56.429  1.00  0.00     0.024 A 
HETATM   23  C   UNL     1      30.630  43.363  55.294  1.00  0.00     0.002 A 
HETATM   24  C   UNL     1      29.556  43.757  54.494  1.00  0.00     0.009 A 
ENDBRANCH  17  18
ENDBRANCH   3  17
TORSDOF 4
ENDMDL
MODEL 6
REMARK VINA RESULT:      -7.7      2.388      3.572
REMARK  4 active torsions:
REMARK  status: ('A' for Active; 'I' for Inactive)
REMARK    1  A    between atoms: C_6  and  C_7 
REMARK    2  A    between atoms: C_10  and  N_11 
REMARK       I    between atoms: N_11  and  C_12 
REMARK       I    between atoms: C_12  and  N_13 
REMARK    3  A    between atoms: N_13  and  C_14 
REMARK    4  A    between atoms: C_14  and  C_15 
ROOT
HETATM    1  N   UNL     1      25.395  44.408  52.012  1.00  0.00    -0.305 N 
HETATM    2  C   UNL     1      26.712  44.029  51.946  1.00  0.00     0.322 C 
HETATM    3  N   UNL     1      27.235  43.484  53.118  1.00  0.00    -0.334 N 
HETATM    4  C   UNL     1      26.500  43.322  54.367  1.00  0.00     0.155 C 
HETATM    5  O   UNL     1      27.400  44.147  50.935  1.00  0.00    -0.247 OA
HETATM    6  H   UNL     1      24.861  44.109  52.808  1.00  0.00     0.171 HD
ENDROOT
BRANCH   1   7
HETATM    7  C   UNL     1      24.662  45.054  51.025  1.00  0.00     0.092 A 
HETATM    8  C   UNL     1      23.703  44.373  50.296  1.00  0.00     0.053 A 
HETATM    9  C   UNL     1      23.220  42.972  50.337  1.00  0.00     0.072 C 
HETATM   10  N   UNL     1      23.195  45.275  49.410  1.00  0.00    -0.280 N 
HETATM   11  H   UNL     1      22.476  45.131  48.707  1.00  0.00     0.189 HD
HETATM   12  N   UNL     1      23.732  46.491  49.511  1.00  0.00    -0.171 NA
HETATM   13  C   UNL     1      24.617  46.395  50.526  1.00  0.00     0.147 A 
BRANCH  13  14
HETATM   14  C   UNL     1      25.353  47.622  50.993  1.00  0.00     0.409 C 
HETATM   15  F   UNL     1      26.462  47.308  51.735  1.00  0.00    -0.207 F 
HETATM   16  F   UNL     1      25.833  48.344  49.938  1.00  0.00    -0.207 F 
ENDBRANCH  13  14
ENDBRANCH   1   7
BRANCH   3  17
HETATM   17  C   UNL     1      28.685  43.299  53.190  1.00  0.00     0.165 C 
BRANCH  17  18
HETATM   18  C   UNL     1      29.293  44.010  54.377  1.00  0.00    -0.039 A 
HETATM   19  C   UNL     1      30.290  43.393  55.148  1.00  0.00     0.032 A 
HETATM   20  C   UNL     1      30.828  44.049  56.256  1.00  0.00     0.034 A 
HETATM   21 CL   UNL     1      32.043  43.273  57.197  1.00  0.00    -0.084 Cl
HETATM   22  C   UNL     1      30.385  45.321  56.611  1.00  0.00     0.024 A 
HETATM   23  C   UNL     1      29.395  45.943  55.851  1.00  0.00     0.002 A 
HETATM   24  C   UNL     1      28.851  45.292  54.741  1.00  0.00     0.009 A 
ENDBRANCH  17  18
ENDBRANCH   3  17
TORSDOF 4
ENDMDL
MODEL 7
REMARK VINA RESULT:      -7.6      3.552      4.867
REMARK  4 active torsions:
REMARK  status: ('A' for Active; 'I' for Inactive)
REMARK    1  A    between atoms: C_6  and  C_7 
REMARK    2  A    between atoms: C_10  and  N_11 
REMARK       I    between atoms: N_11  and  C_12 
REMARK       I    between atoms: C_12  and  N_13 
REMARK    3  A    between atoms: N_13  and  C_14 
REMARK    4  A    between atoms: C_14  and  C_15 
ROOT
HETATM    1  N   UNL     1      26.540  42.592  51.977  1.00  0.00    -0.305 N 
HETATM    2  C   UNL     1      27.857  42.974  52.033  1.00  0.00     0.322 C 
HETATM    3  N   UNL     1      28.667  42.199  52.862  1.00  0.00    -0.334 N 
HETATM    4  C   UNL     1      28.209  41.067  53.659  1.00  0.00     0.155 C 
HETATM    5  O   UNL     1      28.313  43.925  51.403  1.00  0.00    -0.247 OA
HETATM    6  H   UNL     1      26.293  41.703  52.372  1.00  0.00     0.171 HD
ENDROOT
BRANCH   1   7
HETATM    7  C   UNL     1      25.512  43.240  51.304  1.00  0.00     0.092 A 
HETATM    8  C   UNL     1      24.855  42.625  50.253  1.00  0.00     0.053 A 
HETATM    9  C   UNL     1      25.004  41.292  49.621  1.00  0.00     0.072 C 
HETATM   10  N   UNL     1      23.934  43.525  49.808  1.00  0.00    -0.280 N 
HETATM   11  H   UNL     1      23.274  43.424  49.042  1.00  0.00     0.189 HD
HETATM   12  N   UNL     1      23.925  44.670  50.491  1.00  0.00    -0.171 NA
HETATM   13  C   UNL     1      24.865  44.510  51.447  1.00  0.00     0.147 A 
BRANCH  13  14
HETATM   14  C   UNL     1      25.069  45.583  52.481  1.00  0.00     0.409 C 
HETATM   15  F   UNL     1      25.087  45.078  53.755  1.00  0.00    -0.207 F 
HETATM   16  F   UNL     1      26.281  46.194  52.331  1.00  0.00    -0.207 F 
ENDBRANCH  13  14
ENDBRANCH   1   7
BRANCH   3  17
HETATM   17  C   UNL     1      30.008  42.703  53.162  1.00  0.00     0.165 C 
BRANCH  17  18
HETATM   18  C   UNL     1      30.035  43.538  54.422  1.00  0.00    -0.039 A 
HETATM   19  C   UNL     1      29.139  44.604  54.594  1.00  0.00     0.032 A 
HETATM   20  C   UNL     1      29.190  45.384  55.751  1.00  0.00     0.034 A 
HETATM   21 CL   UNL     1      28.090  46.694  55.942  1.00  0.00    -0.084 Cl
HETATM   22  C   UNL     1      30.125  45.114  56.747  1.00  0.00     0.024 A 
HETATM   23  C   UNL     1      31.019  44.056  56.586  1.00  0.00     0.002 A 
HETATM   24  C   UNL     1      30.976  43.273  55.430  1.00  0.00     0.009 A 
ENDBRANCH  17  18
ENDBRANCH   3  17
TORSDOF 4
ENDMDL
MODEL 8
REMARK VINA RESULT:      -7.6      3.993      5.105
REMARK  4 active torsions:
REMARK  status: ('A' for Active; 'I' for Inactive)
REMARK    1  A    between atoms: C_6  and  C_7 
REMARK    2  A    between atoms: C_10  and  N_11 
REMARK       I    between atoms: N_11  and  C_12 
REMARK       I    between atoms: C_12  and  N_13 
REMARK    3  A    between atoms: N_13  and  C_14 
REMARK    4  A    between atoms: C_14  and  C_15 
ROOT
HETATM    1  N   UNL     1      26.282  42.647  51.961  1.00  0.00    -0.305 N 
HETATM    2  C   UNL     1      27.602  43.023  51.946  1.00  0.00     0.322 C 
HETATM    3  N   UNL     1      28.442  42.277  52.772  1.00  0.00    -0.334 N 
HETATM    4  C   UNL     1      28.013  41.182  53.634  1.00  0.00     0.155 C 
HETATM    5  O   UNL     1      28.036  43.943  51.258  1.00  0.00    -0.247 OA
HETATM    6  H   UNL     1      26.048  41.777  52.403  1.00  0.00     0.171 HD
ENDROOT
BRANCH   1   7
HETATM    7  C   UNL     1      25.230  43.274  51.305  1.00  0.00     0.092 A 
HETATM    8  C   UNL     1      24.771  44.511  51.723  1.00  0.00     0.053 A 
HETATM    9  C   UNL     1      25.193  45.420  52.815  1.00  0.00     0.072 C 
HETATM   10  N   UNL     1      23.735  44.825  50.895  1.00  0.00    -0.280 N 
HETATM   11  H   UNL     1      23.151  45.656  50.906  1.00  0.00     0.189 HD
HETATM   12  N   UNL     1      23.491  43.905  49.962  1.00  0.00    -0.171 NA
HETATM   13  C   UNL     1      24.423  42.949  50.167  1.00  0.00     0.147 A 
BRANCH  13  14
HETATM   14  C   UNL     1      24.513  41.780  49.225  1.00  0.00     0.409 C 
HETATM   15  F   UNL     1      25.210  42.086  48.085  1.00  0.00    -0.207 F 
HETATM   16  F   UNL     1      25.202  40.743  49.786  1.00  0.00    -0.207 F 
ENDBRANCH  13  14
ENDBRANCH   1   7
BRANCH   3  17
HETATM   17  C   UNL     1      29.797  42.785  52.994  1.00  0.00     0.165 C 
BRANCH  17  18
HETATM   18  C   UNL     1      29.908  43.573  54.279  1.00  0.00    -0.039 A 
HETATM   19  C   UNL     1      29.054  44.657  54.530  1.00  0.00     0.032 A 
HETATM   20  C   UNL     1      29.181  45.393  55.709  1.00  0.00     0.034 A 
HETATM   21 CL   UNL     1      28.131  46.727  55.996  1.00  0.00    -0.084 Cl
HETATM   22  C   UNL     1      30.153  45.062  56.650  1.00  0.00     0.024 A 
HETATM   23  C   UNL     1      31.007  43.985  56.410  1.00  0.00     0.002 A 
HETATM   24  C   UNL     1      30.886  43.246  55.232  1.00  0.00     0.009 A 
ENDBRANCH  17  18
ENDBRANCH   3  17
TORSDOF 4
ENDMDL
MODEL 9
REMARK VINA RESULT:      -7.3      2.407      3.210
REMARK  4 active torsions:
REMARK  status: ('A' for Active; 'I' for Inactive)
REMARK    1  A    between atoms: C_6  and  C_7 
REMARK    2  A    between atoms: C_10  and  N_11 
REMARK       I    between atoms: N_11  and  C_12 
REMARK       I    between atoms: C_12  and  N_13 
REMARK    3  A    between atoms: N_13  and  C_14 
REMARK    4  A    between atoms: C_14  and  C_15 
ROOT
HETATM    1  N   UNL     1      25.072  45.229  50.101  1.00  0.00    -0.305 N 
HETATM    2  C   UNL     1      25.207  44.821  51.405  1.00  0.00     0.322 C 
HETATM    3  N   UNL     1      26.465  44.325  51.745  1.00  0.00    -0.334 N 
HETATM    4  C   UNL     1      27.591  44.196  50.829  1.00  0.00     0.155 C 
HETATM    5  O   UNL     1      24.301  44.885  52.231  1.00  0.00    -0.247 OA
HETATM    6  H   UNL     1      25.905  45.315  49.549  1.00  0.00     0.171 HD
ENDROOT
BRANCH   1   7
HETATM    7  C   UNL     1      23.910  45.676  49.484  1.00  0.00     0.092 A 
HETATM    8  C   UNL     1      22.969  44.778  49.011  1.00  0.00     0.053 A 
HETATM    9  C   UNL     1      22.903  43.297  49.021  1.00  0.00     0.072 C 
HETATM   10  N   UNL     1      21.981  45.531  48.452  1.00  0.00    -0.280 N 
HETATM   11  H   UNL     1      21.130  45.215  47.997  1.00  0.00     0.189 HD
HETATM   12  N   UNL     1      22.191  46.845  48.534  1.00  0.00    -0.171 NA
HETATM   13  C   UNL     1      23.360  46.967  49.201  1.00  0.00     0.147 A 
BRANCH  13  14
HETATM   14  C   UNL     1      23.872  48.334  49.566  1.00  0.00     0.409 C 
HETATM   15  F   UNL     1      25.131  48.562  49.076  1.00  0.00    -0.207 F 
HETATM   16  F   UNL     1      23.100  49.316  49.016  1.00  0.00    -0.207 F 
ENDBRANCH  13  14
ENDBRANCH   1   7
BRANCH   3  17
HETATM   17  C   UNL     1      26.597  43.644  53.035  1.00  0.00     0.165 C 
BRANCH  17  18
HETATM   18  C   UNL     1      27.603  44.321  53.938  1.00  0.00    -0.039 A 
HETATM   19  C   UNL     1      28.733  43.627  54.397  1.00  0.00     0.032 A 
HETATM   20  C   UNL     1      29.643  44.254  55.250  1.00  0.00     0.034 A 
HETATM   21 CL   UNL     1      31.018  43.385  55.813  1.00  0.00    -0.084 Cl
HETATM   22  C   UNL     1      29.444  45.573  55.653  1.00  0.00     0.024 A 
HETATM   23  C   UNL     1      28.324  46.271  55.201  1.00  0.00     0.002 A 
HETATM   24  C   UNL     1      27.409  45.649  54.349  1.00  0.00     0.009 A 
ENDBRANCH  17  18
ENDBRANCH   3  17
TORSDOF 4
ENDMDL
MODEL 10
REMARK VINA RESULT:      -7.3      3.320      4.412
REMARK  4 active torsions:
REMARK  status: ('A' for Active; 'I' for Inactive)
REMARK    1  A    between atoms: C_6  and  C_7 
REMARK    2  A    between atoms: C_10  and  N_11 
REMARK       I    between atoms: N_11  and  C_12 
REMARK       I    between atoms: C_12  and  N_13 
REMARK    3  A    between atoms: N_13  and  C_14 
REMARK    4  A    between atoms: C_14  and  C_15 
ROOT
HETATM    1  N   UNL     1      26.172  44.249  50.932  1.00  0.00    -0.305 N 
HETATM    2  C   UNL     1      26.353  43.968  52.264  1.00  0.00     0.322 C 
HETATM    3  N   UNL     1      27.646  43.590  52.622  1.00  0.00    -0.334 N 
HETATM    4  C   UNL     1      28.766  43.456  51.698  1.00  0.00     0.155 C 
HETATM    5  O   UNL     1      25.455  44.044  53.099  1.00  0.00    -0.247 OA
HETATM    6  H   UNL     1      26.990  44.343  50.358  1.00  0.00     0.171 HD
ENDROOT
BRANCH   1   7
HETATM    7  C   UNL     1      24.974  44.561  50.301  1.00  0.00     0.092 A 
HETATM    8  C   UNL     1      24.470  45.849  50.336  1.00  0.00     0.053 A 
HETATM    9  C   UNL     1      24.969  47.104  50.945  1.00  0.00     0.072 C 
HETATM   10  N   UNL     1      23.292  45.808  49.652  1.00  0.00    -0.280 N 
HETATM   11  H   UNL     1      22.639  46.567  49.478  1.00  0.00     0.189 HD
HETATM   12  N   UNL     1      22.994  44.605  49.160  1.00  0.00    -0.171 NA
HETATM   13  C   UNL     1      24.035  43.820  49.514  1.00  0.00     0.147 A 
BRANCH  13  14
HETATM   14  C   UNL     1      24.088  42.393  49.041  1.00  0.00     0.409 C 
HETATM   15  F   UNL     1      24.835  42.254  47.901  1.00  0.00    -0.207 F 
HETATM   16  F   UNL     1      24.700  41.588  49.958  1.00  0.00    -0.207 F 
ENDBRANCH  13  14
ENDBRANCH   1   7
BRANCH   3  17
HETATM   17  C   UNL     1      27.842  43.036  53.963  1.00  0.00     0.165 C 
BRANCH  17  18
HETATM   18  C   UNL     1      28.779  43.880  54.797  1.00  0.00    -0.039 A 
HETATM   19  C   UNL     1      29.921  43.312  55.385  1.00  0.00     0.032 A 
HETATM   20  C   UNL     1      30.766  44.094  56.173  1.00  0.00     0.034 A 
HETATM   21 CL   UNL     1      32.157  43.380  56.895  1.00  0.00    -0.084 Cl
HETATM   22  C   UNL     1      30.491  45.443  56.386  1.00  0.00     0.024 A 
HETATM   23  C   UNL     1      29.360  46.016  55.805  1.00  0.00     0.002 A 
HETATM   24  C   UNL     1      28.508  45.239  55.017  1.00  0.00     0.009 A 
ENDBRANCH  17  18
ENDBRANCH   3  17
TORSDOF 4
ENDMDL
