MODEL 1
REMARK VINA RESULT:      -8.6      0.000      0.000
REMARK  6 active torsions:
REMARK  status: ('A' for Active; 'I' for Inactive)
REMARK    1  A    between atoms: C_3  and  C_4 
REMARK    2  A    between atoms: C_4  and  O_5 
REMARK    3  A    between atoms: O_5  and  C_6 
REMARK    4  A    between atoms: C_9  and  C_10 
REMARK    5  A    between atoms: C_15  and  N_16 
REMARK       I    between atoms: N_16  and  C_17 
REMARK       I    between atoms: C_17  and  N_18 
REMARK    6  A    between atoms: N_18  and  C_19 
ROOT
HETATM    1  C   UNL     1      30.579  45.251  56.505  1.00  0.00     0.147 C 
HETATM    2  C   UNL     1      31.375  44.022  56.913  1.00  0.00    -0.016 C 
HETATM    3  N   UNL     1      32.035  43.003  57.252  1.00  0.00    -0.101 N 
ENDROOT
BRANCH   1   4
HETATM    4  C   UNL     1      29.478  44.887  55.539  1.00  0.00    -0.046 A 
HETATM    5  C   UNL     1      28.354  45.716  55.392  1.00  0.00     0.011 A 
HETATM    6  C   UNL     1      27.304  45.343  54.552  1.00  0.00     0.037 A 
HETATM    7  C   UNL     1      27.376  44.148  53.843  1.00  0.00     0.069 A 
HETATM    8  C   UNL     1      28.472  43.300  53.995  1.00  0.00     0.037 A 
HETATM    9  C   UNL     1      29.523  43.673  54.836  1.00  0.00     0.011 A 
BRANCH   7  10
HETATM   10  O   UNL     1      26.299  43.787  53.080  1.00  0.00    -0.347 OA
BRANCH  10  11
HETATM   11  C   UNL     1      26.668  43.624  51.705  1.00  0.00     0.216 C 
BRANCH  11  12
HETATM   12  C   UNL     1      25.418  43.511  50.856  1.00  0.00    -0.007 A 
HETATM   13  C   UNL     1      25.202  42.330  50.123  1.00  0.00     0.011 A 
HETATM   14  C   UNL     1      24.028  42.146  49.394  1.00  0.00     0.001 A 
HETATM   15  C   UNL     1      23.053  43.138  49.386  1.00  0.00     0.002 A 
HETATM   16  C   UNL     1      23.246  44.312  50.116  1.00  0.00     0.030 A 
HETATM   17  C   UNL     1      24.414  44.501  50.866  1.00  0.00     0.044 A 
BRANCH  17  18
HETATM   18  N   UNL     1      24.646  45.694  51.575  1.00  0.00    -0.308 N 
HETATM   19  C   UNL     1      25.344  46.826  51.244  1.00  0.00     0.325 C 
HETATM   20  N   UNL     1      25.542  47.034  49.903  1.00  0.00    -0.306 N 
HETATM   21  O   UNL     1      25.643  47.619  52.133  1.00  0.00    -0.247 OA
HETATM   22  H   UNL     1      25.067  46.417  49.262  1.00  0.00     0.171 HD
HETATM   23  H   UNL     1      24.266  45.735  52.518  1.00  0.00     0.170 HD
BRANCH  20  24
HETATM   24  C   UNL     1      26.130  48.161  49.367  1.00  0.00     0.072 A 
HETATM   25  C   UNL     1      25.577  49.312  48.763  1.00  0.00     0.169 A 
HETATM   26  N   UNL     1      26.517  50.172  48.354  1.00  0.00    -0.185 NA
HETATM   27  N   UNL     1      27.666  49.568  48.695  1.00  0.00    -0.287 N 
HETATM   28  H   UNL     1      28.537  50.037  48.469  1.00  0.00     0.188 HD
HETATM   29  C   UNL     1      27.488  48.365  49.315  1.00  0.00     0.140 A 
ENDBRANCH  20  24
ENDBRANCH  17  18
ENDBRANCH  11  12
ENDBRANCH  10  11
ENDBRANCH   7  10
ENDBRANCH   1   4
TORSDOF 6
ENDMDL
MODEL 2
REMARK VINA RESULT:      -8.5      2.967      4.899
REMARK  6 active torsions:
REMARK  status: ('A' for Active; 'I' for Inactive)
REMARK    1  A    between atoms: C_3  and  C_4 
REMARK    2  A    between atoms: C_4  and  O_5 
REMARK    3  A    between atoms: O_5  and  C_6 
REMARK    4  A    between atoms: C_9  and  C_10 
REMARK    5  A    between atoms: C_15  and  N_16 
REMARK       I    between atoms: N_16  and  C_17 
REMARK       I    between atoms: C_17  and  N_18 
REMARK    6  A    between atoms: N_18  and  C_19 
ROOT
HETATM    1  C   UNL     1      31.202  44.336  56.117  1.00  0.00     0.147 C 
HETATM    2  C   UNL     1      30.800  44.914  57.465  1.00  0.00    -0.016 C 
HETATM    3  N   UNL     1      30.467  45.392  58.582  1.00  0.00    -0.101 N 
ENDROOT
BRANCH   1   4
HETATM    4  C   UNL     1      29.992  44.108  55.243  1.00  0.00    -0.046 A 
HETATM    5  C   UNL     1      28.857  44.926  55.368  1.00  0.00     0.011 A 
HETATM    6  C   UNL     1      27.714  44.670  54.609  1.00  0.00     0.037 A 
HETATM    7  C   UNL     1      27.702  43.607  53.713  1.00  0.00     0.069 A 
HETATM    8  C   UNL     1      28.809  42.769  53.594  1.00  0.00     0.037 A 
HETATM    9  C   UNL     1      29.953  43.023  54.353  1.00  0.00     0.011 A 
BRANCH   7  10
HETATM   10  O   UNL     1      26.541  43.350  53.035  1.00  0.00    -0.347 OA
BRANCH  10  11
HETATM   11  C   UNL     1      25.595  44.412  53.204  1.00  0.00     0.216 C 
BRANCH  11  12
HETATM   12  C   UNL     1      25.601  45.296  51.972  1.00  0.00    -0.007 A 
HETATM   13  C   UNL     1      26.012  46.635  52.103  1.00  0.00     0.011 A 
HETATM   14  C   UNL     1      26.114  47.463  50.986  1.00  0.00     0.001 A 
HETATM   15  C   UNL     1      25.807  46.966  49.723  1.00  0.00     0.002 A 
HETATM   16  C   UNL     1      25.409  45.637  49.574  1.00  0.00     0.030 A 
HETATM   17  C   UNL     1      25.318  44.790  50.687  1.00  0.00     0.044 A 
BRANCH  17  18
HETATM   18  N   UNL     1      24.878  43.459  50.564  1.00  0.00    -0.308 N 
HETATM   19  C   UNL     1      25.514  42.331  50.118  1.00  0.00     0.325 C 
HETATM   20  N   UNL     1      26.883  42.369  50.141  1.00  0.00    -0.306 N 
HETATM   21  O   UNL     1      24.839  41.343  49.838  1.00  0.00    -0.247 OA
HETATM   22  H   UNL     1      27.319  43.161  50.588  1.00  0.00     0.171 HD
HETATM   23  H   UNL     1      23.907  43.285  50.815  1.00  0.00     0.170 HD
BRANCH  20  24
HETATM   24  C   UNL     1      27.699  41.301  49.828  1.00  0.00     0.072 A 
HETATM   25  C   UNL     1      28.120  40.772  48.588  1.00  0.00     0.169 A 
HETATM   26  N   UNL     1      28.906  39.699  48.735  1.00  0.00    -0.185 NA
HETATM   27  N   UNL     1      28.984  39.545  50.065  1.00  0.00    -0.287 N 
HETATM   28  H   UNL     1      29.530  38.769  50.425  1.00  0.00     0.188 HD
HETATM   29  C   UNL     1      28.286  40.486  50.767  1.00  0.00     0.140 A 
ENDBRANCH  20  24
ENDBRANCH  17  18
ENDBRANCH  11  12
ENDBRANCH  10  11
ENDBRANCH   7  10
ENDBRANCH   1   4
TORSDOF 6
ENDMDL
MODEL 3
REMARK VINA RESULT:      -8.3      1.942      2.825
REMARK  6 active torsions:
REMARK  status: ('A' for Active; 'I' for Inactive)
REMARK    1  A    between atoms: C_3  and  C_4 
REMARK    2  A    between atoms: C_4  and  O_5 
REMARK    3  A    between atoms: O_5  and  C_6 
REMARK    4  A    between atoms: C_9  and  C_10 
REMARK    5  A    between atoms: C_15  and  N_16 
REMARK       I    between atoms: N_16  and  C_17 
REMARK       I    between atoms: C_17  and  N_18 
REMARK    6  A    between atoms: N_18  and  C_19 
ROOT
HETATM    1  C   UNL     1      30.915  44.554  56.344  1.00  0.00     0.147 C 
HETATM    2  C   UNL     1      30.106  45.416  57.300  1.00  0.00    -0.016 C 
HETATM    3  N   UNL     1      29.435  46.130  58.093  1.00  0.00    -0.101 N 
ENDROOT
BRANCH   1   4
HETATM    4  C   UNL     1      30.068  44.093  55.182  1.00  0.00    -0.046 A 
HETATM    5  C   UNL     1      30.493  43.033  54.366  1.00  0.00     0.011 A 
HETATM    6  C   UNL     1      29.744  42.655  53.251  1.00  0.00     0.037 A 
HETATM    7  C   UNL     1      28.562  43.323  52.952  1.00  0.00     0.069 A 
HETATM    8  C   UNL     1      28.138  44.395  53.734  1.00  0.00     0.037 A 
HETATM    9  C   UNL     1      28.886  44.774  54.851  1.00  0.00     0.011 A 
BRANCH   7  10
HETATM   10  O   UNL     1      27.891  42.966  51.814  1.00  0.00    -0.347 OA
BRANCH  10  11
HETATM   11  C   UNL     1      27.490  41.591  51.857  1.00  0.00     0.216 C 
BRANCH  11  12
HETATM   12  C   UNL     1      26.808  41.221  50.555  1.00  0.00    -0.007 A 
HETATM   13  C   UNL     1      27.474  40.360  49.664  1.00  0.00     0.011 A 
HETATM   14  C   UNL     1      26.854  39.926  48.493  1.00  0.00     0.001 A 
HETATM   15  C   UNL     1      25.560  40.344  48.196  1.00  0.00     0.002 A 
HETATM   16  C   UNL     1      24.881  41.188  49.076  1.00  0.00     0.030 A 
HETATM   17  C   UNL     1      25.487  41.619  50.263  1.00  0.00     0.044 A 
BRANCH  17  18
HETATM   18  N   UNL     1      24.836  42.504  51.142  1.00  0.00    -0.308 N 
HETATM   19  C   UNL     1      24.909  43.865  51.278  1.00  0.00     0.325 C 
HETATM   20  N   UNL     1      25.374  44.550  50.186  1.00  0.00    -0.306 N 
HETATM   21  O   UNL     1      24.463  44.383  52.300  1.00  0.00    -0.247 OA
HETATM   22  H   UNL     1      25.513  44.029  49.334  1.00  0.00     0.171 HD
HETATM   23  H   UNL     1      24.220  42.077  51.831  1.00  0.00     0.170 HD
BRANCH  20  24
HETATM   24  C   UNL     1      25.426  45.926  50.092  1.00  0.00     0.072 A 
HETATM   25  C   UNL     1      24.444  46.919  50.299  1.00  0.00     0.169 A 
HETATM   26  N   UNL     1      24.915  48.152  50.078  1.00  0.00    -0.185 NA
HETATM   27  N   UNL     1      26.193  47.944  49.729  1.00  0.00    -0.287 N 
HETATM   28  H   UNL     1      26.762  48.751  49.497  1.00  0.00     0.188 HD
HETATM   29  C   UNL     1      26.552  46.627  49.732  1.00  0.00     0.140 A 
ENDBRANCH  20  24
ENDBRANCH  17  18
ENDBRANCH  11  12
ENDBRANCH  10  11
ENDBRANCH   7  10
ENDBRANCH   1   4
TORSDOF 6
ENDMDL
MODEL 4
REMARK VINA RESULT:      -8.2      3.840      7.812
REMARK  6 active torsions:
REMARK  status: ('A' for Active; 'I' for Inactive)
REMARK    1  A    between atoms: C_3  and  C_4 
REMARK    2  A    between atoms: C_4  and  O_5 
REMARK    3  A    between atoms: O_5  and  C_6 
REMARK    4  A    between atoms: C_9  and  C_10 
REMARK    5  A    between atoms: C_15  and  N_16 
REMARK       I    between atoms: N_16  and  C_17 
REMARK       I    between atoms: C_17  and  N_18 
REMARK    6  A    between atoms: N_18  and  C_19 
ROOT
HETATM    1  C   UNL     1      27.140  48.627  49.103  1.00  0.00     0.147 C 
HETATM    2  C   UNL     1      25.892  49.361  48.640  1.00  0.00    -0.016 C 
HETATM    3  N   UNL     1      24.857  49.970  48.256  1.00  0.00    -0.101 N 
ENDROOT
BRANCH   1   4
HETATM    4  C   UNL     1      26.780  47.419  49.935  1.00  0.00    -0.046 A 
HETATM    5  C   UNL     1      27.210  46.137  49.556  1.00  0.00     0.011 A 
HETATM    6  C   UNL     1      26.818  45.015  50.286  1.00  0.00     0.037 A 
HETATM    7  C   UNL     1      26.008  45.166  51.406  1.00  0.00     0.069 A 
HETATM    8  C   UNL     1      25.550  46.427  51.783  1.00  0.00     0.037 A 
HETATM    9  C   UNL     1      25.941  47.551  51.053  1.00  0.00     0.011 A 
BRANCH   7  10
HETATM   10  O   UNL     1      25.592  44.036  52.058  1.00  0.00    -0.347 OA
BRANCH  10  11
HETATM   11  C   UNL     1      25.930  44.085  53.449  1.00  0.00     0.216 C 
BRANCH  11  12
HETATM   12  C   UNL     1      27.371  43.654  53.636  1.00  0.00    -0.007 A 
HETATM   13  C   UNL     1      28.249  44.510  54.326  1.00  0.00     0.011 A 
HETATM   14  C   UNL     1      29.560  44.122  54.595  1.00  0.00     0.001 A 
HETATM   15  C   UNL     1      30.014  42.875  54.179  1.00  0.00     0.002 A 
HETATM   16  C   UNL     1      29.154  42.008  53.503  1.00  0.00     0.030 A 
HETATM   17  C   UNL     1      27.829  42.380  53.241  1.00  0.00     0.044 A 
BRANCH  17  18
HETATM   18  N   UNL     1      26.957  41.539  52.524  1.00  0.00    -0.308 N 
HETATM   19  C   UNL     1      27.171  40.714  51.452  1.00  0.00     0.325 C 
HETATM   20  N   UNL     1      28.469  40.323  51.248  1.00  0.00    -0.306 N 
HETATM   21  O   UNL     1      26.201  40.296  50.824  1.00  0.00    -0.247 OA
HETATM   22  H   UNL     1      29.145  40.567  51.957  1.00  0.00     0.171 HD
HETATM   23  H   UNL     1      25.982  41.554  52.815  1.00  0.00     0.170 HD
BRANCH  20  24
HETATM   24  C   UNL     1      28.870  39.418  50.287  1.00  0.00     0.072 A 
HETATM   25  C   UNL     1      28.864  39.481  48.877  1.00  0.00     0.169 A 
HETATM   26  N   UNL     1      29.329  38.358  48.317  1.00  0.00    -0.185 NA
HETATM   27  N   UNL     1      29.628  37.582  49.369  1.00  0.00    -0.287 N 
HETATM   28  H   UNL     1      29.995  36.653  49.188  1.00  0.00     0.188 HD
HETATM   29  C   UNL     1      29.381  38.175  50.574  1.00  0.00     0.140 A 
ENDBRANCH  20  24
ENDBRANCH  17  18
ENDBRANCH  11  12
ENDBRANCH  10  11
ENDBRANCH   7  10
ENDBRANCH   1   4
TORSDOF 6
ENDMDL
MODEL 5
REMARK VINA RESULT:      -8.0      3.092      5.257
REMARK  6 active torsions:
REMARK  status: ('A' for Active; 'I' for Inactive)
REMARK    1  A    between atoms: C_3  and  C_4 
REMARK    2  A    between atoms: C_4  and  O_5 
REMARK    3  A    between atoms: O_5  and  C_6 
REMARK    4  A    between atoms: C_9  and  C_10 
REMARK    5  A    between atoms: C_15  and  N_16 
REMARK       I    between atoms: N_16  and  C_17 
REMARK       I    between atoms: C_17  and  N_18 
REMARK    6  A    between atoms: N_18  and  C_19 
ROOT
HETATM    1  C   UNL     1      28.687  44.029  54.938  1.00  0.00     0.147 C 
HETATM    2  C   UNL     1      29.679  43.329  54.023  1.00  0.00    -0.016 C 
HETATM    3  N   UNL     1      30.501  42.749  53.265  1.00  0.00    -0.101 N 
ENDROOT
BRANCH   1   4
HETATM    4  C   UNL     1      27.788  44.955  54.154  1.00  0.00    -0.046 A 
HETATM    5  C   UNL     1      27.620  46.291  54.551  1.00  0.00     0.011 A 
HETATM    6  C   UNL     1      26.734  47.126  53.868  1.00  0.00     0.037 A 
HETATM    7  C   UNL     1      26.023  46.636  52.777  1.00  0.00     0.069 A 
HETATM    8  C   UNL     1      26.157  45.306  52.385  1.00  0.00     0.037 A 
HETATM    9  C   UNL     1      27.043  44.469  53.067  1.00  0.00     0.011 A 
BRANCH   7  10
HETATM   10  O   UNL     1      25.117  47.466  52.174  1.00  0.00    -0.347 OA
BRANCH  10  11
HETATM   11  C   UNL     1      24.824  47.034  50.841  1.00  0.00     0.216 C 
BRANCH  11  12
HETATM   12  C   UNL     1      25.182  48.134  49.862  1.00  0.00    -0.007 A 
HETATM   13  C   UNL     1      26.541  48.397  49.608  1.00  0.00     0.011 A 
HETATM   14  C   UNL     1      26.920  49.342  48.655  1.00  0.00     0.001 A 
HETATM   15  C   UNL     1      25.948  50.037  47.942  1.00  0.00     0.002 A 
HETATM   16  C   UNL     1      24.595  49.780  48.173  1.00  0.00     0.030 A 
HETATM   17  C   UNL     1      24.203  48.822  49.117  1.00  0.00     0.044 A 
BRANCH  17  18
HETATM   18  N   UNL     1      22.845  48.578  49.395  1.00  0.00    -0.308 N 
HETATM   19  C   UNL     1      21.916  47.794  48.764  1.00  0.00     0.325 C 
HETATM   20  N   UNL     1      22.418  46.791  47.975  1.00  0.00    -0.306 N 
HETATM   21  O   UNL     1      20.726  47.960  49.022  1.00  0.00    -0.247 OA
HETATM   22  H   UNL     1      23.413  46.627  48.008  1.00  0.00     0.171 HD
HETATM   23  H   UNL     1      22.451  49.090  50.182  1.00  0.00     0.170 HD
BRANCH  20  24
HETATM   24  C   UNL     1      21.648  45.838  47.340  1.00  0.00     0.072 A 
HETATM   25  C   UNL     1      21.106  44.615  47.793  1.00  0.00     0.169 A 
HETATM   26  N   UNL     1      20.427  43.975  46.833  1.00  0.00    -0.185 NA
HETATM   27  N   UNL     1      20.539  44.788  45.772  1.00  0.00    -0.287 N 
HETATM   28  H   UNL     1      20.104  44.501  44.902  1.00  0.00     0.188 HD
HETATM   29  C   UNL     1      21.253  45.924  46.027  1.00  0.00     0.140 A 
ENDBRANCH  20  24
ENDBRANCH  17  18
ENDBRANCH  11  12
ENDBRANCH  10  11
ENDBRANCH   7  10
ENDBRANCH   1   4
TORSDOF 6
ENDMDL
MODEL 6
REMARK VINA RESULT:      -7.8      2.490      4.697
REMARK  6 active torsions:
REMARK  status: ('A' for Active; 'I' for Inactive)
REMARK    1  A    between atoms: C_3  and  C_4 
REMARK    2  A    between atoms: C_4  and  O_5 
REMARK    3  A    between atoms: O_5  and  C_6 
REMARK    4  A    between atoms: C_9  and  C_10 
REMARK    5  A    between atoms: C_15  and  N_16 
REMARK       I    between atoms: N_16  and  C_17 
REMARK       I    between atoms: C_17  and  N_18 
REMARK    6  A    between atoms: N_18  and  C_19 
ROOT
HETATM    1  C   UNL     1      30.948  43.181  55.923  1.00  0.00     0.147 C 
HETATM    2  C   UNL     1      31.315  43.901  57.210  1.00  0.00    -0.016 C 
HETATM    3  N   UNL     1      31.619  44.499  58.277  1.00  0.00    -0.101 N 
ENDROOT
BRANCH   1   4
HETATM    4  C   UNL     1      29.844  43.905  55.192  1.00  0.00    -0.046 A 
HETATM    5  C   UNL     1      29.373  45.143  55.657  1.00  0.00     0.011 A 
HETATM    6  C   UNL     1      28.305  45.778  55.022  1.00  0.00     0.037 A 
HETATM    7  C   UNL     1      27.711  45.189  53.911  1.00  0.00     0.069 A 
HETATM    8  C   UNL     1      28.148  43.948  53.450  1.00  0.00     0.037 A 
HETATM    9  C   UNL     1      29.216  43.312  54.085  1.00  0.00     0.011 A 
BRANCH   7  10
HETATM   10  O   UNL     1      26.625  45.810  53.355  1.00  0.00    -0.347 OA
BRANCH  10  11
HETATM   11  C   UNL     1      26.167  45.113  52.191  1.00  0.00     0.216 C 
BRANCH  11  12
HETATM   12  C   UNL     1      25.580  46.104  51.206  1.00  0.00    -0.007 A 
HETATM   13  C   UNL     1      26.307  47.271  50.908  1.00  0.00     0.011 A 
HETATM   14  C   UNL     1      25.849  48.172  49.947  1.00  0.00     0.001 A 
HETATM   15  C   UNL     1      24.660  47.919  49.270  1.00  0.00     0.002 A 
HETATM   16  C   UNL     1      23.933  46.760  49.545  1.00  0.00     0.030 A 
HETATM   17  C   UNL     1      24.391  45.840  50.497  1.00  0.00     0.044 A 
BRANCH  17  18
HETATM   18  N   UNL     1      23.652  44.687  50.819  1.00  0.00    -0.308 N 
HETATM   19  C   UNL     1      23.627  43.438  50.256  1.00  0.00     0.325 C 
HETATM   20  N   UNL     1      24.729  43.094  49.517  1.00  0.00    -0.306 N 
HETATM   21  O   UNL     1      22.697  42.683  50.530  1.00  0.00    -0.247 OA
HETATM   22  H   UNL     1      25.518  43.723  49.538  1.00  0.00     0.171 HD
HETATM   23  H   UNL     1      22.985  44.782  51.582  1.00  0.00     0.170 HD
BRANCH  20  24
HETATM   24  C   UNL     1      24.936  41.850  48.957  1.00  0.00     0.072 A 
HETATM   25  C   UNL     1      24.527  41.295  47.725  1.00  0.00     0.169 A 
HETATM   26  N   UNL     1      24.931  40.027  47.581  1.00  0.00    -0.185 NA
HETATM   27  N   UNL     1      25.595  39.777  48.719  1.00  0.00    -0.287 N 
HETATM   28  H   UNL     1      25.992  38.852  48.847  1.00  0.00     0.188 HD
HETATM   29  C   UNL     1      25.636  40.841  49.574  1.00  0.00     0.140 A 
ENDBRANCH  20  24
ENDBRANCH  17  18
ENDBRANCH  11  12
ENDBRANCH  10  11
ENDBRANCH   7  10
ENDBRANCH   1   4
TORSDOF 6
ENDMDL
MODEL 7
REMARK VINA RESULT:      -7.7     12.165     14.030
REMARK  6 active torsions:
REMARK  status: ('A' for Active; 'I' for Inactive)
REMARK    1  A    between atoms: C_3  and  C_4 
REMARK    2  A    between atoms: C_4  and  O_5 
REMARK    3  A    between atoms: O_5  and  C_6 
REMARK    4  A    between atoms: C_9  and  C_10 
REMARK    5  A    between atoms: C_15  and  N_16 
REMARK       I    between atoms: N_16  and  C_17 
REMARK       I    between atoms: C_17  and  N_18 
REMARK    6  A    between atoms: N_18  and  C_19 
ROOT
HETATM    1  C   UNL     1      30.581  53.654  40.623  1.00  0.00     0.147 C 
HETATM    2  C   UNL     1      31.922  53.049  40.240  1.00  0.00    -0.016 C 
HETATM    3  N   UNL     1      33.034  52.547  39.923  1.00  0.00    -0.101 N 
ENDROOT
BRANCH   1   4
HETATM    4  C   UNL     1      29.444  52.743  40.229  1.00  0.00    -0.046 A 
HETATM    5  C   UNL     1      28.767  51.986  41.199  1.00  0.00     0.011 A 
HETATM    6  C   UNL     1      27.763  51.092  40.825  1.00  0.00     0.037 A 
HETATM    7  C   UNL     1      27.419  50.959  39.484  1.00  0.00     0.069 A 
HETATM    8  C   UNL     1      28.097  51.682  38.505  1.00  0.00     0.037 A 
HETATM    9  C   UNL     1      29.102  52.578  38.878  1.00  0.00     0.011 A 
BRANCH   7  10
HETATM   10  O   UNL     1      26.476  50.025  39.151  1.00  0.00    -0.347 OA
BRANCH  10  11
HETATM   11  C   UNL     1      26.998  49.067  38.223  1.00  0.00     0.216 C 
BRANCH  11  12
HETATM   12  C   UNL     1      27.359  47.793  38.961  1.00  0.00    -0.007 A 
HETATM   13  C   UNL     1      26.322  46.968  39.435  1.00  0.00     0.011 A 
HETATM   14  C   UNL     1      26.602  45.747  40.046  1.00  0.00     0.001 A 
HETATM   15  C   UNL     1      27.922  45.332  40.192  1.00  0.00     0.002 A 
HETATM   16  C   UNL     1      28.963  46.131  39.718  1.00  0.00     0.030 A 
HETATM   17  C   UNL     1      28.692  47.353  39.088  1.00  0.00     0.044 A 
BRANCH  17  18
HETATM   18  N   UNL     1      29.728  48.194  38.640  1.00  0.00    -0.308 N 
HETATM   19  C   UNL     1      30.599  49.002  39.321  1.00  0.00     0.325 C 
HETATM   20  N   UNL     1      30.784  48.699  40.645  1.00  0.00    -0.306 N 
HETATM   21  O   UNL     1      31.228  49.854  38.698  1.00  0.00    -0.247 OA
HETATM   22  H   UNL     1      30.368  47.847  40.990  1.00  0.00     0.171 HD
HETATM   23  H   UNL     1      29.850  48.254  37.631  1.00  0.00     0.170 HD
BRANCH  20  24
HETATM   24  C   UNL     1      31.692  49.329  41.471  1.00  0.00     0.072 A 
HETATM   25  C   UNL     1      31.518  50.226  42.547  1.00  0.00     0.169 A 
HETATM   26  N   UNL     1      32.684  50.621  43.072  1.00  0.00    -0.185 NA
HETATM   27  N   UNL     1      33.598  49.978  42.331  1.00  0.00    -0.287 N 
HETATM   28  H   UNL     1      34.578  50.134  42.540  1.00  0.00     0.188 HD
HETATM   29  C   UNL     1      33.055  49.182  41.363  1.00  0.00     0.140 A 
ENDBRANCH  20  24
ENDBRANCH  17  18
ENDBRANCH  11  12
ENDBRANCH  10  11
ENDBRANCH   7  10
ENDBRANCH   1   4
TORSDOF 6
ENDMDL
MODEL 8
REMARK VINA RESULT:      -7.7      3.735      5.776
REMARK  6 active torsions:
REMARK  status: ('A' for Active; 'I' for Inactive)
REMARK    1  A    between atoms: C_3  and  C_4 
REMARK    2  A    between atoms: C_4  and  O_5 
REMARK    3  A    between atoms: O_5  and  C_6 
REMARK    4  A    between atoms: C_9  and  C_10 
REMARK    5  A    between atoms: C_15  and  N_16 
REMARK       I    between atoms: N_16  and  C_17 
REMARK       I    between atoms: C_17  and  N_18 
REMARK    6  A    between atoms: N_18  and  C_19 
ROOT
HETATM    1  C   UNL     1      30.938  44.553  56.237  1.00  0.00     0.147 C 
HETATM    2  C   UNL     1      30.084  45.371  57.192  1.00  0.00    -0.016 C 
HETATM    3  N   UNL     1      29.377  46.049  57.985  1.00  0.00    -0.101 N 
ENDROOT
BRANCH   1   4
HETATM    4  C   UNL     1      30.110  44.020  55.092  1.00  0.00    -0.046 A 
HETATM    5  C   UNL     1      30.601  42.987  54.278  1.00  0.00     0.011 A 
HETATM    6  C   UNL     1      29.865  42.544  53.178  1.00  0.00     0.037 A 
HETATM    7  C   UNL     1      28.631  43.119  52.893  1.00  0.00     0.069 A 
HETATM    8  C   UNL     1      28.140  44.163  53.675  1.00  0.00     0.037 A 
HETATM    9  C   UNL     1      28.875  44.607  54.776  1.00  0.00     0.011 A 
BRANCH   7  10
HETATM   10  O   UNL     1      27.970  42.701  51.769  1.00  0.00    -0.347 OA
BRANCH  10  11
HETATM   11  C   UNL     1      27.667  43.803  50.906  1.00  0.00     0.216 C 
BRANCH  11  12
HETATM   12  C   UNL     1      26.181  43.820  50.609  1.00  0.00    -0.007 A 
HETATM   13  C   UNL     1      25.314  44.436  51.530  1.00  0.00     0.011 A 
HETATM   14  C   UNL     1      23.951  44.550  51.262  1.00  0.00     0.001 A 
HETATM   15  C   UNL     1      23.434  44.050  50.070  1.00  0.00     0.002 A 
HETATM   16  C   UNL     1      24.281  43.447  49.140  1.00  0.00     0.030 A 
HETATM   17  C   UNL     1      25.656  43.341  49.391  1.00  0.00     0.044 A 
BRANCH  17  18
HETATM   18  N   UNL     1      26.521  42.698  48.486  1.00  0.00    -0.308 N 
HETATM   19  C   UNL     1      27.252  41.545  48.593  1.00  0.00     0.325 C 
HETATM   20  N   UNL     1      26.827  40.655  49.544  1.00  0.00    -0.306 N 
HETATM   21  O   UNL     1      28.150  41.336  47.780  1.00  0.00    -0.247 OA
HETATM   22  H   UNL     1      25.952  40.850  50.007  1.00  0.00     0.171 HD
HETATM   23  H   UNL     1      26.671  43.173  47.598  1.00  0.00     0.170 HD
BRANCH  20  24
HETATM   24  C   UNL     1      27.367  39.399  49.735  1.00  0.00     0.072 A 
HETATM   25  C   UNL     1      26.963  38.124  49.283  1.00  0.00     0.169 A 
HETATM   26  N   UNL     1      27.771  37.151  49.720  1.00  0.00    -0.185 NA
HETATM   27  N   UNL     1      28.686  37.806  50.451  1.00  0.00    -0.287 N 
HETATM   28  H   UNL     1      29.413  37.263  50.904  1.00  0.00     0.188 HD
HETATM   29  C   UNL     1      28.495  39.158  50.483  1.00  0.00     0.140 A 
ENDBRANCH  20  24
ENDBRANCH  17  18
ENDBRANCH  11  12
ENDBRANCH  10  11
ENDBRANCH   7  10
ENDBRANCH   1   4
TORSDOF 6
ENDMDL
MODEL 9
REMARK VINA RESULT:      -7.6      2.771      4.839
REMARK  6 active torsions:
REMARK  status: ('A' for Active; 'I' for Inactive)
REMARK    1  A    between atoms: C_3  and  C_4 
REMARK    2  A    between atoms: C_4  and  O_5 
REMARK    3  A    between atoms: O_5  and  C_6 
REMARK    4  A    between atoms: C_9  and  C_10 
REMARK    5  A    between atoms: C_15  and  N_16 
REMARK       I    between atoms: N_16  and  C_17 
REMARK       I    between atoms: C_17  and  N_18 
REMARK    6  A    between atoms: N_18  and  C_19 
ROOT
HETATM    1  C   UNL     1      31.019  43.408  55.947  1.00  0.00     0.147 C 
HETATM    2  C   UNL     1      30.868  44.539  56.952  1.00  0.00    -0.016 C 
HETATM    3  N   UNL     1      30.743  45.476  57.785  1.00  0.00    -0.101 N 
ENDROOT
BRANCH   1   4
HETATM    4  C   UNL     1      30.032  43.555  54.814  1.00  0.00    -0.046 A 
HETATM    5  C   UNL     1      30.277  42.947  53.572  1.00  0.00     0.011 A 
HETATM    6  C   UNL     1      29.399  43.142  52.504  1.00  0.00     0.037 A 
HETATM    7  C   UNL     1      28.267  43.932  52.674  1.00  0.00     0.069 A 
HETATM    8  C   UNL     1      28.022  44.564  53.891  1.00  0.00     0.037 A 
HETATM    9  C   UNL     1      28.899  44.370  54.961  1.00  0.00     0.011 A 
BRANCH   7  10
HETATM   10  O   UNL     1      27.466  44.151  51.586  1.00  0.00    -0.347 OA
BRANCH  10  11
HETATM   11  C   UNL     1      26.119  44.434  51.982  1.00  0.00     0.216 C 
BRANCH  11  12
HETATM   12  C   UNL     1      25.600  45.622  51.196  1.00  0.00    -0.007 A 
HETATM   13  C   UNL     1      26.401  46.775  51.106  1.00  0.00     0.011 A 
HETATM   14  C   UNL     1      26.005  47.861  50.327  1.00  0.00     0.001 A 
HETATM   15  C   UNL     1      24.803  47.812  49.628  1.00  0.00     0.002 A 
HETATM   16  C   UNL     1      24.002  46.671  49.696  1.00  0.00     0.030 A 
HETATM   17  C   UNL     1      24.398  45.567  50.462  1.00  0.00     0.044 A 
BRANCH  17  18
HETATM   18  N   UNL     1      23.584  44.424  50.579  1.00  0.00    -0.308 N 
HETATM   19  C   UNL     1      23.409  43.347  49.751  1.00  0.00     0.325 C 
HETATM   20  N   UNL     1      24.421  43.111  48.856  1.00  0.00    -0.306 N 
HETATM   21  O   UNL     1      22.439  42.615  49.929  1.00  0.00    -0.247 OA
HETATM   22  H   UNL     1      25.261  43.661  48.948  1.00  0.00     0.171 HD
HETATM   23  H   UNL     1      22.986  44.383  51.401  1.00  0.00     0.170 HD
BRANCH  20  24
HETATM   24  C   UNL     1      24.477  42.021  48.011  1.00  0.00     0.072 A 
HETATM   25  C   UNL     1      25.059  40.744  48.163  1.00  0.00     0.169 A 
HETATM   26  N   UNL     1      24.899  39.981  47.075  1.00  0.00    -0.185 NA
HETATM   27  N   UNL     1      24.218  40.772  46.233  1.00  0.00    -0.287 N 
HETATM   28  H   UNL     1      23.985  40.405  45.316  1.00  0.00     0.188 HD
HETATM   29  C   UNL     1      23.930  42.003  46.750  1.00  0.00     0.140 A 
ENDBRANCH  20  24
ENDBRANCH  17  18
ENDBRANCH  11  12
ENDBRANCH  10  11
ENDBRANCH   7  10
ENDBRANCH   1   4
TORSDOF 6
ENDMDL
MODEL 10
REMARK VINA RESULT:      -7.6      1.707      2.167
REMARK  6 active torsions:
REMARK  status: ('A' for Active; 'I' for Inactive)
REMARK    1  A    between atoms: C_3  and  C_4 
REMARK    2  A    between atoms: C_4  and  O_5 
REMARK    3  A    between atoms: O_5  and  C_6 
REMARK    4  A    between atoms: C_9  and  C_10 
REMARK    5  A    between atoms: C_15  and  N_16 
REMARK       I    between atoms: N_16  and  C_17 
REMARK       I    between atoms: C_17  and  N_18 
REMARK    6  A    between atoms: N_18  and  C_19 
ROOT
HETATM    1  C   UNL     1      30.788  43.385  55.012  1.00  0.00     0.147 C 
HETATM    2  C   UNL     1      31.086  43.790  56.447  1.00  0.00    -0.016 C 
HETATM    3  N   UNL     1      31.333  44.126  57.636  1.00  0.00    -0.101 N 
ENDROOT
BRANCH   1   4
HETATM    4  C   UNL     1      29.348  43.667  54.658  1.00  0.00    -0.046 A 
HETATM    5  C   UNL     1      28.792  44.936  54.885  1.00  0.00     0.011 A 
HETATM    6  C   UNL     1      27.442  45.174  54.623  1.00  0.00     0.037 A 
HETATM    7  C   UNL     1      26.644  44.153  54.120  1.00  0.00     0.069 A 
HETATM    8  C   UNL     1      27.171  42.879  53.913  1.00  0.00     0.037 A 
HETATM    9  C   UNL     1      28.522  42.640  54.175  1.00  0.00     0.011 A 
BRANCH   7  10
HETATM   10  O   UNL     1      25.311  44.408  53.937  1.00  0.00    -0.347 OA
BRANCH  10  11
HETATM   11  C   UNL     1      25.104  45.363  52.890  1.00  0.00     0.216 C 
BRANCH  11  12
HETATM   12  C   UNL     1      25.096  44.652  51.551  1.00  0.00    -0.007 A 
HETATM   13  C   UNL     1      24.518  43.371  51.469  1.00  0.00     0.011 A 
HETATM   14  C   UNL     1      24.412  42.713  50.246  1.00  0.00     0.001 A 
HETATM   15  C   UNL     1      24.881  43.323  49.086  1.00  0.00     0.002 A 
HETATM   16  C   UNL     1      25.446  44.597  49.147  1.00  0.00     0.030 A 
HETATM   17  C   UNL     1      25.543  45.276  50.369  1.00  0.00     0.044 A 
BRANCH  17  18
HETATM   18  N   UNL     1      26.148  46.544  50.459  1.00  0.00    -0.308 N 
HETATM   19  C   UNL     1      25.798  47.755  49.925  1.00  0.00     0.325 C 
HETATM   20  N   UNL     1      24.483  47.890  49.560  1.00  0.00    -0.306 N 
HETATM   21  O   UNL     1      26.631  48.659  49.909  1.00  0.00    -0.247 OA
HETATM   22  H   UNL     1      23.851  47.147  49.816  1.00  0.00     0.171 HD
HETATM   23  H   UNL     1      27.019  46.587  50.983  1.00  0.00     0.170 HD
BRANCH  20  24
HETATM   24  C   UNL     1      23.917  49.061  49.099  1.00  0.00     0.072 A 
HETATM   25  C   UNL     1      22.775  49.779  49.516  1.00  0.00     0.169 A 
HETATM   26  N   UNL     1      22.564  50.873  48.773  1.00  0.00    -0.185 NA
HETATM   27  N   UNL     1      23.569  50.849  47.885  1.00  0.00    -0.287 N 
HETATM   28  H   UNL     1      23.613  51.590  47.194  1.00  0.00     0.188 HD
HETATM   29  C   UNL     1      24.415  49.789  48.045  1.00  0.00     0.140 A 
ENDBRANCH  20  24
ENDBRANCH  17  18
ENDBRANCH  11  12
ENDBRANCH  10  11
ENDBRANCH   7  10
ENDBRANCH   1   4
TORSDOF 6
ENDMDL
