MODEL 1
REMARK VINA RESULT:      -9.1      0.000      0.000
REMARK  5 active torsions:
REMARK  status: ('A' for Active; 'I' for Inactive)
REMARK    1  A    between atoms: C_5  and  C_6 
REMARK    2  A    between atoms: C_6  and  C_7 
REMARK    3  A    between atoms: C_7  and  C_8 
REMARK       I    between atoms: C_8  and  N_9 
REMARK    4  A    between atoms: N_9  and  C_10 
REMARK    5  A    between atoms: C_12  and  C_13 
ROOT
HETATM    1  C   UNL     1      25.939  46.600  52.380  1.00  0.00     0.222 C 
HETATM    2  N   UNL     1      26.116  46.616  51.010  1.00  0.00    -0.327 N 
HETATM    3  O   UNL     1      25.590  47.551  53.075  1.00  0.00    -0.273 OA
HETATM    4  H   UNL     1      26.544  45.804  50.588  1.00  0.00     0.169 HD
ENDROOT
BRANCH   2   5
HETATM    5  C   UNL     1      25.834  47.677  50.122  1.00  0.00     0.035 A 
HETATM    6  C   UNL     1      24.543  48.041  49.724  1.00  0.00     0.042 A 
HETATM    7  C   UNL     1      24.331  49.085  48.807  1.00  0.00    -0.021 A 
HETATM    8  C   UNL     1      25.443  49.770  48.297  1.00  0.00     0.012 A 
HETATM    9  C   UNL     1      26.734  49.413  48.685  1.00  0.00     0.003 A 
HETATM   10  C   UNL     1      26.928  48.368  49.589  1.00  0.00     0.029 A 
BRANCH   7  11
HETATM   11  C   UNL     1      22.989  49.446  48.367  1.00  0.00     0.010 A 
HETATM   12  C   UNL     1      22.348  50.707  48.285  1.00  0.00     0.152 A 
HETATM   13  N   UNL     1      21.096  50.627  47.824  1.00  0.00    -0.187 NA
HETATM   14  N   UNL     1      20.928  49.313  47.608  1.00  0.00    -0.289 N 
HETATM   15  H   UNL     1      20.036  48.994  47.246  1.00  0.00     0.188 HD
HETATM   16  C   UNL     1      22.027  48.566  47.919  1.00  0.00     0.123 A 
ENDBRANCH   7  11
ENDBRANCH   2   5
BRANCH   1  17
HETATM   17  C   UNL     1      26.126  45.231  53.021  1.00  0.00     0.108 C 
BRANCH  17  18
HETATM   18  C   UNL     1      27.404  44.473  52.667  1.00  0.00     0.047 C 
BRANCH  18  19
HETATM   19  C   UNL     1      28.483  44.342  53.717  1.00  0.00    -0.058 A 
HETATM   20  C   UNL     1      28.613  45.203  54.811  1.00  0.00     0.007 A 
HETATM   21  C   UNL     1      29.609  44.993  55.772  1.00  0.00     0.007 A 
HETATM   22  C   UNL     1      30.486  43.909  55.667  1.00  0.00    -0.062 A 
HETATM   23  C   UNL     1      31.549  43.670  56.698  1.00  0.00     0.048 C 
HETATM   24  C   UNL     1      30.361  43.044  54.578  1.00  0.00     0.007 A 
HETATM   25  C   UNL     1      29.370  43.256  53.617  1.00  0.00     0.007 A 
ENDBRANCH  18  19
ENDBRANCH  17  18
ENDBRANCH   1  17
TORSDOF 5
ENDMDL
MODEL 2
REMARK VINA RESULT:      -8.8      3.192      9.270
REMARK  5 active torsions:
REMARK  status: ('A' for Active; 'I' for Inactive)
REMARK    1  A    between atoms: C_5  and  C_6 
REMARK    2  A    between atoms: C_6  and  C_7 
REMARK    3  A    between atoms: C_7  and  C_8 
REMARK       I    between atoms: C_8  and  N_9 
REMARK    4  A    between atoms: N_9  and  C_10 
REMARK    5  A    between atoms: C_12  and  C_13 
ROOT
HETATM    1  C   UNL     1      25.913  44.747  53.228  1.00  0.00     0.222 C 
HETATM    2  N   UNL     1      27.225  44.831  52.802  1.00  0.00    -0.327 N 
HETATM    3  O   UNL     1      25.502  44.072  54.168  1.00  0.00    -0.273 OA
HETATM    4  H   UNL     1      27.399  45.308  51.928  1.00  0.00     0.169 HD
ENDROOT
BRANCH   2   5
HETATM    5  C   UNL     1      28.363  44.258  53.411  1.00  0.00     0.035 A 
HETATM    6  C   UNL     1      28.844  44.628  54.671  1.00  0.00     0.042 A 
HETATM    7  C   UNL     1      30.006  44.044  55.207  1.00  0.00    -0.021 A 
HETATM    8  C   UNL     1      30.678  43.070  54.456  1.00  0.00     0.012 A 
HETATM    9  C   UNL     1      30.207  42.696  53.198  1.00  0.00     0.003 A 
HETATM   10  C   UNL     1      29.059  43.292  52.676  1.00  0.00     0.029 A 
BRANCH   7  11
HETATM   11  C   UNL     1      30.527  44.450  56.506  1.00  0.00     0.010 A 
HETATM   12  C   UNL     1      31.462  43.824  57.367  1.00  0.00     0.152 A 
HETATM   13  N   UNL     1      31.686  44.517  58.487  1.00  0.00    -0.187 NA
HETATM   14  N   UNL     1      30.896  45.592  58.350  1.00  0.00    -0.289 N 
HETATM   15  H   UNL     1      30.892  46.286  59.091  1.00  0.00     0.188 HD
HETATM   16  C   UNL     1      30.181  45.598  57.187  1.00  0.00     0.123 A 
ENDBRANCH   7  11
ENDBRANCH   2   5
BRANCH   1  17
HETATM   17  C   UNL     1      24.951  45.659  52.480  1.00  0.00     0.108 C 
BRANCH  17  18
HETATM   18  C   UNL     1      24.965  45.574  50.955  1.00  0.00     0.047 C 
BRANCH  18  19
HETATM   19  C   UNL     1      25.250  46.828  50.161  1.00  0.00    -0.058 A 
HETATM   20  C   UNL     1      24.258  47.703  49.707  1.00  0.00     0.007 A 
HETATM   21  C   UNL     1      24.599  48.873  49.018  1.00  0.00     0.007 A 
HETATM   22  C   UNL     1      25.937  49.200  48.781  1.00  0.00    -0.062 A 
HETATM   23  C   UNL     1      26.311  50.456  48.053  1.00  0.00     0.048 C 
HETATM   24  C   UNL     1      26.933  48.331  49.233  1.00  0.00     0.007 A 
HETATM   25  C   UNL     1      26.593  47.162  49.918  1.00  0.00     0.007 A 
ENDBRANCH  18  19
ENDBRANCH  17  18
ENDBRANCH   1  17
TORSDOF 5
ENDMDL
MODEL 3
REMARK VINA RESULT:      -8.7      2.654      3.957
REMARK  5 active torsions:
REMARK  status: ('A' for Active; 'I' for Inactive)
REMARK    1  A    between atoms: C_5  and  C_6 
REMARK    2  A    between atoms: C_6  and  C_7 
REMARK    3  A    between atoms: C_7  and  C_8 
REMARK       I    between atoms: C_8  and  N_9 
REMARK    4  A    between atoms: N_9  and  C_10 
REMARK    5  A    between atoms: C_12  and  C_13 
ROOT
HETATM    1  C   UNL     1      27.316  42.391  52.133  1.00  0.00     0.222 C 
HETATM    2  N   UNL     1      26.097  42.993  52.382  1.00  0.00    -0.327 N 
HETATM    3  O   UNL     1      27.808  42.187  51.026  1.00  0.00    -0.273 OA
HETATM    4  H   UNL     1      25.751  42.964  53.331  1.00  0.00     0.169 HD
ENDROOT
BRANCH   2   5
HETATM    5  C   UNL     1      25.227  43.588  51.442  1.00  0.00     0.035 A 
HETATM    6  C   UNL     1      25.299  44.930  51.052  1.00  0.00     0.042 A 
HETATM    7  C   UNL     1      24.378  45.472  50.138  1.00  0.00    -0.021 A 
HETATM    8  C   UNL     1      23.382  44.639  49.611  1.00  0.00     0.012 A 
HETATM    9  C   UNL     1      23.301  43.300  49.996  1.00  0.00     0.003 A 
HETATM   10  C   UNL     1      24.215  42.780  50.911  1.00  0.00     0.029 A 
BRANCH   7  11
HETATM   11  C   UNL     1      24.431  46.877  49.753  1.00  0.00     0.010 A 
HETATM   12  C   UNL     1      25.504  47.801  49.765  1.00  0.00     0.152 A 
HETATM   13  N   UNL     1      25.153  49.015  49.330  1.00  0.00    -0.187 NA
HETATM   14  N   UNL     1      23.851  48.875  49.037  1.00  0.00    -0.289 N 
HETATM   15  H   UNL     1      23.348  49.679  48.678  1.00  0.00     0.188 HD
HETATM   16  C   UNL     1      23.372  47.619  49.275  1.00  0.00     0.123 A 
ENDBRANCH   7  11
ENDBRANCH   2   5
BRANCH   1  17
HETATM   17  C   UNL     1      28.112  42.045  53.384  1.00  0.00     0.108 C 
BRANCH  17  18
HETATM   18  C   UNL     1      29.497  42.676  53.515  1.00  0.00     0.047 C 
BRANCH  18  19
HETATM   19  C   UNL     1      29.758  43.620  54.667  1.00  0.00    -0.058 A 
HETATM   20  C   UNL     1      28.984  44.755  54.933  1.00  0.00     0.007 A 
HETATM   21  C   UNL     1      29.254  45.558  56.047  1.00  0.00     0.007 A 
HETATM   22  C   UNL     1      30.292  45.237  56.926  1.00  0.00    -0.062 A 
HETATM   23  C   UNL     1      30.581  46.086  58.127  1.00  0.00     0.048 C 
HETATM   24  C   UNL     1      31.068  44.104  56.667  1.00  0.00     0.007 A 
HETATM   25  C   UNL     1      30.801  43.304  55.554  1.00  0.00     0.007 A 
ENDBRANCH  18  19
ENDBRANCH  17  18
ENDBRANCH   1  17
TORSDOF 5
ENDMDL
MODEL 4
REMARK VINA RESULT:      -8.3      2.034      3.037
REMARK  5 active torsions:
REMARK  status: ('A' for Active; 'I' for Inactive)
REMARK    1  A    between atoms: C_5  and  C_6 
REMARK    2  A    between atoms: C_6  and  C_7 
REMARK    3  A    between atoms: C_7  and  C_8 
REMARK       I    between atoms: C_8  and  N_9 
REMARK    4  A    between atoms: N_9  and  C_10 
REMARK    5  A    between atoms: C_12  and  C_13 
ROOT
HETATM    1  C   UNL     1      24.612  46.893  50.490  1.00  0.00     0.222 C 
HETATM    2  N   UNL     1      23.877  47.276  49.384  1.00  0.00    -0.327 N 
HETATM    3  O   UNL     1      25.056  47.642  51.356  1.00  0.00    -0.273 OA
HETATM    4  H   UNL     1      23.701  46.574  48.679  1.00  0.00     0.169 HD
ENDROOT
BRANCH   2   5
HETATM    5  C   UNL     1      23.398  48.568  49.079  1.00  0.00     0.035 A 
HETATM    6  C   UNL     1      22.117  49.024  49.410  1.00  0.00     0.042 A 
HETATM    7  C   UNL     1      21.686  50.312  49.045  1.00  0.00    -0.021 A 
HETATM    8  C   UNL     1      22.569  51.145  48.345  1.00  0.00     0.012 A 
HETATM    9  C   UNL     1      23.848  50.699  48.009  1.00  0.00     0.003 A 
HETATM   10  C   UNL     1      24.256  49.415  48.369  1.00  0.00     0.029 A 
BRANCH   7  11
HETATM   11  C   UNL     1      20.342  50.779  49.361  1.00  0.00     0.010 A 
HETATM   12  C   UNL     1      19.371  50.270  50.260  1.00  0.00     0.152 A 
HETATM   13  N   UNL     1      18.243  50.986  50.269  1.00  0.00    -0.187 NA
HETATM   14  N   UNL     1      18.484  51.958  49.375  1.00  0.00    -0.289 N 
HETATM   15  H   UNL     1      17.759  52.646  49.203  1.00  0.00     0.188 HD
HETATM   16  C   UNL     1      19.721  51.876  48.804  1.00  0.00     0.123 A 
ENDBRANCH   7  11
ENDBRANCH   2   5
BRANCH   1  17
HETATM   17  C   UNL     1      24.784  45.387  50.639  1.00  0.00     0.108 C 
BRANCH  17  18
HETATM   18  C   UNL     1      24.841  44.837  52.062  1.00  0.00     0.047 C 
BRANCH  18  19
HETATM   19  C   UNL     1      26.178  44.411  52.622  1.00  0.00    -0.058 A 
HETATM   20  C   UNL     1      26.421  44.207  53.985  1.00  0.00     0.007 A 
HETATM   21  C   UNL     1      27.673  43.764  54.428  1.00  0.00     0.007 A 
HETATM   22  C   UNL     1      28.703  43.502  53.520  1.00  0.00    -0.062 A 
HETATM   23  C   UNL     1      30.043  43.018  53.985  1.00  0.00     0.048 C 
HETATM   24  C   UNL     1      28.466  43.701  52.158  1.00  0.00     0.007 A 
HETATM   25  C   UNL     1      27.218  44.147  51.715  1.00  0.00     0.007 A 
ENDBRANCH  18  19
ENDBRANCH  17  18
ENDBRANCH   1  17
TORSDOF 5
ENDMDL
MODEL 5
REMARK VINA RESULT:      -8.2      3.594     10.224
REMARK  5 active torsions:
REMARK  status: ('A' for Active; 'I' for Inactive)
REMARK    1  A    between atoms: C_5  and  C_6 
REMARK    2  A    between atoms: C_6  and  C_7 
REMARK    3  A    between atoms: C_7  and  C_8 
REMARK       I    between atoms: C_8  and  N_9 
REMARK    4  A    between atoms: N_9  and  C_10 
REMARK    5  A    between atoms: C_12  and  C_13 
ROOT
HETATM    1  C   UNL     1      22.362  50.691  49.120  1.00  0.00     0.222 C 
HETATM    2  N   UNL     1      23.221  49.988  48.296  1.00  0.00    -0.327 N 
HETATM    3  O   UNL     1      22.516  50.889  50.322  1.00  0.00    -0.273 OA
HETATM    4  H   UNL     1      22.899  49.778  47.362  1.00  0.00     0.169 HD
ENDROOT
BRANCH   2   5
HETATM    5  C   UNL     1      24.485  49.456  48.630  1.00  0.00     0.035 A 
HETATM    6  C   UNL     1      24.668  48.300  49.397  1.00  0.00     0.042 A 
HETATM    7  C   UNL     1      25.956  47.841  49.727  1.00  0.00    -0.021 A 
HETATM    8  C   UNL     1      27.066  48.561  49.265  1.00  0.00     0.012 A 
HETATM    9  C   UNL     1      26.894  49.717  48.502  1.00  0.00     0.003 A 
HETATM   10  C   UNL     1      25.610  50.164  48.193  1.00  0.00     0.029 A 
BRANCH   7  11
HETATM   11  C   UNL     1      26.149  46.655  50.551  1.00  0.00     0.010 A 
HETATM   12  C   UNL     1      25.759  46.379  51.884  1.00  0.00     0.152 A 
HETATM   13  N   UNL     1      26.124  45.160  52.294  1.00  0.00    -0.187 NA
HETATM   14  N   UNL     1      26.750  44.647  51.223  1.00  0.00    -0.289 N 
HETATM   15  H   UNL     1      27.124  43.707  51.287  1.00  0.00     0.188 HD
HETATM   16  C   UNL     1      26.794  45.501  50.158  1.00  0.00     0.123 A 
ENDBRANCH   7  11
ENDBRANCH   2   5
BRANCH   1  17
HETATM   17  C   UNL     1      21.178  51.321  48.400  1.00  0.00     0.108 C 
BRANCH  17  18
HETATM   18  C   UNL     1      19.941  50.446  48.210  1.00  0.00     0.047 C 
BRANCH  18  19
HETATM   19  C   UNL     1      18.592  51.001  48.608  1.00  0.00    -0.058 A 
HETATM   20  C   UNL     1      17.374  50.418  48.244  1.00  0.00     0.007 A 
HETATM   21  C   UNL     1      16.162  50.959  48.689  1.00  0.00     0.007 A 
HETATM   22  C   UNL     1      16.142  52.084  49.519  1.00  0.00    -0.062 A 
HETATM   23  C   UNL     1      14.850  52.663  50.010  1.00  0.00     0.048 C 
HETATM   24  C   UNL     1      17.356  52.669  49.889  1.00  0.00     0.007 A 
HETATM   25  C   UNL     1      18.565  52.132  49.442  1.00  0.00     0.007 A 
ENDBRANCH  18  19
ENDBRANCH  17  18
ENDBRANCH   1  17
TORSDOF 5
ENDMDL
MODEL 6
REMARK VINA RESULT:      -8.1      2.088      2.923
REMARK  5 active torsions:
REMARK  status: ('A' for Active; 'I' for Inactive)
REMARK    1  A    between atoms: C_5  and  C_6 
REMARK    2  A    between atoms: C_6  and  C_7 
REMARK    3  A    between atoms: C_7  and  C_8 
REMARK       I    between atoms: C_8  and  N_9 
REMARK    4  A    between atoms: N_9  and  C_10 
REMARK    5  A    between atoms: C_12  and  C_13 
ROOT
HETATM    1  C   UNL     1      26.668  44.056  50.507  1.00  0.00     0.222 C 
HETATM    2  N   UNL     1      25.514  44.674  50.951  1.00  0.00    -0.327 N 
HETATM    3  O   UNL     1      26.981  43.871  49.333  1.00  0.00    -0.273 OA
HETATM    4  H   UNL     1      25.316  44.629  51.940  1.00  0.00     0.169 HD
ENDROOT
BRANCH   2   5
HETATM    5  C   UNL     1      24.525  45.307  50.167  1.00  0.00     0.035 A 
HETATM    6  C   UNL     1      24.482  46.685  49.928  1.00  0.00     0.042 A 
HETATM    7  C   UNL     1      23.447  47.260  49.168  1.00  0.00    -0.021 A 
HETATM    8  C   UNL     1      22.454  46.424  48.641  1.00  0.00     0.012 A 
HETATM    9  C   UNL     1      22.487  45.049  48.876  1.00  0.00     0.003 A 
HETATM   10  C   UNL     1      23.514  44.496  49.641  1.00  0.00     0.029 A 
BRANCH   7  11
HETATM   11  C   UNL     1      23.382  48.698  48.943  1.00  0.00     0.010 A 
HETATM   12  C   UNL     1      24.252  49.567  48.238  1.00  0.00     0.152 A 
HETATM   13  N   UNL     1      23.846  50.840  48.256  1.00  0.00    -0.187 NA
HETATM   14  N   UNL     1      22.713  50.795  48.974  1.00  0.00    -0.289 N 
HETATM   15  H   UNL     1      22.206  51.659  49.130  1.00  0.00     0.188 HD
HETATM   16  C   UNL     1      22.395  49.540  49.409  1.00  0.00     0.123 A 
ENDBRANCH   7  11
ENDBRANCH   2   5
BRANCH   1  17
HETATM   17  C   UNL     1      27.637  43.666  51.614  1.00  0.00     0.108 C 
BRANCH  17  18
HETATM   18  C   UNL     1      27.615  44.518  52.881  1.00  0.00     0.047 C 
BRANCH  18  19
HETATM   19  C   UNL     1      28.655  44.261  53.946  1.00  0.00    -0.058 A 
HETATM   20  C   UNL     1      29.500  43.146  53.955  1.00  0.00     0.007 A 
HETATM   21  C   UNL     1      30.475  42.996  54.949  1.00  0.00     0.007 A 
HETATM   22  C   UNL     1      30.636  43.964  55.945  1.00  0.00    -0.062 A 
HETATM   23  C   UNL     1      31.685  43.817  57.006  1.00  0.00     0.048 C 
HETATM   24  C   UNL     1      29.798  45.081  55.940  1.00  0.00     0.007 A 
HETATM   25  C   UNL     1      28.822  45.229  54.951  1.00  0.00     0.007 A 
ENDBRANCH  18  19
ENDBRANCH  17  18
ENDBRANCH   1  17
TORSDOF 5
ENDMDL
MODEL 7
REMARK VINA RESULT:      -8.1      6.608      7.732
REMARK  5 active torsions:
REMARK  status: ('A' for Active; 'I' for Inactive)
REMARK    1  A    between atoms: C_5  and  C_6 
REMARK    2  A    between atoms: C_6  and  C_7 
REMARK    3  A    between atoms: C_7  and  C_8 
REMARK       I    between atoms: C_8  and  N_9 
REMARK    4  A    between atoms: N_9  and  C_10 
REMARK    5  A    between atoms: C_12  and  C_13 
ROOT
HETATM    1  C   UNL     1      28.079  41.348  51.764  1.00  0.00     0.222 C 
HETATM    2  N   UNL     1      28.929  40.481  51.103  1.00  0.00    -0.327 N 
HETATM    3  O   UNL     1      27.004  41.767  51.343  1.00  0.00    -0.273 OA
HETATM    4  H   UNL     1      29.845  40.335  51.503  1.00  0.00     0.169 HD
ENDROOT
BRANCH   2   5
HETATM    5  C   UNL     1      28.695  39.821  49.877  1.00  0.00     0.035 A 
HETATM    6  C   UNL     1      28.248  40.463  48.717  1.00  0.00     0.042 A 
HETATM    7  C   UNL     1      27.999  39.742  47.536  1.00  0.00    -0.021 A 
HETATM    8  C   UNL     1      28.215  38.357  47.534  1.00  0.00     0.012 A 
HETATM    9  C   UNL     1      28.659  37.708  48.686  1.00  0.00     0.003 A 
HETATM   10  C   UNL     1      28.892  38.436  49.853  1.00  0.00     0.029 A 
BRANCH   7  11
HETATM   11  C   UNL     1      27.503  40.403  46.336  1.00  0.00     0.010 A 
HETATM   12  C   UNL     1      28.171  40.793  45.149  1.00  0.00     0.152 A 
HETATM   13  N   UNL     1      27.362  41.381  44.263  1.00  0.00    -0.187 NA
HETATM   14  N   UNL     1      26.169  41.370  44.877  1.00  0.00    -0.289 N 
HETATM   15  H   UNL     1      25.372  41.769  44.392  1.00  0.00     0.188 HD
HETATM   16  C   UNL     1      26.201  40.800  46.117  1.00  0.00     0.123 A 
ENDBRANCH   7  11
ENDBRANCH   2   5
BRANCH   1  17
HETATM   17  C   UNL     1      28.529  41.717  53.171  1.00  0.00     0.108 C 
BRANCH  17  18
HETATM   18  C   UNL     1      29.755  42.620  53.288  1.00  0.00     0.047 C 
BRANCH  18  19
HETATM   19  C   UNL     1      29.927  43.451  54.539  1.00  0.00    -0.058 A 
HETATM   20  C   UNL     1      30.935  43.235  55.484  1.00  0.00     0.007 A 
HETATM   21  C   UNL     1      31.064  44.076  56.596  1.00  0.00     0.007 A 
HETATM   22  C   UNL     1      30.198  45.158  56.779  1.00  0.00    -0.062 A 
HETATM   23  C   UNL     1      30.336  46.069  57.961  1.00  0.00     0.048 C 
HETATM   24  C   UNL     1      29.191  45.381  55.838  1.00  0.00     0.007 A 
HETATM   25  C   UNL     1      29.059  44.540  54.730  1.00  0.00     0.007 A 
ENDBRANCH  18  19
ENDBRANCH  17  18
ENDBRANCH   1  17
TORSDOF 5
ENDMDL
MODEL 8
REMARK VINA RESULT:      -8.0      2.711      9.681
REMARK  5 active torsions:
REMARK  status: ('A' for Active; 'I' for Inactive)
REMARK    1  A    between atoms: C_5  and  C_6 
REMARK    2  A    between atoms: C_6  and  C_7 
REMARK    3  A    between atoms: C_7  and  C_8 
REMARK       I    between atoms: C_8  and  N_9 
REMARK    4  A    between atoms: N_9  and  C_10 
REMARK    5  A    between atoms: C_12  and  C_13 
ROOT
HETATM    1  C   UNL     1      25.828  46.148  50.699  1.00  0.00     0.222 C 
HETATM    2  N   UNL     1      25.714  45.463  51.894  1.00  0.00    -0.327 N 
HETATM    3  O   UNL     1      26.795  46.120  49.941  1.00  0.00    -0.273 OA
HETATM    4  H   UNL     1      24.927  45.691  52.485  1.00  0.00     0.169 HD
ENDROOT
BRANCH   2   5
HETATM    5  C   UNL     1      26.618  44.521  52.432  1.00  0.00     0.035 A 
HETATM    6  C   UNL     1      27.548  44.816  53.435  1.00  0.00     0.042 A 
HETATM    7  C   UNL     1      28.447  43.841  53.903  1.00  0.00    -0.021 A 
HETATM    8  C   UNL     1      28.392  42.554  53.351  1.00  0.00     0.012 A 
HETATM    9  C   UNL     1      27.470  42.251  52.349  1.00  0.00     0.003 A 
HETATM   10  C   UNL     1      26.592  43.232  51.888  1.00  0.00     0.029 A 
BRANCH   7  11
HETATM   11  C   UNL     1      29.437  44.153  54.926  1.00  0.00     0.010 A 
HETATM   12  C   UNL     1      29.568  45.277  55.778  1.00  0.00     0.152 A 
HETATM   13  N   UNL     1      30.623  45.195  56.594  1.00  0.00    -0.187 NA
HETATM   14  N   UNL     1      31.175  44.015  56.269  1.00  0.00    -0.289 N 
HETATM   15  H   UNL     1      32.009  43.720  56.765  1.00  0.00     0.188 HD
HETATM   16  C   UNL     1      30.507  43.357  55.277  1.00  0.00     0.123 A 
ENDBRANCH   7  11
ENDBRANCH   2   5
BRANCH   1  17
HETATM   17  C   UNL     1      24.581  46.923  50.298  1.00  0.00     0.108 C 
BRANCH  17  18
HETATM   18  C   UNL     1      24.770  48.065  49.301  1.00  0.00     0.047 C 
BRANCH  18  19
HETATM   19  C   UNL     1      23.643  49.053  49.107  1.00  0.00    -0.058 A 
HETATM   20  C   UNL     1      23.835  50.388  48.736  1.00  0.00     0.007 A 
HETATM   21  C   UNL     1      22.740  51.235  48.527  1.00  0.00     0.007 A 
HETATM   22  C   UNL     1      21.432  50.763  48.670  1.00  0.00    -0.062 A 
HETATM   23  C   UNL     1      20.254  51.661  48.438  1.00  0.00     0.048 C 
HETATM   24  C   UNL     1      21.233  49.430  49.038  1.00  0.00     0.007 A 
HETATM   25  C   UNL     1      22.325  48.585  49.251  1.00  0.00     0.007 A 
ENDBRANCH  18  19
ENDBRANCH  17  18
ENDBRANCH   1  17
TORSDOF 5
ENDMDL
MODEL 9
REMARK VINA RESULT:      -7.9      2.728      9.524
REMARK  5 active torsions:
REMARK  status: ('A' for Active; 'I' for Inactive)
REMARK    1  A    between atoms: C_5  and  C_6 
REMARK    2  A    between atoms: C_6  and  C_7 
REMARK    3  A    between atoms: C_7  and  C_8 
REMARK       I    between atoms: C_8  and  N_9 
REMARK    4  A    between atoms: N_9  and  C_10 
REMARK    5  A    between atoms: C_12  and  C_13 
ROOT
HETATM    1  C   UNL     1      24.756  49.216  48.873  1.00  0.00     0.222 C 
HETATM    2  N   UNL     1      24.055  48.315  49.653  1.00  0.00    -0.327 N 
HETATM    3  O   UNL     1      25.970  49.216  48.685  1.00  0.00    -0.273 OA
HETATM    4  H   UNL     1      23.083  48.519  49.836  1.00  0.00     0.169 HD
ENDROOT
BRANCH   2   5
HETATM    5  C   UNL     1      24.560  47.165  50.298  1.00  0.00     0.035 A 
HETATM    6  C   UNL     1      25.246  47.191  51.517  1.00  0.00     0.042 A 
HETATM    7  C   UNL     1      25.757  46.012  52.089  1.00  0.00    -0.021 A 
HETATM    8  C   UNL     1      25.560  44.798  51.419  1.00  0.00     0.012 A 
HETATM    9  C   UNL     1      24.879  44.762  50.202  1.00  0.00     0.003 A 
HETATM   10  C   UNL     1      24.388  45.941  49.642  1.00  0.00     0.029 A 
BRANCH   7  11
HETATM   11  C   UNL     1      26.499  46.040  53.343  1.00  0.00     0.010 A 
HETATM   12  C   UNL     1      27.142  45.002  54.063  1.00  0.00     0.152 A 
HETATM   13  N   UNL     1      27.725  45.430  55.187  1.00  0.00    -0.187 NA
HETATM   14  N   UNL     1      27.459  46.745  55.193  1.00  0.00    -0.289 N 
HETATM   15  H   UNL     1      27.807  47.304  55.965  1.00  0.00     0.188 HD
HETATM   16  C   UNL     1      26.728  47.158  54.117  1.00  0.00     0.123 A 
ENDBRANCH   7  11
ENDBRANCH   2   5
BRANCH   1  17
HETATM   17  C   UNL     1      23.882  50.223  48.138  1.00  0.00     0.108 C 
BRANCH  17  18
HETATM   18  C   UNL     1      22.501  49.744  47.696  1.00  0.00     0.047 C 
BRANCH  18  19
HETATM   19  C   UNL     1      21.279  50.412  48.285  1.00  0.00    -0.058 A 
HETATM   20  C   UNL     1      21.158  50.760  49.634  1.00  0.00     0.007 A 
HETATM   21  C   UNL     1      20.015  51.420  50.101  1.00  0.00     0.007 A 
HETATM   22  C   UNL     1      18.977  51.759  49.228  1.00  0.00    -0.062 A 
HETATM   23  C   UNL     1      17.755  52.476  49.718  1.00  0.00     0.048 C 
HETATM   24  C   UNL     1      19.093  51.416  47.879  1.00  0.00     0.007 A 
HETATM   25  C   UNL     1      20.231  50.754  47.413  1.00  0.00     0.007 A 
ENDBRANCH  18  19
ENDBRANCH  17  18
ENDBRANCH   1  17
TORSDOF 5
ENDMDL
MODEL 10
REMARK VINA RESULT:      -7.8      2.748      4.006
REMARK  5 active torsions:
REMARK  status: ('A' for Active; 'I' for Inactive)
REMARK    1  A    between atoms: C_5  and  C_6 
REMARK    2  A    between atoms: C_6  and  C_7 
REMARK    3  A    between atoms: C_7  and  C_8 
REMARK       I    between atoms: C_8  and  N_9 
REMARK    4  A    between atoms: N_9  and  C_10 
REMARK    5  A    between atoms: C_12  and  C_13 
ROOT
HETATM    1  C   UNL     1      23.373  46.388  49.231  1.00  0.00     0.222 C 
HETATM    2  N   UNL     1      23.460  47.627  49.836  1.00  0.00    -0.327 N 
HETATM    3  O   UNL     1      22.800  46.140  48.173  1.00  0.00    -0.273 OA
HETATM    4  H   UNL     1      23.835  47.660  50.774  1.00  0.00     0.169 HD
ENDROOT
BRANCH   2   5
HETATM    5  C   UNL     1      23.013  48.865  49.324  1.00  0.00     0.035 A 
HETATM    6  C   UNL     1      21.745  49.402  49.575  1.00  0.00     0.042 A 
HETATM    7  C   UNL     1      21.347  50.624  49.005  1.00  0.00    -0.021 A 
HETATM    8  C   UNL     1      22.249  51.307  48.178  1.00  0.00     0.012 A 
HETATM    9  C   UNL     1      23.514  50.779  47.920  1.00  0.00     0.003 A 
HETATM   10  C   UNL     1      23.890  49.561  48.485  1.00  0.00     0.029 A 
BRANCH   7  11
HETATM   11  C   UNL     1      20.016  51.170  49.239  1.00  0.00     0.010 A 
HETATM   12  C   UNL     1      19.000  50.780  50.146  1.00  0.00     0.152 A 
HETATM   13  N   UNL     1      17.904  51.540  50.061  1.00  0.00    -0.187 NA
HETATM   14  N   UNL     1      18.213  52.423  49.099  1.00  0.00    -0.289 N 
HETATM   15  H   UNL     1      17.524  53.124  48.848  1.00  0.00     0.188 HD
HETATM   16  C   UNL     1      19.460  52.243  48.575  1.00  0.00     0.123 A 
ENDBRANCH   7  11
ENDBRANCH   2   5
BRANCH   1  17
HETATM   17  C   UNL     1      24.147  45.286  49.942  1.00  0.00     0.108 C 
BRANCH  17  18
HETATM   18  C   UNL     1      25.644  45.513  50.139  1.00  0.00     0.047 C 
BRANCH  18  19
HETATM   19  C   UNL     1      26.174  45.680  51.545  1.00  0.00    -0.058 A 
HETATM   20  C   UNL     1      26.920  44.706  52.216  1.00  0.00     0.007 A 
HETATM   21  C   UNL     1      27.421  44.948  53.501  1.00  0.00     0.007 A 
HETATM   22  C   UNL     1      27.199  46.174  54.136  1.00  0.00    -0.062 A 
HETATM   23  C   UNL     1      27.740  46.446  55.507  1.00  0.00     0.048 C 
HETATM   24  C   UNL     1      26.456  47.153  53.470  1.00  0.00     0.007 A 
HETATM   25  C   UNL     1      25.954  46.910  52.189  1.00  0.00     0.007 A 
ENDBRANCH  18  19
ENDBRANCH  17  18
ENDBRANCH   1  17
TORSDOF 5
ENDMDL
