MODEL 1
REMARK VINA RESULT:      -8.9      0.000      0.000
REMARK  8 active torsions:
REMARK  status: ('A' for Active; 'I' for Inactive)
REMARK    1  A    between atoms: O_2  and  C_3 
REMARK    2  A    between atoms: C_4  and  O_5 
REMARK    3  A    between atoms: C_6  and  C_7 
REMARK    4  A    between atoms: C_7  and  C_8 
REMARK    5  A    between atoms: C_11  and  C_12 
REMARK    6  A    between atoms: C_12  and  N_13 
REMARK    7  A    between atoms: C_16  and  N_17 
REMARK       I    between atoms: N_17  and  C_18 
REMARK       I    between atoms: C_18  and  N_19 
REMARK    8  A    between atoms: N_19  and  C_20 
ROOT
HETATM    1  N   UNL     1      26.140  45.532  50.300  1.00  0.00    -0.065 N 
HETATM    2  H   UNL     1      26.427  45.404  51.282  1.00  0.00     0.280 HD
HETATM    3  C   UNL     1      24.649  45.841  50.346  1.00  0.00     0.260 C 
HETATM    4  C   UNL     1      24.505  47.184  49.614  1.00  0.00     0.113 C 
HETATM    5  C   UNL     1      25.822  47.885  49.913  1.00  0.00     0.054 C 
HETATM    6  C   UNL     1      26.838  46.767  49.775  1.00  0.00     0.237 C 
ENDROOT
BRANCH   1   7
HETATM    7  C   UNL     1      26.519  44.278  49.562  1.00  0.00     0.273 C 
BRANCH   7   8
HETATM    8  C   UNL     1      27.141  43.228  50.443  1.00  0.00    -0.029 A 
HETATM    9  C   UNL     1      27.487  43.536  51.769  1.00  0.00     0.019 A 
HETATM   10  C   UNL     1      28.043  42.565  52.616  1.00  0.00    -0.018 A 
HETATM   11  C   UNL     1      28.227  41.275  52.112  1.00  0.00     0.105 A 
HETATM   12  C   UNL     1      27.904  40.945  50.789  1.00  0.00     0.102 A 
HETATM   13  C   UNL     1      27.363  41.926  49.958  1.00  0.00     0.048 A 
BRANCH  10  14
HETATM   14  C   UNL     1      28.400  42.923  54.041  1.00  0.00     0.068 C 
BRANCH  14  15
HETATM   15  C   UNL     1      29.840  43.336  54.174  1.00  0.00    -0.032 C 
HETATM   16  C   UNL     1      30.532  43.322  55.320  1.00  0.00     0.007 C 
ENDBRANCH  14  15
ENDBRANCH  10  14
BRANCH  11  17
HETATM   17  O   UNL     1      28.742  40.305  52.931  1.00  0.00    -0.357 OA
HETATM   18  H   UNL     1      28.696  39.471  52.423  1.00  0.00     0.218 HD
ENDBRANCH  11  17
BRANCH  12  19
HETATM   19  O   UNL     1      28.149  39.641  50.444  1.00  0.00    -0.353 OA
HETATM   20  C   UNL     1      28.781  39.403  49.192  1.00  0.00     0.210 C 
ENDBRANCH  12  19
ENDBRANCH   7   8
ENDBRANCH   1   7
BRANCH   4  21
HETATM   21  N   UNL     1      23.317  47.957  49.927  1.00  0.00    -0.337 N 
HETATM   22  C   UNL     1      22.662  48.720  48.980  1.00  0.00     0.321 C 
HETATM   23  N   UNL     1      21.555  49.328  49.519  1.00  0.00    -0.309 N 
HETATM   24  O   UNL     1      23.084  48.811  47.835  1.00  0.00    -0.247 OA
HETATM   25  H   UNL     1      21.527  49.390  50.526  1.00  0.00     0.170 HD
HETATM   26  H   UNL     1      22.720  47.607  50.667  1.00  0.00     0.164 HD
BRANCH  23  27
HETATM   27  C   UNL     1      20.557  50.050  48.833  1.00  0.00     0.036 A 
HETATM   28  C   UNL     1      19.633  49.460  47.967  1.00  0.00     0.032 A 
HETATM   29  C   UNL     1      18.651  50.241  47.347  1.00  0.00     0.044 A 
HETATM   30  C   UNL     1      18.598  51.606  47.592  1.00  0.00     0.116 A 
HETATM   31  F   UNL     1      17.657  52.350  46.999  1.00  0.00    -0.206 F 
HETATM   32  C   UNL     1      19.507  52.209  48.451  1.00  0.00     0.044 A 
HETATM   33  C   UNL     1      20.484  51.429  49.075  1.00  0.00     0.032 A 
ENDBRANCH  23  27
ENDBRANCH   4  21
TORSDOF 8
ENDMDL
MODEL 2
REMARK VINA RESULT:      -8.5      4.461     10.392
REMARK  8 active torsions:
REMARK  status: ('A' for Active; 'I' for Inactive)
REMARK    1  A    between atoms: O_2  and  C_3 
REMARK    2  A    between atoms: C_4  and  O_5 
REMARK    3  A    between atoms: C_6  and  C_7 
REMARK    4  A    between atoms: C_7  and  C_8 
REMARK    5  A    between atoms: C_11  and  C_12 
REMARK    6  A    between atoms: C_12  and  N_13 
REMARK    7  A    between atoms: C_16  and  N_17 
REMARK       I    between atoms: N_17  and  C_18 
REMARK       I    between atoms: C_18  and  N_19 
REMARK    8  A    between atoms: N_19  and  C_20 
ROOT
HETATM    1  N   UNL     1      22.622  44.757  49.448  1.00  0.00    -0.065 N 
HETATM    2  H   UNL     1      21.708  44.970  49.873  1.00  0.00     0.280 HD
HETATM    3  C   UNL     1      23.643  44.928  50.565  1.00  0.00     0.260 C 
HETATM    4  C   UNL     1      24.380  43.581  50.632  1.00  0.00     0.113 C 
HETATM    5  C   UNL     1      23.314  42.582  50.208  1.00  0.00     0.054 C 
HETATM    6  C   UNL     1      22.620  43.294  49.064  1.00  0.00     0.237 C 
ENDROOT
BRANCH   1   7
HETATM    7  C   UNL     1      22.788  45.678  48.272  1.00  0.00     0.273 C 
BRANCH   7   8
HETATM    8  C   UNL     1      22.405  47.104  48.568  1.00  0.00    -0.029 A 
HETATM    9  C   UNL     1      23.372  48.120  48.507  1.00  0.00     0.019 A 
HETATM   10  C   UNL     1      23.030  49.460  48.753  1.00  0.00    -0.018 A 
HETATM   11  C   UNL     1      21.697  49.759  49.044  1.00  0.00     0.105 A 
HETATM   12  C   UNL     1      20.716  48.762  49.126  1.00  0.00     0.102 A 
HETATM   13  C   UNL     1      21.075  47.436  48.890  1.00  0.00     0.048 A 
BRANCH  10  14
HETATM   14  C   UNL     1      24.091  50.534  48.673  1.00  0.00     0.068 C 
BRANCH  14  15
HETATM   15  C   UNL     1      25.282  50.091  47.871  1.00  0.00    -0.032 C 
HETATM   16  C   UNL     1      26.510  49.905  48.371  1.00  0.00     0.007 C 
ENDBRANCH  14  15
ENDBRANCH  10  14
BRANCH  11  17
HETATM   17  O   UNL     1      21.338  51.063  49.259  1.00  0.00    -0.357 OA
HETATM   18  H   UNL     1      21.289  51.173  50.229  1.00  0.00     0.218 HD
ENDBRANCH  11  17
BRANCH  12  19
HETATM   19  O   UNL     1      19.458  49.216  49.426  1.00  0.00    -0.353 OA
HETATM   20  C   UNL     1      18.734  48.520  50.434  1.00  0.00     0.210 C 
ENDBRANCH  12  19
ENDBRANCH   7   8
ENDBRANCH   1   7
BRANCH   4  21
HETATM   21  N   UNL     1      25.038  43.276  51.889  1.00  0.00    -0.337 N 
HETATM   22  C   UNL     1      26.340  43.656  52.152  1.00  0.00     0.321 C 
HETATM   23  N   UNL     1      26.718  43.275  53.416  1.00  0.00    -0.309 N 
HETATM   24  O   UNL     1      27.016  44.233  51.311  1.00  0.00    -0.247 OA
HETATM   25  H   UNL     1      26.157  42.557  53.851  1.00  0.00     0.170 HD
HETATM   26  H   UNL     1      24.451  43.202  52.712  1.00  0.00     0.164 HD
BRANCH  23  27
HETATM   27  C   UNL     1      27.905  43.620  54.094  1.00  0.00     0.036 A 
HETATM   28  C   UNL     1      28.069  44.809  54.810  1.00  0.00     0.032 A 
HETATM   29  C   UNL     1      29.268  45.065  55.483  1.00  0.00     0.044 A 
HETATM   30  C   UNL     1      30.298  44.135  55.438  1.00  0.00     0.116 A 
HETATM   31  F   UNL     1      31.443  44.382  56.085  1.00  0.00    -0.206 F 
HETATM   32  C   UNL     1      30.152  42.948  54.733  1.00  0.00     0.044 A 
HETATM   33  C   UNL     1      28.953  42.689  54.065  1.00  0.00     0.032 A 
ENDBRANCH  23  27
ENDBRANCH   4  21
TORSDOF 8
ENDMDL
MODEL 3
REMARK VINA RESULT:      -8.2      4.360     10.498
REMARK  8 active torsions:
REMARK  status: ('A' for Active; 'I' for Inactive)
REMARK    1  A    between atoms: O_2  and  C_3 
REMARK    2  A    between atoms: C_4  and  O_5 
REMARK    3  A    between atoms: C_6  and  C_7 
REMARK    4  A    between atoms: C_7  and  C_8 
REMARK    5  A    between atoms: C_11  and  C_12 
REMARK    6  A    between atoms: C_12  and  N_13 
REMARK    7  A    between atoms: C_16  and  N_17 
REMARK       I    between atoms: N_17  and  C_18 
REMARK       I    between atoms: C_18  and  N_19 
REMARK    8  A    between atoms: N_19  and  C_20 
ROOT
HETATM    1  N   UNL     1      22.686  44.576  49.470  1.00  0.00    -0.065 N 
HETATM    2  H   UNL     1      21.784  44.829  49.900  1.00  0.00     0.280 HD
HETATM    3  C   UNL     1      23.725  44.735  50.572  1.00  0.00     0.260 C 
HETATM    4  C   UNL     1      24.416  43.365  50.661  1.00  0.00     0.113 C 
HETATM    5  C   UNL     1      23.310  42.394  50.270  1.00  0.00     0.054 C 
HETATM    6  C   UNL     1      22.629  43.106  49.117  1.00  0.00     0.237 C 
ENDROOT
BRANCH   1   7
HETATM    7  C   UNL     1      22.871  45.466  48.272  1.00  0.00     0.273 C 
BRANCH   7   8
HETATM    8  C   UNL     1      22.460  46.893  48.518  1.00  0.00    -0.029 A 
HETATM    9  C   UNL     1      21.099  47.236  48.565  1.00  0.00     0.019 A 
HETATM   10  C   UNL     1      20.694  48.556  48.820  1.00  0.00    -0.018 A 
HETATM   11  C   UNL     1      21.681  49.519  49.043  1.00  0.00     0.105 A 
HETATM   12  C   UNL     1      23.046  49.206  48.987  1.00  0.00     0.102 A 
HETATM   13  C   UNL     1      23.431  47.893  48.721  1.00  0.00     0.048 A 
BRANCH  10  14
HETATM   14  C   UNL     1      19.222  48.895  48.872  1.00  0.00     0.068 C 
BRANCH  14  15
HETATM   15  C   UNL     1      18.545  48.284  50.067  1.00  0.00    -0.032 C 
HETATM   16  C   UNL     1      18.663  48.736  51.322  1.00  0.00     0.007 C 
ENDBRANCH  14  15
ENDBRANCH  10  14
BRANCH  11  17
HETATM   17  O   UNL     1      21.306  50.807  49.321  1.00  0.00    -0.357 OA
HETATM   18  H   UNL     1      21.521  50.952  50.264  1.00  0.00     0.218 HD
ENDBRANCH  11  17
BRANCH  12  19
HETATM   19  O   UNL     1      23.888  50.262  49.222  1.00  0.00    -0.353 OA
HETATM   20  C   UNL     1      25.067  50.347  48.429  1.00  0.00     0.210 C 
ENDBRANCH  12  19
ENDBRANCH   7   8
ENDBRANCH   1   7
BRANCH   4  21
HETATM   21  N   UNL     1      25.076  43.064  51.917  1.00  0.00    -0.337 N 
HETATM   22  C   UNL     1      26.370  43.466  52.186  1.00  0.00     0.321 C 
HETATM   23  N   UNL     1      26.752  43.084  53.448  1.00  0.00    -0.309 N 
HETATM   24  O   UNL     1      27.036  44.062  51.350  1.00  0.00    -0.247 OA
HETATM   25  H   UNL     1      26.204  42.352  53.877  1.00  0.00     0.170 HD
HETATM   26  H   UNL     1      24.489  42.972  52.738  1.00  0.00     0.164 HD
BRANCH  23  27
HETATM   27  C   UNL     1      27.930  43.447  54.131  1.00  0.00     0.036 A 
HETATM   28  C   UNL     1      29.072  42.643  54.185  1.00  0.00     0.032 A 
HETATM   29  C   UNL     1      30.216  43.088  54.858  1.00  0.00     0.044 A 
HETATM   30  C   UNL     1      30.213  44.331  55.475  1.00  0.00     0.116 A 
HETATM   31  F   UNL     1      31.309  44.755  56.116  1.00  0.00    -0.206 F 
HETATM   32  C   UNL     1      29.089  45.144  55.431  1.00  0.00     0.044 A 
HETATM   33  C   UNL     1      27.949  44.703  54.754  1.00  0.00     0.032 A 
ENDBRANCH  23  27
ENDBRANCH   4  21
TORSDOF 8
ENDMDL
MODEL 4
REMARK VINA RESULT:      -8.1      4.475     10.898
REMARK  8 active torsions:
REMARK  status: ('A' for Active; 'I' for Inactive)
REMARK    1  A    between atoms: O_2  and  C_3 
REMARK    2  A    between atoms: C_4  and  O_5 
REMARK    3  A    between atoms: C_6  and  C_7 
REMARK    4  A    between atoms: C_7  and  C_8 
REMARK    5  A    between atoms: C_11  and  C_12 
REMARK    6  A    between atoms: C_12  and  N_13 
REMARK    7  A    between atoms: C_16  and  N_17 
REMARK       I    between atoms: N_17  and  C_18 
REMARK       I    between atoms: C_18  and  N_19 
REMARK    8  A    between atoms: N_19  and  C_20 
ROOT
HETATM    1  N   UNL     1      22.820  44.825  49.614  1.00  0.00    -0.065 N 
HETATM    2  H   UNL     1      21.908  44.977  50.069  1.00  0.00     0.280 HD
HETATM    3  C   UNL     1      23.854  44.925  50.728  1.00  0.00     0.260 C 
HETATM    4  C   UNL     1      24.625  43.597  50.668  1.00  0.00     0.113 C 
HETATM    5  C   UNL     1      23.576  42.611  50.173  1.00  0.00     0.054 C 
HETATM    6  C   UNL     1      22.848  43.401  49.104  1.00  0.00     0.237 C 
ENDROOT
BRANCH   1   7
HETATM    7  C   UNL     1      22.946  45.849  48.520  1.00  0.00     0.273 C 
BRANCH   7   8
HETATM    8  C   UNL     1      21.711  46.692  48.344  1.00  0.00    -0.029 A 
HETATM    9  C   UNL     1      21.828  48.058  48.041  1.00  0.00     0.019 A 
HETATM   10  C   UNL     1      20.690  48.856  47.845  1.00  0.00    -0.018 A 
HETATM   11  C   UNL     1      19.435  48.252  47.942  1.00  0.00     0.105 A 
HETATM   12  C   UNL     1      19.289  46.894  48.258  1.00  0.00     0.102 A 
HETATM   13  C   UNL     1      20.430  46.119  48.460  1.00  0.00     0.048 A 
BRANCH  10  14
HETATM   14  C   UNL     1      20.847  50.323  47.514  1.00  0.00     0.068 C 
BRANCH  14  15
HETATM   15  C   UNL     1      21.053  51.160  48.745  1.00  0.00    -0.032 C 
HETATM   16  C   UNL     1      20.168  51.277  49.743  1.00  0.00     0.007 C 
ENDBRANCH  14  15
ENDBRANCH  10  14
BRANCH  11  17
HETATM   17  O   UNL     1      18.312  49.007  47.727  1.00  0.00    -0.357 OA
HETATM   18  H   UNL     1      18.630  49.900  47.487  1.00  0.00     0.218 HD
ENDBRANCH  11  17
BRANCH  12  19
HETATM   19  O   UNL     1      17.993  46.454  48.322  1.00  0.00    -0.353 OA
HETATM   20  C   UNL     1      17.559  45.547  47.315  1.00  0.00     0.210 C 
ENDBRANCH  12  19
ENDBRANCH   7   8
ENDBRANCH   1   7
BRANCH   4  21
HETATM   21  N   UNL     1      25.309  43.201  51.885  1.00  0.00    -0.337 N 
HETATM   22  C   UNL     1      26.570  43.664  52.206  1.00  0.00     0.321 C 
HETATM   23  N   UNL     1      26.982  43.167  53.418  1.00  0.00    -0.309 N 
HETATM   24  O   UNL     1      27.188  44.402  51.450  1.00  0.00    -0.247 OA
HETATM   25  H   UNL     1      26.491  42.351  53.755  1.00  0.00     0.170 HD
HETATM   26  H   UNL     1      24.733  42.971  52.686  1.00  0.00     0.164 HD
BRANCH  23  27
HETATM   27  C   UNL     1      28.132  43.534  54.146  1.00  0.00     0.036 A 
HETATM   28  C   UNL     1      28.249  44.733  54.855  1.00  0.00     0.032 A 
HETATM   29  C   UNL     1      29.412  45.012  55.580  1.00  0.00     0.044 A 
HETATM   30  C   UNL     1      30.454  44.094  55.594  1.00  0.00     0.116 A 
HETATM   31  F   UNL     1      31.565  44.362  56.291  1.00  0.00    -0.206 F 
HETATM   32  C   UNL     1      30.355  42.897  54.897  1.00  0.00     0.044 A 
HETATM   33  C   UNL     1      29.191  42.615  54.177  1.00  0.00     0.032 A 
ENDBRANCH  23  27
ENDBRANCH   4  21
TORSDOF 8
ENDMDL
MODEL 5
REMARK VINA RESULT:      -7.7      2.714      3.941
REMARK  8 active torsions:
REMARK  status: ('A' for Active; 'I' for Inactive)
REMARK    1  A    between atoms: O_2  and  C_3 
REMARK    2  A    between atoms: C_4  and  O_5 
REMARK    3  A    between atoms: C_6  and  C_7 
REMARK    4  A    between atoms: C_7  and  C_8 
REMARK    5  A    between atoms: C_11  and  C_12 
REMARK    6  A    between atoms: C_12  and  N_13 
REMARK    7  A    between atoms: C_16  and  N_17 
REMARK       I    between atoms: N_17  and  C_18 
REMARK       I    between atoms: C_18  and  N_19 
REMARK    8  A    between atoms: N_19  and  C_20 
ROOT
HETATM    1  N   UNL     1      25.300  48.020  49.829  1.00  0.00    -0.065 N 
HETATM    2  H   UNL     1      25.248  48.351  50.803  1.00  0.00     0.280 HD
HETATM    3  C   UNL     1      23.856  47.821  49.386  1.00  0.00     0.260 C 
HETATM    4  C   UNL     1      23.709  48.689  48.127  1.00  0.00     0.113 C 
HETATM    5  C   UNL     1      24.673  49.838  48.384  1.00  0.00     0.054 C 
HETATM    6  C   UNL     1      25.874  49.142  48.992  1.00  0.00     0.237 C 
ENDROOT
BRANCH   1   7
HETATM    7  C   UNL     1      26.154  46.782  49.828  1.00  0.00     0.273 C 
BRANCH   7   8
HETATM    8  C   UNL     1      26.343  46.183  51.195  1.00  0.00    -0.029 A 
HETATM    9  C   UNL     1      26.958  44.929  51.336  1.00  0.00     0.019 A 
HETATM   10  C   UNL     1      27.168  44.364  52.604  1.00  0.00    -0.018 A 
HETATM   11  C   UNL     1      26.766  45.091  53.726  1.00  0.00     0.105 A 
HETATM   12  C   UNL     1      26.137  46.339  53.614  1.00  0.00     0.102 A 
HETATM   13  C   UNL     1      25.926  46.879  52.346  1.00  0.00     0.048 A 
BRANCH  10  14
HETATM   14  C   UNL     1      27.839  43.014  52.725  1.00  0.00     0.068 C 
BRANCH  14  15
HETATM   15  C   UNL     1      29.337  43.122  52.670  1.00  0.00    -0.032 C 
HETATM   16  C   UNL     1      30.151  42.963  53.721  1.00  0.00     0.007 C 
ENDBRANCH  14  15
ENDBRANCH  10  14
BRANCH  11  17
HETATM   17  O   UNL     1      26.989  44.571  54.974  1.00  0.00    -0.357 OA
HETATM   18  H   UNL     1      26.459  43.750  55.022  1.00  0.00     0.218 HD
ENDBRANCH  11  17
BRANCH  12  19
HETATM   19  O   UNL     1      25.798  46.922  54.807  1.00  0.00    -0.353 OA
HETATM   20  C   UNL     1      26.552  48.056  55.218  1.00  0.00     0.210 C 
ENDBRANCH  12  19
ENDBRANCH   7   8
ENDBRANCH   1   7
BRANCH   4  21
HETATM   21  N   UNL     1      22.358  49.090  47.783  1.00  0.00    -0.337 N 
HETATM   22  C   UNL     1      21.530  49.738  48.679  1.00  0.00     0.321 C 
HETATM   23  N   UNL     1      20.319  50.035  48.104  1.00  0.00    -0.309 N 
HETATM   24  O   UNL     1      21.889  49.965  49.826  1.00  0.00    -0.247 OA
HETATM   25  H   UNL     1      20.084  49.517  47.269  1.00  0.00     0.170 HD
HETATM   26  H   UNL     1      22.174  49.310  46.811  1.00  0.00     0.164 HD
BRANCH  23  27
HETATM   27  C   UNL     1      19.285  50.824  48.647  1.00  0.00     0.036 A 
HETATM   28  C   UNL     1      19.217  52.213  48.509  1.00  0.00     0.032 A 
HETATM   29  C   UNL     1      18.141  52.923  49.051  1.00  0.00     0.044 A 
HETATM   30  C   UNL     1      17.138  52.244  49.730  1.00  0.00     0.116 A 
HETATM   31  F   UNL     1      16.108  52.926  50.245  1.00  0.00    -0.206 F 
HETATM   32  C   UNL     1      17.187  50.865  49.875  1.00  0.00     0.044 A 
HETATM   33  C   UNL     1      18.259  50.154  49.329  1.00  0.00     0.032 A 
ENDBRANCH  23  27
ENDBRANCH   4  21
TORSDOF 8
ENDMDL
MODEL 6
REMARK VINA RESULT:      -7.7      1.964      3.410
REMARK  8 active torsions:
REMARK  status: ('A' for Active; 'I' for Inactive)
REMARK    1  A    between atoms: O_2  and  C_3 
REMARK    2  A    between atoms: C_4  and  O_5 
REMARK    3  A    between atoms: C_6  and  C_7 
REMARK    4  A    between atoms: C_7  and  C_8 
REMARK    5  A    between atoms: C_11  and  C_12 
REMARK    6  A    between atoms: C_12  and  N_13 
REMARK    7  A    between atoms: C_16  and  N_17 
REMARK       I    between atoms: N_17  and  C_18 
REMARK       I    between atoms: C_18  and  N_19 
REMARK    8  A    between atoms: N_19  and  C_20 
ROOT
HETATM    1  N   UNL     1      26.545  47.323  49.909  1.00  0.00    -0.065 N 
HETATM    2  H   UNL     1      26.838  47.439  50.890  1.00  0.00     0.280 HD
HETATM    3  C   UNL     1      25.145  47.920  49.827  1.00  0.00     0.260 C 
HETATM    4  C   UNL     1      25.237  48.985  48.724  1.00  0.00     0.113 C 
HETATM    5  C   UNL     1      26.676  49.469  48.830  1.00  0.00     0.054 C 
HETATM    6  C   UNL     1      27.449  48.184  49.055  1.00  0.00     0.237 C 
ENDROOT
BRANCH   1   7
HETATM    7  C   UNL     1      26.644  45.858  49.587  1.00  0.00     0.273 C 
BRANCH   7   8
HETATM    8  C   UNL     1      26.735  44.981  50.808  1.00  0.00    -0.029 A 
HETATM    9  C   UNL     1      26.976  43.605  50.670  1.00  0.00     0.019 A 
HETATM   10  C   UNL     1      27.092  42.774  51.795  1.00  0.00    -0.018 A 
HETATM   11  C   UNL     1      26.978  43.355  53.060  1.00  0.00     0.105 A 
HETATM   12  C   UNL     1      26.723  44.723  53.226  1.00  0.00     0.102 A 
HETATM   13  C   UNL     1      26.599  45.532  52.097  1.00  0.00     0.048 A 
BRANCH  10  14
HETATM   14  C   UNL     1      27.358  41.297  51.617  1.00  0.00     0.068 C 
BRANCH  14  15
HETATM   15  C   UNL     1      26.315  40.636  50.760  1.00  0.00    -0.032 C 
HETATM   16  C   UNL     1      26.568  39.686  49.850  1.00  0.00     0.007 C 
ENDBRANCH  14  15
ENDBRANCH  10  14
BRANCH  11  17
HETATM   17  O   UNL     1      27.116  42.567  54.172  1.00  0.00    -0.357 OA
HETATM   18  H   UNL     1      28.067  42.582  54.397  1.00  0.00     0.218 HD
ENDBRANCH  11  17
BRANCH  12  19
HETATM   19  O   UNL     1      26.632  45.139  54.529  1.00  0.00    -0.353 OA
HETATM   20  C   UNL     1      27.733  45.864  55.062  1.00  0.00     0.210 C 
ENDBRANCH  12  19
ENDBRANCH   7   8
ENDBRANCH   1   7
BRANCH   4  21
HETATM   21  N   UNL     1      24.236  50.034  48.766  1.00  0.00    -0.337 N 
HETATM   22  C   UNL     1      22.907  49.799  48.472  1.00  0.00     0.321 C 
HETATM   23  N   UNL     1      22.161  50.943  48.612  1.00  0.00    -0.309 N 
HETATM   24  O   UNL     1      22.521  48.693  48.117  1.00  0.00    -0.247 OA
HETATM   25  H   UNL     1      22.675  51.812  48.613  1.00  0.00     0.170 HD
HETATM   26  H   UNL     1      24.389  50.795  49.418  1.00  0.00     0.164 HD
BRANCH  23  27
HETATM   27  C   UNL     1      20.758  51.061  48.553  1.00  0.00     0.036 A 
HETATM   28  C   UNL     1      20.010  50.834  47.395  1.00  0.00     0.032 A 
HETATM   29  C   UNL     1      18.615  50.942  47.424  1.00  0.00     0.044 A 
HETATM   30  C   UNL     1      17.974  51.276  48.610  1.00  0.00     0.116 A 
HETATM   31  F   UNL     1      16.639  51.376  48.635  1.00  0.00    -0.206 F 
HETATM   32  C   UNL     1      18.700  51.503  49.770  1.00  0.00     0.044 A 
HETATM   33  C   UNL     1      20.092  51.391  49.743  1.00  0.00     0.032 A 
ENDBRANCH  23  27
ENDBRANCH   4  21
TORSDOF 8
ENDMDL
MODEL 7
REMARK VINA RESULT:      -7.5      1.753      2.085
REMARK  8 active torsions:
REMARK  status: ('A' for Active; 'I' for Inactive)
REMARK    1  A    between atoms: O_2  and  C_3 
REMARK    2  A    between atoms: C_4  and  O_5 
REMARK    3  A    between atoms: C_6  and  C_7 
REMARK    4  A    between atoms: C_7  and  C_8 
REMARK    5  A    between atoms: C_11  and  C_12 
REMARK    6  A    between atoms: C_12  and  N_13 
REMARK    7  A    between atoms: C_16  and  N_17 
REMARK       I    between atoms: N_17  and  C_18 
REMARK       I    between atoms: C_18  and  N_19 
REMARK    8  A    between atoms: N_19  and  C_20 
ROOT
HETATM    1  N   UNL     1      24.492  43.718  49.281  1.00  0.00    -0.065 N 
HETATM    2  H   UNL     1      25.410  43.607  48.826  1.00  0.00     0.280 HD
HETATM    3  C   UNL     1      24.364  45.204  49.588  1.00  0.00     0.260 C 
HETATM    4  C   UNL     1      23.060  45.637  48.900  1.00  0.00     0.113 C 
HETATM    5  C   UNL     1      22.985  44.714  47.692  1.00  0.00     0.054 C 
HETATM    6  C   UNL     1      23.429  43.379  48.258  1.00  0.00     0.237 C 
ENDROOT
BRANCH   1   7
HETATM    7  C   UNL     1      24.477  42.806  50.476  1.00  0.00     0.273 C 
BRANCH   7   8
HETATM    8  C   UNL     1      25.850  42.393  50.932  1.00  0.00    -0.029 A 
HETATM    9  C   UNL     1      26.508  43.123  51.936  1.00  0.00     0.019 A 
HETATM   10  C   UNL     1      27.778  42.740  52.396  1.00  0.00    -0.018 A 
HETATM   11  C   UNL     1      28.365  41.600  51.842  1.00  0.00     0.105 A 
HETATM   12  C   UNL     1      27.737  40.862  50.829  1.00  0.00     0.102 A 
HETATM   13  C   UNL     1      26.481  41.264  50.376  1.00  0.00     0.048 A 
BRANCH  10  14
HETATM   14  C   UNL     1      28.459  43.541  53.482  1.00  0.00     0.068 C 
BRANCH  14  15
HETATM   15  C   UNL     1      27.717  44.811  53.794  1.00  0.00    -0.032 C 
HETATM   16  C   UNL     1      27.896  45.545  54.899  1.00  0.00     0.007 C 
ENDBRANCH  14  15
ENDBRANCH  10  14
BRANCH  11  17
HETATM   17  O   UNL     1      29.591  41.193  52.296  1.00  0.00    -0.357 OA
HETATM   18  H   UNL     1      30.249  41.739  51.823  1.00  0.00     0.218 HD
ENDBRANCH  11  17
BRANCH  12  19
HETATM   19  O   UNL     1      28.445  39.776  50.385  1.00  0.00    -0.353 OA
HETATM   20  C   UNL     1      28.762  39.722  49.000  1.00  0.00     0.210 C 
ENDBRANCH  12  19
ENDBRANCH   7   8
ENDBRANCH   1   7
BRANCH   4  21
HETATM   21  N   UNL     1      22.938  47.050  48.596  1.00  0.00    -0.337 N 
HETATM   22  C   UNL     1      21.728  47.714  48.648  1.00  0.00     0.321 C 
HETATM   23  N   UNL     1      21.883  49.045  48.348  1.00  0.00    -0.309 N 
HETATM   24  O   UNL     1      20.690  47.123  48.912  1.00  0.00    -0.247 OA
HETATM   25  H   UNL     1      22.735  49.296  47.866  1.00  0.00     0.170 HD
HETATM   26  H   UNL     1      23.743  47.636  48.787  1.00  0.00     0.164 HD
BRANCH  23  27
HETATM   27  C   UNL     1      20.914  50.063  48.451  1.00  0.00     0.036 A 
HETATM   28  C   UNL     1      20.142  50.508  47.374  1.00  0.00     0.032 A 
HETATM   29  C   UNL     1      19.177  51.503  47.563  1.00  0.00     0.044 A 
HETATM   30  C   UNL     1      18.988  52.051  48.825  1.00  0.00     0.116 A 
HETATM   31  F   UNL     1      18.062  53.001  49.003  1.00  0.00    -0.206 F 
HETATM   32  C   UNL     1      19.744  51.620  49.906  1.00  0.00     0.044 A 
HETATM   33  C   UNL     1      20.705  50.623  49.720  1.00  0.00     0.032 A 
ENDBRANCH  23  27
ENDBRANCH   4  21
TORSDOF 8
ENDMDL
MODEL 8
REMARK VINA RESULT:      -7.4      2.289      2.808
REMARK  8 active torsions:
REMARK  status: ('A' for Active; 'I' for Inactive)
REMARK    1  A    between atoms: O_2  and  C_3 
REMARK    2  A    between atoms: C_4  and  O_5 
REMARK    3  A    between atoms: C_6  and  C_7 
REMARK    4  A    between atoms: C_7  and  C_8 
REMARK    5  A    between atoms: C_11  and  C_12 
REMARK    6  A    between atoms: C_12  and  N_13 
REMARK    7  A    between atoms: C_16  and  N_17 
REMARK       I    between atoms: N_17  and  C_18 
REMARK       I    between atoms: C_18  and  N_19 
REMARK    8  A    between atoms: N_19  and  C_20 
ROOT
HETATM    1  N   UNL     1      25.824  46.265  50.290  1.00  0.00    -0.065 N 
HETATM    2  H   UNL     1      25.928  46.266  51.315  1.00  0.00     0.280 HD
HETATM    3  C   UNL     1      24.357  45.947  50.028  1.00  0.00     0.260 C 
HETATM    4  C   UNL     1      23.849  47.116  49.170  1.00  0.00     0.113 C 
HETATM    5  C   UNL     1      24.691  48.289  49.651  1.00  0.00     0.054 C 
HETATM    6  C   UNL     1      26.069  47.676  49.803  1.00  0.00     0.237 C 
ENDROOT
BRANCH   1   7
HETATM    7  C   UNL     1      26.810  45.270  49.745  1.00  0.00     0.273 C 
BRANCH   7   8
HETATM    8  C   UNL     1      26.976  44.054  50.616  1.00  0.00    -0.029 A 
HETATM    9  C   UNL     1      27.462  44.187  51.927  1.00  0.00     0.019 A 
HETATM   10  C   UNL     1      27.599  43.069  52.766  1.00  0.00    -0.018 A 
HETATM   11  C   UNL     1      27.223  41.820  52.268  1.00  0.00     0.105 A 
HETATM   12  C   UNL     1      26.749  41.656  50.959  1.00  0.00     0.102 A 
HETATM   13  C   UNL     1      26.630  42.776  50.136  1.00  0.00     0.048 A 
BRANCH  10  14
HETATM   14  C   UNL     1      28.118  43.244  54.175  1.00  0.00     0.068 C 
BRANCH  14  15
HETATM   15  C   UNL     1      29.538  42.772  54.315  1.00  0.00    -0.032 C 
HETATM   16  C   UNL     1      30.471  42.874  53.360  1.00  0.00     0.007 C 
ENDBRANCH  14  15
ENDBRANCH  10  14
BRANCH  11  17
HETATM   17  O   UNL     1      27.322  40.721  53.079  1.00  0.00    -0.357 OA
HETATM   18  H   UNL     1      26.413  40.376  53.180  1.00  0.00     0.218 HD
ENDBRANCH  11  17
BRANCH  12  19
HETATM   19  O   UNL     1      26.429  40.368  50.619  1.00  0.00    -0.353 OA
HETATM   20  C   UNL     1      27.267  39.712  49.676  1.00  0.00     0.210 C 
ENDBRANCH  12  19
ENDBRANCH   7   8
ENDBRANCH   1   7
BRANCH   4  21
HETATM   21  N   UNL     1      22.417  47.345  49.187  1.00  0.00    -0.337 N 
HETATM   22  C   UNL     1      21.628  47.171  48.067  1.00  0.00     0.321 C 
HETATM   23  N   UNL     1      20.308  47.422  48.351  1.00  0.00    -0.309 N 
HETATM   24  O   UNL     1      22.115  46.856  46.989  1.00  0.00    -0.247 OA
HETATM   25  H   UNL     1      20.126  47.955  49.189  1.00  0.00     0.170 HD
HETATM   26  H   UNL     1      21.934  47.190  50.065  1.00  0.00     0.164 HD
BRANCH  23  27
HETATM   27  C   UNL     1      19.196  47.199  47.513  1.00  0.00     0.036 A 
HETATM   28  C   UNL     1      18.589  48.201  46.750  1.00  0.00     0.032 A 
HETATM   29  C   UNL     1      17.508  47.894  45.917  1.00  0.00     0.044 A 
HETATM   30  C   UNL     1      17.036  46.590  45.851  1.00  0.00     0.116 A 
HETATM   31  F   UNL     1      16.002  46.300  45.052  1.00  0.00    -0.206 F 
HETATM   32  C   UNL     1      17.627  45.582  46.600  1.00  0.00     0.044 A 
HETATM   33  C   UNL     1      18.710  45.886  47.428  1.00  0.00     0.032 A 
ENDBRANCH  23  27
ENDBRANCH   4  21
TORSDOF 8
ENDMDL
MODEL 9
REMARK VINA RESULT:      -7.2      4.150      9.925
REMARK  8 active torsions:
REMARK  status: ('A' for Active; 'I' for Inactive)
REMARK    1  A    between atoms: O_2  and  C_3 
REMARK    2  A    between atoms: C_4  and  O_5 
REMARK    3  A    between atoms: C_6  and  C_7 
REMARK    4  A    between atoms: C_7  and  C_8 
REMARK    5  A    between atoms: C_11  and  C_12 
REMARK    6  A    between atoms: C_12  and  N_13 
REMARK    7  A    between atoms: C_16  and  N_17 
REMARK       I    between atoms: N_17  and  C_18 
REMARK       I    between atoms: C_18  and  N_19 
REMARK    8  A    between atoms: N_19  and  C_20 
ROOT
HETATM    1  N   UNL     1      21.475  45.467  47.386  1.00  0.00    -0.065 N 
HETATM    2  H   UNL     1      20.558  45.000  47.454  1.00  0.00     0.280 HD
HETATM    3  C   UNL     1      22.063  45.420  48.790  1.00  0.00     0.260 C 
HETATM    4  C   UNL     1      23.423  44.725  48.623  1.00  0.00     0.113 C 
HETATM    5  C   UNL     1      23.184  43.776  47.457  1.00  0.00     0.054 C 
HETATM    6  C   UNL     1      22.359  44.616  46.502  1.00  0.00     0.237 C 
ENDROOT
BRANCH   1   7
HETATM    7  C   UNL     1      21.230  46.843  46.832  1.00  0.00     0.273 C 
BRANCH   7   8
HETATM    8  C   UNL     1      21.530  47.946  47.811  1.00  0.00    -0.029 A 
HETATM    9  C   UNL     1      20.481  48.621  48.456  1.00  0.00     0.019 A 
HETATM   10  C   UNL     1      20.740  49.634  49.393  1.00  0.00    -0.018 A 
HETATM   11  C   UNL     1      22.071  49.941  49.683  1.00  0.00     0.105 A 
HETATM   12  C   UNL     1      23.137  49.293  49.044  1.00  0.00     0.102 A 
HETATM   13  C   UNL     1      22.861  48.298  48.107  1.00  0.00     0.048 A 
BRANCH  10  14
HETATM   14  C   UNL     1      19.590  50.339  50.076  1.00  0.00     0.068 C 
BRANCH  14  15
HETATM   15  C   UNL     1      18.506  49.381  50.486  1.00  0.00    -0.032 C 
HETATM   16  C   UNL     1      18.581  48.551  51.534  1.00  0.00     0.007 C 
ENDBRANCH  14  15
ENDBRANCH  10  14
BRANCH  11  17
HETATM   17  O   UNL     1      22.345  50.907  50.615  1.00  0.00    -0.357 OA
HETATM   18  H   UNL     1      22.518  50.432  51.452  1.00  0.00     0.218 HD
ENDBRANCH  11  17
BRANCH  12  19
HETATM   19  O   UNL     1      24.382  49.713  49.433  1.00  0.00    -0.353 OA
HETATM   20  C   UNL     1      25.501  48.990  48.934  1.00  0.00     0.210 C 
ENDBRANCH  12  19
ENDBRANCH   7   8
ENDBRANCH   1   7
BRANCH   4  21
HETATM   21  N   UNL     1      23.972  44.103  49.813  1.00  0.00    -0.337 N 
HETATM   22  C   UNL     1      25.247  44.378  50.268  1.00  0.00     0.321 C 
HETATM   23  N   UNL     1      25.516  43.687  51.424  1.00  0.00    -0.309 N 
HETATM   24  O   UNL     1      25.991  45.132  49.657  1.00  0.00    -0.247 OA
HETATM   25  H   UNL     1      24.921  42.895  51.618  1.00  0.00     0.170 HD
HETATM   26  H   UNL     1      23.318  43.838  50.540  1.00  0.00     0.164 HD
BRANCH  23  27
HETATM   27  C   UNL     1      26.641  43.827  52.262  1.00  0.00     0.036 A 
HETATM   28  C   UNL     1      26.602  44.452  53.511  1.00  0.00     0.032 A 
HETATM   29  C   UNL     1      27.756  44.524  54.299  1.00  0.00     0.044 A 
HETATM   30  C   UNL     1      28.944  43.975  53.835  1.00  0.00     0.116 A 
HETATM   31  F   UNL     1      30.046  44.043  54.592  1.00  0.00    -0.206 F 
HETATM   32  C   UNL     1      29.001  43.349  52.597  1.00  0.00     0.044 A 
HETATM   33  C   UNL     1      27.848  43.272  51.812  1.00  0.00     0.032 A 
ENDBRANCH  23  27
ENDBRANCH   4  21
TORSDOF 8
ENDMDL
MODEL 10
REMARK VINA RESULT:      -7.1     20.149     22.024
REMARK  8 active torsions:
REMARK  status: ('A' for Active; 'I' for Inactive)
REMARK    1  A    between atoms: O_2  and  C_3 
REMARK    2  A    between atoms: C_4  and  O_5 
REMARK    3  A    between atoms: C_6  and  C_7 
REMARK    4  A    between atoms: C_7  and  C_8 
REMARK    5  A    between atoms: C_11  and  C_12 
REMARK    6  A    between atoms: C_12  and  N_13 
REMARK    7  A    between atoms: C_16  and  N_17 
REMARK       I    between atoms: N_17  and  C_18 
REMARK       I    between atoms: C_18  and  N_19 
REMARK    8  A    between atoms: N_19  and  C_20 
ROOT
HETATM    1  N   UNL     1      40.021  40.537  64.059  1.00  0.00    -0.065 N 
HETATM    2  H   UNL     1      40.928  40.215  63.691  1.00  0.00     0.280 HD
HETATM    3  C   UNL     1      40.318  41.829  64.809  1.00  0.00     0.260 C 
HETATM    4  C   UNL     1      39.401  42.878  64.162  1.00  0.00     0.113 C 
HETATM    5  C   UNL     1      39.288  42.398  62.722  1.00  0.00     0.054 C 
HETATM    6  C   UNL     1      39.148  40.896  62.877  1.00  0.00     0.237 C 
ENDROOT
BRANCH   1   7
HETATM    7  C   UNL     1      39.459  39.419  64.892  1.00  0.00     0.273 C 
BRANCH   7   8
HETATM    8  C   UNL     1      40.423  38.280  65.094  1.00  0.00    -0.029 A 
HETATM    9  C   UNL     1      40.004  37.111  65.751  1.00  0.00     0.019 A 
HETATM   10  C   UNL     1      40.879  36.027  65.926  1.00  0.00    -0.018 A 
HETATM   11  C   UNL     1      42.173  36.132  65.412  1.00  0.00     0.105 A 
HETATM   12  C   UNL     1      42.621  37.292  64.766  1.00  0.00     0.102 A 
HETATM   13  C   UNL     1      41.743  38.364  64.611  1.00  0.00     0.048 A 
BRANCH  10  14
HETATM   14  C   UNL     1      40.398  34.779  66.631  1.00  0.00     0.068 C 
BRANCH  14  15
HETATM   15  C   UNL     1      39.016  34.948  67.198  1.00  0.00    -0.032 C 
HETATM   16  C   UNL     1      38.182  33.941  67.481  1.00  0.00     0.007 C 
ENDBRANCH  14  15
ENDBRANCH  10  14
BRANCH  11  17
HETATM   17  O   UNL     1      43.033  35.074  65.547  1.00  0.00    -0.357 OA
HETATM   18  H   UNL     1      43.342  34.861  64.645  1.00  0.00     0.218 HD
ENDBRANCH  11  17
BRANCH  12  19
HETATM   19  O   UNL     1      43.918  37.241  64.325  1.00  0.00    -0.353 OA
HETATM   20  C   UNL     1      44.782  38.303  64.712  1.00  0.00     0.210 C 
ENDBRANCH  12  19
ENDBRANCH   7   8
ENDBRANCH   1   7
BRANCH   4  21
HETATM   21  N   UNL     1      39.808  44.262  64.314  1.00  0.00    -0.337 N 
HETATM   22  C   UNL     1      38.900  45.280  64.533  1.00  0.00     0.321 C 
HETATM   23  N   UNL     1      39.538  46.488  64.670  1.00  0.00    -0.309 N 
HETATM   24  O   UNL     1      37.697  45.060  64.565  1.00  0.00    -0.247 OA
HETATM   25  H   UNL     1      40.483  46.534  64.319  1.00  0.00     0.170 HD
HETATM   26  H   UNL     1      40.728  44.434  64.704  1.00  0.00     0.164 HD
BRANCH  23  27
HETATM   27  C   UNL     1      38.966  47.717  65.057  1.00  0.00     0.036 A 
HETATM   28  C   UNL     1      37.667  47.844  65.555  1.00  0.00     0.032 A 
HETATM   29  C   UNL     1      37.182  49.096  65.948  1.00  0.00     0.044 A 
HETATM   30  C   UNL     1      37.996  50.216  65.839  1.00  0.00     0.116 A 
HETATM   31  F   UNL     1      37.529  51.412  66.218  1.00  0.00    -0.206 F 
HETATM   32  C   UNL     1      39.289  50.109  65.349  1.00  0.00     0.044 A 
HETATM   33  C   UNL     1      39.776  48.858  64.961  1.00  0.00     0.032 A 
ENDBRANCH  23  27
ENDBRANCH   4  21
TORSDOF 8
ENDMDL
