MODEL 1
REMARK VINA RESULT:      -9.1      0.000      0.000
REMARK  4 active torsions:
REMARK  status: ('A' for Active; 'I' for Inactive)
REMARK    1  A    between atoms: C_7  and  C_8 
REMARK    2  A    between atoms: C_8  and  O_9 
REMARK    3  A    between atoms: N_12  and  C_14 
REMARK    4  A    between atoms: C_14  and  C_15 
ROOT
HETATM    1  C   UNL     1      22.416  50.184  48.980  1.00  0.00     0.001 A 
HETATM    2  C   UNL     1      22.864  49.067  49.688  1.00  0.00     0.010 A 
HETATM    3  C   UNL     1      24.146  48.567  49.450  1.00  0.00    -0.018 A 
HETATM    4  C   UNL     1      24.966  49.204  48.512  1.00  0.00     0.075 A 
HETATM    5  O   UNL     1      26.230  48.721  48.285  1.00  0.00    -0.350 OA
HETATM    6  C   UNL     1      26.873  48.486  49.545  1.00  0.00     0.189 C 
HETATM    7  C   UNL     1      26.187  47.347  50.333  1.00  0.00     0.036 C 
HETATM    8  C   UNL     1      24.658  47.312  50.095  1.00  0.00     0.061 C 
HETATM    9  C   UNL     1      26.713  45.988  49.835  1.00  0.00     0.250 C 
HETATM   10  N   UNL     1      25.495  45.148  49.531  1.00  0.00    -0.064 N 
HETATM   11  H   UNL     1      25.739  44.554  48.721  1.00  0.00     0.280 HD
HETATM   12  C   UNL     1      24.427  46.123  49.158  1.00  0.00     0.245 C 
HETATM   13  C   UNL     1      24.515  50.293  47.780  1.00  0.00     0.037 A 
HETATM   14  C   UNL     1      23.235  50.789  48.023  1.00  0.00     0.003 A 
ENDROOT
BRANCH  10  15
HETATM   15  C   UNL     1      25.113  44.141  50.588  1.00  0.00     0.294 C 
BRANCH  15  16
HETATM   16  C   UNL     1      26.302  43.712  51.425  1.00  0.00     0.068 A 
HETATM   17  N   UNL     1      26.637  44.557  52.460  1.00  0.00    -0.233 NA
HETATM   18  C   UNL     1      27.629  44.201  53.226  1.00  0.00     0.137 A 
HETATM   19  N   UNL     1      28.373  43.037  53.057  1.00  0.00    -0.272 N 
HETATM   20  C   UNL     1      28.003  45.079  54.371  1.00  0.00     0.053 A 
HETATM   21  C   UNL     1      28.076  42.173  52.018  1.00  0.00     0.255 A 
HETATM   22  C   UNL     1      29.419  42.721  53.921  1.00  0.00     0.125 A 
HETATM   23  O   UNL     1      28.659  41.123  51.758  1.00  0.00    -0.268 OA
HETATM   24  C   UNL     1      26.940  42.566  51.168  1.00  0.00     0.104 A 
HETATM   25  C   UNL     1      29.746  43.514  54.949  1.00  0.00     0.050 A 
HETATM   26  C   UNL     1      29.011  44.730  55.180  1.00  0.00     0.029 A 
HETATM   27 CL   UNL     1      31.034  43.112  56.014  1.00  0.00    -0.083 Cl
ENDBRANCH  15  16
ENDBRANCH  10  15
BRANCH   7  28
HETATM   28  C   UNL     1      26.512  47.530  51.824  1.00  0.00     0.178 C 
BRANCH  28  29
HETATM   29  O   UNL     1      25.335  47.318  52.587  1.00  0.00    -0.400 OA
HETATM   30  H   UNL     1      25.306  46.374  52.841  1.00  0.00     0.209 HD
ENDBRANCH  28  29
ENDBRANCH   7  28
TORSDOF 4
ENDMDL
MODEL 2
REMARK VINA RESULT:      -8.9      3.860      8.066
REMARK  4 active torsions:
REMARK  status: ('A' for Active; 'I' for Inactive)
REMARK    1  A    between atoms: C_7  and  C_8 
REMARK    2  A    between atoms: C_8  and  O_9 
REMARK    3  A    between atoms: N_12  and  C_14 
REMARK    4  A    between atoms: C_14  and  C_15 
ROOT
HETATM    1  C   UNL     1      30.191  43.000  53.132  1.00  0.00     0.001 A 
HETATM    2  C   UNL     1      29.274  43.400  52.157  1.00  0.00     0.010 A 
HETATM    3  C   UNL     1      28.020  43.879  52.543  1.00  0.00    -0.018 A 
HETATM    4  C   UNL     1      27.709  43.961  53.905  1.00  0.00     0.075 A 
HETATM    5  O   UNL     1      26.481  44.441  54.287  1.00  0.00    -0.350 OA
HETATM    6  C   UNL     1      26.205  45.645  53.560  1.00  0.00     0.189 C 
HETATM    7  C   UNL     1      26.032  45.374  52.048  1.00  0.00     0.036 C 
HETATM    8  C   UNL     1      26.947  44.228  51.553  1.00  0.00     0.061 C 
HETATM    9  C   UNL     1      24.593  44.902  51.771  1.00  0.00     0.250 C 
HETATM   10  N   UNL     1      24.713  43.635  50.958  1.00  0.00    -0.064 N 
HETATM   11  H   UNL     1      23.927  43.025  51.242  1.00  0.00     0.280 HD
HETATM   12  C   UNL     1      26.015  43.028  51.363  1.00  0.00     0.245 C 
HETATM   13  C   UNL     1      28.601  43.533  54.878  1.00  0.00     0.037 A 
HETATM   14  C   UNL     1      29.852  43.058  54.487  1.00  0.00     0.003 A 
ENDROOT
BRANCH  10  15
HETATM   15  C   UNL     1      24.503  43.788  49.471  1.00  0.00     0.294 C 
BRANCH  15  16
HETATM   16  C   UNL     1      23.348  44.716  49.150  1.00  0.00     0.068 A 
HETATM   17  N   UNL     1      23.681  46.039  48.963  1.00  0.00    -0.233 NA
HETATM   18  C   UNL     1      22.720  46.859  48.645  1.00  0.00     0.137 A 
HETATM   19  N   UNL     1      21.387  46.488  48.498  1.00  0.00    -0.272 N 
HETATM   20  C   UNL     1      23.049  48.294  48.410  1.00  0.00     0.053 A 
HETATM   21  C   UNL     1      21.012  45.170  48.694  1.00  0.00     0.255 A 
HETATM   22  C   UNL     1      20.415  47.422  48.152  1.00  0.00     0.125 A 
HETATM   23  O   UNL     1      19.874  44.718  48.603  1.00  0.00    -0.268 OA
HETATM   24  C   UNL     1      22.103  44.241  49.031  1.00  0.00     0.104 A 
HETATM   25  C   UNL     1      20.719  48.709  47.939  1.00  0.00     0.050 A 
HETATM   26  C   UNL     1      22.081  49.155  48.072  1.00  0.00     0.029 A 
HETATM   27 CL   UNL     1      19.513  49.854  47.506  1.00  0.00    -0.083 Cl
ENDBRANCH  15  16
ENDBRANCH  10  15
BRANCH   7  28
HETATM   28  C   UNL     1      26.320  46.680  51.289  1.00  0.00     0.178 C 
BRANCH  28  29
HETATM   29  O   UNL     1      25.169  47.506  51.330  1.00  0.00    -0.400 OA
HETATM   30  H   UNL     1      24.883  47.581  52.262  1.00  0.00     0.209 HD
ENDBRANCH  28  29
ENDBRANCH   7  28
TORSDOF 4
ENDMDL
MODEL 3
REMARK VINA RESULT:      -8.7      3.395      5.210
REMARK  4 active torsions:
REMARK  status: ('A' for Active; 'I' for Inactive)
REMARK    1  A    between atoms: C_7  and  C_8 
REMARK    2  A    between atoms: C_8  and  O_9 
REMARK    3  A    between atoms: N_12  and  C_14 
REMARK    4  A    between atoms: C_14  and  C_15 
ROOT
HETATM    1  C   UNL     1      18.793  52.746  48.422  1.00  0.00     0.001 A 
HETATM    2  C   UNL     1      19.836  51.861  48.138  1.00  0.00     0.010 A 
HETATM    3  C   UNL     1      19.716  50.516  48.495  1.00  0.00    -0.018 A 
HETATM    4  C   UNL     1      18.544  50.076  49.121  1.00  0.00     0.075 A 
HETATM    5  O   UNL     1      18.420  48.752  49.463  1.00  0.00    -0.350 OA
HETATM    6  C   UNL     1      18.815  47.944  48.346  1.00  0.00     0.189 C 
HETATM    7  C   UNL     1      20.321  48.096  48.033  1.00  0.00     0.036 C 
HETATM    8  C   UNL     1      20.833  49.529  48.318  1.00  0.00     0.061 C 
HETATM    9  C   UNL     1      21.135  47.176  48.961  1.00  0.00     0.250 C 
HETATM   10  N   UNL     1      22.207  48.040  49.581  1.00  0.00    -0.064 N 
HETATM   11  H   UNL     1      22.357  47.684  50.540  1.00  0.00     0.280 HD
HETATM   12  C   UNL     1      21.630  49.416  49.621  1.00  0.00     0.245 C 
HETATM   13  C   UNL     1      17.519  50.956  49.436  1.00  0.00     0.037 A 
HETATM   14  C   UNL     1      17.643  52.297  49.076  1.00  0.00     0.003 A 
ENDROOT
BRANCH  10  15
HETATM   15  C   UNL     1      23.578  47.930  48.960  1.00  0.00     0.294 C 
BRANCH  15  16
HETATM   16  C   UNL     1      24.505  47.051  49.776  1.00  0.00     0.068 A 
HETATM   17  N   UNL     1      24.774  47.493  51.053  1.00  0.00    -0.233 NA
HETATM   18  C   UNL     1      25.535  46.742  51.798  1.00  0.00     0.137 A 
HETATM   19  N   UNL     1      26.099  45.539  51.384  1.00  0.00    -0.272 N 
HETATM   20  C   UNL     1      25.826  47.178  53.194  1.00  0.00     0.053 A 
HETATM   21  C   UNL     1      25.865  45.072  50.103  1.00  0.00     0.255 A 
HETATM   22  C   UNL     1      26.900  44.789  52.241  1.00  0.00     0.125 A 
HETATM   23  O   UNL     1      26.308  44.036  49.616  1.00  0.00    -0.268 OA
HETATM   24  C   UNL     1      24.986  45.910  49.270  1.00  0.00     0.104 A 
HETATM   25  C   UNL     1      27.154  45.185  53.494  1.00  0.00     0.050 A 
HETATM   26  C   UNL     1      26.596  46.418  53.983  1.00  0.00     0.029 A 
HETATM   27 CL   UNL     1      28.139  44.248  54.547  1.00  0.00    -0.083 Cl
ENDBRANCH  15  16
ENDBRANCH  10  15
BRANCH   7  28
HETATM   28  C   UNL     1      20.549  47.708  46.564  1.00  0.00     0.178 C 
BRANCH  28  29
HETATM   29  O   UNL     1      21.635  46.800  46.485  1.00  0.00    -0.400 OA
HETATM   30  H   UNL     1      21.333  45.936  46.828  1.00  0.00     0.209 HD
ENDBRANCH  28  29
ENDBRANCH   7  28
TORSDOF 4
ENDMDL
MODEL 4
REMARK VINA RESULT:      -8.5      4.414      7.351
REMARK  4 active torsions:
REMARK  status: ('A' for Active; 'I' for Inactive)
REMARK    1  A    between atoms: C_7  and  C_8 
REMARK    2  A    between atoms: C_8  and  O_9 
REMARK    3  A    between atoms: N_12  and  C_14 
REMARK    4  A    between atoms: C_14  and  C_15 
ROOT
HETATM    1  C   UNL     1      27.138  36.725  48.094  1.00  0.00     0.001 A 
HETATM    2  C   UNL     1      26.932  37.559  49.195  1.00  0.00     0.010 A 
HETATM    3  C   UNL     1      27.255  38.915  49.104  1.00  0.00    -0.018 A 
HETATM    4  C   UNL     1      27.770  39.416  47.903  1.00  0.00     0.075 A 
HETATM    5  O   UNL     1      28.078  40.750  47.808  1.00  0.00    -0.350 OA
HETATM    6  C   UNL     1      26.987  41.519  48.332  1.00  0.00     0.189 C 
HETATM    7  C   UNL     1      26.808  41.297  49.851  1.00  0.00     0.036 C 
HETATM    8  C   UNL     1      27.159  39.850  50.274  1.00  0.00     0.061 C 
HETATM    9  C   UNL     1      27.788  42.201  50.622  1.00  0.00     0.250 C 
HETATM   10  N   UNL     1      28.512  41.304  51.599  1.00  0.00    -0.064 N 
HETATM   11  H   UNL     1      29.475  41.673  51.681  1.00  0.00     0.280 HD
HETATM   12  C   UNL     1      28.524  39.955  50.960  1.00  0.00     0.245 C 
HETATM   13  C   UNL     1      28.010  38.587  46.817  1.00  0.00     0.037 A 
HETATM   14  C   UNL     1      27.683  37.235  46.913  1.00  0.00     0.003 A 
ENDROOT
BRANCH  10  15
HETATM   15  C   UNL     1      28.010  41.344  53.022  1.00  0.00     0.294 C 
BRANCH  15  16
HETATM   16  C   UNL     1      28.091  42.736  53.616  1.00  0.00     0.068 A 
HETATM   17  N   UNL     1      27.017  43.558  53.354  1.00  0.00    -0.233 NA
HETATM   18  C   UNL     1      27.032  44.749  53.883  1.00  0.00     0.137 A 
HETATM   19  N   UNL     1      28.062  45.242  54.678  1.00  0.00    -0.272 N 
HETATM   20  C   UNL     1      25.875  45.657  53.639  1.00  0.00     0.053 A 
HETATM   21  C   UNL     1      29.164  44.451  54.950  1.00  0.00     0.255 A 
HETATM   22  C   UNL     1      28.005  46.527  55.212  1.00  0.00     0.125 A 
HETATM   23  O   UNL     1      30.138  44.769  55.627  1.00  0.00    -0.268 OA
HETATM   24  C   UNL     1      29.134  43.098  54.370  1.00  0.00     0.104 A 
HETATM   25  C   UNL     1      26.960  47.335  54.992  1.00  0.00     0.050 A 
HETATM   26  C   UNL     1      25.861  46.881  54.181  1.00  0.00     0.029 A 
HETATM   27 CL   UNL     1      26.895  48.917  55.662  1.00  0.00    -0.083 Cl
ENDBRANCH  15  16
ENDBRANCH  10  15
BRANCH   7  28
HETATM   28  C   UNL     1      25.358  41.646  50.221  1.00  0.00     0.178 C 
BRANCH  28  29
HETATM   29  O   UNL     1      25.353  42.412  51.415  1.00  0.00    -0.400 OA
HETATM   30  H   UNL     1      25.688  41.847  52.138  1.00  0.00     0.209 HD
ENDBRANCH  28  29
ENDBRANCH   7  28
TORSDOF 4
ENDMDL
MODEL 5
REMARK VINA RESULT:      -8.5     11.104     13.140
REMARK  4 active torsions:
REMARK  status: ('A' for Active; 'I' for Inactive)
REMARK    1  A    between atoms: C_7  and  C_8 
REMARK    2  A    between atoms: C_8  and  O_9 
REMARK    3  A    between atoms: N_12  and  C_14 
REMARK    4  A    between atoms: C_14  and  C_15 
ROOT
HETATM    1  C   UNL     1      31.879  49.682  43.196  1.00  0.00     0.001 A 
HETATM    2  C   UNL     1      31.161  49.634  41.999  1.00  0.00     0.010 A 
HETATM    3  C   UNL     1      30.804  50.824  41.360  1.00  0.00    -0.018 A 
HETATM    4  C   UNL     1      31.183  52.046  41.927  1.00  0.00     0.075 A 
HETATM    5  O   UNL     1      30.842  53.216  41.295  1.00  0.00    -0.350 OA
HETATM    6  C   UNL     1      31.162  53.104  39.902  1.00  0.00     0.189 C 
HETATM    7  C   UNL     1      30.286  52.044  39.197  1.00  0.00     0.036 C 
HETATM    8  C   UNL     1      29.945  50.855  40.129  1.00  0.00     0.061 C 
HETATM    9  C   UNL     1      28.931  52.668  38.814  1.00  0.00     0.250 C 
HETATM   10  N   UNL     1      27.870  51.732  39.340  1.00  0.00    -0.064 N 
HETATM   11  H   UNL     1      27.071  52.322  39.629  1.00  0.00     0.280 HD
HETATM   12  C   UNL     1      28.482  51.069  40.529  1.00  0.00     0.245 C 
HETATM   13  C   UNL     1      31.866  52.102  43.134  1.00  0.00     0.037 A 
HETATM   14  C   UNL     1      32.222  50.911  43.766  1.00  0.00     0.003 A 
ENDROOT
BRANCH  10  15
HETATM   15  C   UNL     1      27.254  50.801  38.323  1.00  0.00     0.294 C 
BRANCH  15  16
HETATM   16  C   UNL     1      27.073  49.399  38.869  1.00  0.00     0.068 A 
HETATM   17  N   UNL     1      28.043  48.490  38.508  1.00  0.00    -0.233 NA
HETATM   18  C   UNL     1      27.942  47.284  38.992  1.00  0.00     0.137 A 
HETATM   19  N   UNL     1      26.918  46.858  39.831  1.00  0.00    -0.272 N 
HETATM   20  C   UNL     1      28.989  46.282  38.642  1.00  0.00     0.053 A 
HETATM   21  C   UNL     1      25.916  47.738  40.201  1.00  0.00     0.255 A 
HETATM   22  C   UNL     1      26.880  45.551  40.311  1.00  0.00     0.125 A 
HETATM   23  O   UNL     1      24.958  47.485  40.925  1.00  0.00    -0.268 OA
HETATM   24  C   UNL     1      26.045  49.106  39.672  1.00  0.00     0.104 A 
HETATM   25  C   UNL     1      27.825  44.657  39.996  1.00  0.00     0.050 A 
HETATM   26  C   UNL     1      28.914  45.039  39.135  1.00  0.00     0.029 A 
HETATM   27 CL   UNL     1      27.774  43.049  40.600  1.00  0.00    -0.083 Cl
ENDBRANCH  15  16
ENDBRANCH  10  15
BRANCH   7  28
HETATM   28  C   UNL     1      31.027  51.566  37.938  1.00  0.00     0.178 C 
BRANCH  28  29
HETATM   29  O   UNL     1      30.212  51.798  36.801  1.00  0.00    -0.400 OA
HETATM   30  H   UNL     1      29.362  51.335  36.939  1.00  0.00     0.209 HD
ENDBRANCH  28  29
ENDBRANCH   7  28
TORSDOF 4
ENDMDL
MODEL 6
REMARK VINA RESULT:      -8.4      3.626      5.920
REMARK  4 active torsions:
REMARK  status: ('A' for Active; 'I' for Inactive)
REMARK    1  A    between atoms: C_7  and  C_8 
REMARK    2  A    between atoms: C_8  and  O_9 
REMARK    3  A    between atoms: N_12  and  C_14 
REMARK    4  A    between atoms: C_14  and  C_15 
ROOT
HETATM    1  C   UNL     1      18.981  52.639  48.513  1.00  0.00     0.001 A 
HETATM    2  C   UNL     1      19.783  51.579  48.082  1.00  0.00     0.010 A 
HETATM    3  C   UNL     1      19.417  50.267  48.390  1.00  0.00    -0.018 A 
HETATM    4  C   UNL     1      18.243  50.036  49.116  1.00  0.00     0.075 A 
HETATM    5  O   UNL     1      17.876  48.746  49.410  1.00  0.00    -0.350 OA
HETATM    6  C   UNL     1      17.985  47.949  48.224  1.00  0.00     0.189 C 
HETATM    7  C   UNL     1      19.453  47.810  47.760  1.00  0.00     0.036 C 
HETATM    8  C   UNL     1      20.279  49.086  48.052  1.00  0.00     0.061 C 
HETATM    9  C   UNL     1      20.139  46.683  48.555  1.00  0.00     0.250 C 
HETATM   10  N   UNL     1      21.422  47.268  49.094  1.00  0.00    -0.064 N 
HETATM   11  H   UNL     1      21.584  46.826  50.016  1.00  0.00     0.280 HD
HETATM   12  C   UNL     1      21.154  48.727  49.257  1.00  0.00     0.245 C 
HETATM   13  C   UNL     1      17.461  51.085  49.577  1.00  0.00     0.037 A 
HETATM   14  C   UNL     1      17.829  52.393  49.266  1.00  0.00     0.003 A 
ENDROOT
BRANCH  10  15
HETATM   15  C   UNL     1      22.675  46.920  48.328  1.00  0.00     0.294 C 
BRANCH  15  16
HETATM   16  C   UNL     1      23.796  46.465  49.241  1.00  0.00     0.068 A 
HETATM   17  N   UNL     1      24.294  45.205  48.991  1.00  0.00    -0.233 NA
HETATM   18  C   UNL     1      25.285  44.797  49.731  1.00  0.00     0.137 A 
HETATM   19  N   UNL     1      25.860  45.541  50.756  1.00  0.00    -0.272 N 
HETATM   20  C   UNL     1      25.865  43.448  49.471  1.00  0.00     0.053 A 
HETATM   21  C   UNL     1      25.375  46.805  51.047  1.00  0.00     0.255 A 
HETATM   22  C   UNL     1      26.922  45.038  51.502  1.00  0.00     0.125 A 
HETATM   23  O   UNL     1      25.787  47.555  51.927  1.00  0.00    -0.268 OA
HETATM   24  C   UNL     1      24.269  47.273  50.196  1.00  0.00     0.104 A 
HETATM   25  C   UNL     1      27.440  43.826  51.261  1.00  0.00     0.050 A 
HETATM   26  C   UNL     1      26.893  43.009  50.210  1.00  0.00     0.029 A 
HETATM   27 CL   UNL     1      28.757  43.216  52.182  1.00  0.00    -0.083 Cl
ENDBRANCH  15  16
ENDBRANCH  10  15
BRANCH   7  28
HETATM   28  C   UNL     1      19.454  47.480  46.259  1.00  0.00     0.178 C 
BRANCH  28  29
HETATM   29  O   UNL     1      20.328  46.389  46.022  1.00  0.00    -0.400 OA
HETATM   30  H   UNL     1      21.242  46.691  46.190  1.00  0.00     0.209 HD
ENDBRANCH  28  29
ENDBRANCH   7  28
TORSDOF 4
ENDMDL
MODEL 7
REMARK VINA RESULT:      -8.3      3.888      8.370
REMARK  4 active torsions:
REMARK  status: ('A' for Active; 'I' for Inactive)
REMARK    1  A    between atoms: C_7  and  C_8 
REMARK    2  A    between atoms: C_8  and  O_9 
REMARK    3  A    between atoms: N_12  and  C_14 
REMARK    4  A    between atoms: C_14  and  C_15 
ROOT
HETATM    1  C   UNL     1      29.899  42.872  52.983  1.00  0.00     0.001 A 
HETATM    2  C   UNL     1      29.117  43.651  52.128  1.00  0.00     0.010 A 
HETATM    3  C   UNL     1      27.791  43.931  52.467  1.00  0.00    -0.018 A 
HETATM    4  C   UNL     1      27.273  43.434  53.669  1.00  0.00     0.075 A 
HETATM    5  O   UNL     1      25.974  43.716  54.010  1.00  0.00    -0.350 OA
HETATM    6  C   UNL     1      25.735  45.116  53.815  1.00  0.00     0.189 C 
HETATM    7  C   UNL     1      25.810  45.508  52.322  1.00  0.00     0.036 C 
HETATM    8  C   UNL     1      26.860  44.670  51.552  1.00  0.00     0.061 C 
HETATM    9  C   UNL     1      24.462  45.205  51.643  1.00  0.00     0.250 C 
HETATM   10  N   UNL     1      24.783  44.398  50.407  1.00  0.00    -0.064 N 
HETATM   11  H   UNL     1      24.003  43.730  50.279  1.00  0.00     0.280 HD
HETATM   12  C   UNL     1      26.045  43.668  50.730  1.00  0.00     0.245 C 
HETATM   13  C   UNL     1      28.034  42.631  54.507  1.00  0.00     0.037 A 
HETATM   14  C   UNL     1      29.357  42.357  54.164  1.00  0.00     0.003 A 
ENDROOT
BRANCH  10  15
HETATM   15  C   UNL     1      24.790  45.164  49.107  1.00  0.00     0.294 C 
BRANCH  15  16
HETATM   16  C   UNL     1      23.688  46.203  49.050  1.00  0.00     0.068 A 
HETATM   17  N   UNL     1      22.440  45.730  48.711  1.00  0.00    -0.233 NA
HETATM   18  C   UNL     1      21.460  46.587  48.692  1.00  0.00     0.137 A 
HETATM   19  N   UNL     1      21.596  47.943  48.977  1.00  0.00    -0.272 N 
HETATM   20  C   UNL     1      20.090  46.105  48.353  1.00  0.00     0.053 A 
HETATM   21  C   UNL     1      22.838  48.457  49.305  1.00  0.00     0.255 A 
HETATM   22  C   UNL     1      20.498  48.799  48.939  1.00  0.00     0.125 A 
HETATM   23  O   UNL     1      23.091  49.630  49.569  1.00  0.00    -0.268 OA
HETATM   24  C   UNL     1      23.939  47.482  49.349  1.00  0.00     0.104 A 
HETATM   25  C   UNL     1      19.271  48.357  48.638  1.00  0.00     0.050 A 
HETATM   26  C   UNL     1      19.064  46.964  48.337  1.00  0.00     0.029 A 
HETATM   27 CL   UNL     1      17.920  49.420  48.601  1.00  0.00    -0.083 Cl
ENDBRANCH  15  16
ENDBRANCH  10  15
BRANCH   7  28
HETATM   28  C   UNL     1      26.126  47.010  52.234  1.00  0.00     0.178 C 
BRANCH  28  29
HETATM   29  O   UNL     1      25.397  47.699  53.237  1.00  0.00    -0.400 OA
HETATM   30  H   UNL     1      25.240  48.611  52.923  1.00  0.00     0.209 HD
ENDBRANCH  28  29
ENDBRANCH   7  28
TORSDOF 4
ENDMDL
MODEL 8
REMARK VINA RESULT:      -8.1     17.538     19.588
REMARK  4 active torsions:
REMARK  status: ('A' for Active; 'I' for Inactive)
REMARK    1  A    between atoms: C_7  and  C_8 
REMARK    2  A    between atoms: C_8  and  O_9 
REMARK    3  A    between atoms: N_12  and  C_14 
REMARK    4  A    between atoms: C_14  and  C_15 
ROOT
HETATM    1  C   UNL     1      37.637  53.062  66.863  1.00  0.00     0.001 A 
HETATM    2  C   UNL     1      37.958  51.932  66.106  1.00  0.00     0.010 A 
HETATM    3  C   UNL     1      37.786  50.660  66.657  1.00  0.00    -0.018 A 
HETATM    4  C   UNL     1      37.282  50.540  67.957  1.00  0.00     0.075 A 
HETATM    5  O   UNL     1      37.103  49.291  68.496  1.00  0.00    -0.350 OA
HETATM    6  C   UNL     1      36.429  48.463  67.539  1.00  0.00     0.189 C 
HETATM    7  C   UNL     1      37.305  48.196  66.295  1.00  0.00     0.036 C 
HETATM    8  C   UNL     1      38.204  49.407  65.945  1.00  0.00     0.061 C 
HETATM    9  C   UNL     1      38.273  47.035  66.587  1.00  0.00     0.250 C 
HETATM   10  N   UNL     1      39.650  47.525  66.204  1.00  0.00    -0.064 N 
HETATM   11  H   UNL     1      40.314  47.091  66.868  1.00  0.00     0.280 HD
HETATM   12  C   UNL     1      39.610  49.004  66.399  1.00  0.00     0.245 C 
HETATM   13  C   UNL     1      36.995  51.658  68.727  1.00  0.00     0.037 A 
HETATM   14  C   UNL     1      37.166  52.925  68.171  1.00  0.00     0.003 A 
ENDROOT
BRANCH  10  15
HETATM   15  C   UNL     1      40.161  47.061  64.862  1.00  0.00     0.294 C 
BRANCH  15  16
HETATM   16  C   UNL     1      40.294  45.553  64.791  1.00  0.00     0.068 A 
HETATM   17  N   UNL     1      39.418  44.917  63.940  1.00  0.00    -0.233 NA
HETATM   18  C   UNL     1      39.530  43.624  63.823  1.00  0.00     0.137 A 
HETATM   19  N   UNL     1      40.462  42.851  64.508  1.00  0.00    -0.272 N 
HETATM   20  C   UNL     1      38.614  42.906  62.890  1.00  0.00     0.053 A 
HETATM   21  C   UNL     1      41.347  43.453  65.385  1.00  0.00     0.255 A 
HETATM   22  C   UNL     1      40.523  41.471  64.327  1.00  0.00     0.125 A 
HETATM   23  O   UNL     1      42.207  42.884  66.053  1.00  0.00    -0.268 OA
HETATM   24  C   UNL     1      41.234  44.916  65.498  1.00  0.00     0.104 A 
HETATM   25  C   UNL     1      39.699  40.834  63.485  1.00  0.00     0.050 A 
HETATM   26  C   UNL     1      38.716  41.579  62.743  1.00  0.00     0.029 A 
HETATM   27 CL   UNL     1      39.787  39.132  63.263  1.00  0.00    -0.083 Cl
ENDBRANCH  15  16
ENDBRANCH  10  15
BRANCH   7  28
HETATM   28  C   UNL     1      36.379  47.837  65.122  1.00  0.00     0.178 C 
BRANCH  28  29
HETATM   29  O   UNL     1      36.937  46.748  64.405  1.00  0.00    -0.400 OA
HETATM   30  H   UNL     1      37.315  46.120  65.053  1.00  0.00     0.209 HD
ENDBRANCH  28  29
ENDBRANCH   7  28
TORSDOF 4
ENDMDL
MODEL 9
REMARK VINA RESULT:      -8.0      5.134      7.121
REMARK  4 active torsions:
REMARK  status: ('A' for Active; 'I' for Inactive)
REMARK    1  A    between atoms: C_7  and  C_8 
REMARK    2  A    between atoms: C_8  and  O_9 
REMARK    3  A    between atoms: N_12  and  C_14 
REMARK    4  A    between atoms: C_14  and  C_15 
ROOT
HETATM    1  C   UNL     1      27.969  37.219  47.214  1.00  0.00     0.001 A 
HETATM    2  C   UNL     1      27.606  37.834  48.415  1.00  0.00     0.010 A 
HETATM    3  C   UNL     1      27.600  39.228  48.502  1.00  0.00    -0.018 A 
HETATM    4  C   UNL     1      27.947  39.986  47.378  1.00  0.00     0.075 A 
HETATM    5  O   UNL     1      27.932  41.356  47.459  1.00  0.00    -0.350 OA
HETATM    6  C   UNL     1      26.707  41.773  48.078  1.00  0.00     0.189 C 
HETATM    7  C   UNL     1      26.630  41.323  49.554  1.00  0.00     0.036 C 
HETATM    8  C   UNL     1      27.323  39.957  49.784  1.00  0.00     0.061 C 
HETATM    9  C   UNL     1      27.394  42.327  50.438  1.00  0.00     0.250 C 
HETATM   10  N   UNL     1      28.336  41.509  51.289  1.00  0.00    -0.064 N 
HETATM   11  H   UNL     1      29.188  42.081  51.420  1.00  0.00     0.280 HD
HETATM   12  C   UNL     1      28.645  40.294  50.480  1.00  0.00     0.245 C 
HETATM   13  C   UNL     1      28.342  39.382  46.193  1.00  0.00     0.037 A 
HETATM   14  C   UNL     1      28.344  37.990  46.111  1.00  0.00     0.003 A 
ENDROOT
BRANCH  10  15
HETATM   15  C   UNL     1      27.882  41.249  52.705  1.00  0.00     0.294 C 
BRANCH  15  16
HETATM   16  C   UNL     1      28.212  42.401  53.632  1.00  0.00     0.068 A 
HETATM   17  N   UNL     1      29.347  42.244  54.397  1.00  0.00    -0.233 NA
HETATM   18  C   UNL     1      29.685  43.232  55.176  1.00  0.00     0.137 A 
HETATM   19  N   UNL     1      28.970  44.420  55.293  1.00  0.00    -0.272 N 
HETATM   20  C   UNL     1      30.921  43.106  55.999  1.00  0.00     0.053 A 
HETATM   21  C   UNL     1      27.816  44.607  54.553  1.00  0.00     0.255 A 
HETATM   22  C   UNL     1      29.397  45.434  56.147  1.00  0.00     0.125 A 
HETATM   23  O   UNL     1      27.094  45.600  54.572  1.00  0.00    -0.268 OA
HETATM   24  C   UNL     1      27.449  43.499  53.656  1.00  0.00     0.104 A 
HETATM   25  C   UNL     1      30.510  45.315  56.880  1.00  0.00     0.050 A 
HETATM   26  C   UNL     1      31.296  44.112  56.800  1.00  0.00     0.029 A 
HETATM   27 CL   UNL     1      31.033  46.575  57.926  1.00  0.00    -0.083 Cl
ENDBRANCH  15  16
ENDBRANCH  10  15
BRANCH   7  28
HETATM   28  C   UNL     1      25.150  41.270  49.965  1.00  0.00     0.178 C 
BRANCH  28  29
HETATM   29  O   UNL     1      24.965  42.038  51.143  1.00  0.00    -0.400 OA
HETATM   30  H   UNL     1      25.721  42.654  51.224  1.00  0.00     0.209 HD
ENDBRANCH  28  29
ENDBRANCH   7  28
TORSDOF 4
ENDMDL
MODEL 10
REMARK VINA RESULT:      -8.0     11.360     13.710
REMARK  4 active torsions:
REMARK  status: ('A' for Active; 'I' for Inactive)
REMARK    1  A    between atoms: C_7  and  C_8 
REMARK    2  A    between atoms: C_8  and  O_9 
REMARK    3  A    between atoms: N_12  and  C_14 
REMARK    4  A    between atoms: C_14  and  C_15 
ROOT
HETATM    1  C   UNL     1      31.942  49.755  43.201  1.00  0.00     0.001 A 
HETATM    2  C   UNL     1      31.188  49.614  42.034  1.00  0.00     0.010 A 
HETATM    3  C   UNL     1      30.704  50.751  41.383  1.00  0.00    -0.018 A 
HETATM    4  C   UNL     1      30.996  52.015  41.907  1.00  0.00     0.075 A 
HETATM    5  O   UNL     1      30.530  53.134  41.263  1.00  0.00    -0.350 OA
HETATM    6  C   UNL     1      30.808  53.015  39.861  1.00  0.00     0.189 C 
HETATM    7  C   UNL     1      30.003  51.865  39.215  1.00  0.00     0.036 C 
HETATM    8  C   UNL     1      29.802  50.676  40.186  1.00  0.00     0.061 C 
HETATM    9  C   UNL     1      28.586  52.359  38.870  1.00  0.00     0.250 C 
HETATM   10  N   UNL     1      27.630  51.348  39.458  1.00  0.00    -0.064 N 
HETATM   11  H   UNL     1      26.793  51.873  39.763  1.00  0.00     0.280 HD
HETATM   12  C   UNL     1      28.342  50.771  40.637  1.00  0.00     0.245 C 
HETATM   13  C   UNL     1      31.714  52.161  43.085  1.00  0.00     0.037 A 
HETATM   14  C   UNL     1      32.197  51.023  43.729  1.00  0.00     0.003 A 
ENDROOT
BRANCH  10  15
HETATM   15  C   UNL     1      27.062  50.341  38.487  1.00  0.00     0.294 C 
BRANCH  15  16
HETATM   16  C   UNL     1      25.854  49.622  39.052  1.00  0.00     0.068 A 
HETATM   17  N   UNL     1      24.629  50.122  38.669  1.00  0.00    -0.233 NA
HETATM   18  C   UNL     1      23.568  49.504  39.104  1.00  0.00     0.137 A 
HETATM   19  N   UNL     1      23.594  48.387  39.933  1.00  0.00    -0.272 N 
HETATM   20  C   UNL     1      22.226  50.004  38.689  1.00  0.00     0.053 A 
HETATM   21  C   UNL     1      24.805  47.866  40.352  1.00  0.00     0.255 A 
HETATM   22  C   UNL     1      22.415  47.777  40.353  1.00  0.00     0.125 A 
HETATM   23  O   UNL     1      24.963  46.895  41.087  1.00  0.00    -0.268 OA
HETATM   24  C   UNL     1      26.004  48.553  39.841  1.00  0.00     0.104 A 
HETATM   25  C   UNL     1      21.213  48.230  39.973  1.00  0.00     0.050 A 
HETATM   26  C   UNL     1      21.120  49.379  39.112  1.00  0.00     0.029 A 
HETATM   27 CL   UNL     1      19.763  47.465  40.492  1.00  0.00    -0.083 Cl
ENDBRANCH  15  16
ENDBRANCH  10  15
BRANCH   7  28
HETATM   28  C   UNL     1      30.737  51.421  37.939  1.00  0.00     0.178 C 
BRANCH  28  29
HETATM   29  O   UNL     1      30.056  51.935  36.807  1.00  0.00    -0.400 OA
HETATM   30  H   UNL     1      29.398  51.270  36.522  1.00  0.00     0.209 HD
ENDBRANCH  28  29
ENDBRANCH   7  28
TORSDOF 4
ENDMDL
