MODEL 1
REMARK VINA RESULT:      -8.2      0.000      0.000
REMARK  5 active torsions:
REMARK  status: ('A' for Active; 'I' for Inactive)
REMARK    1  A    between atoms: C_3  and  C_4 
REMARK       I    between atoms: C_4  and  N_5 
REMARK    2  A    between atoms: C_7  and  N_8 
REMARK    3  A    between atoms: N_8  and  C_9 
REMARK    4  A    between atoms: C_9  and  C_10 
REMARK    5  A    between atoms: C_10  and  C_11 
ROOT
HETATM    1  C   UNL     1      25.059  46.117  50.506  1.00  0.00     0.049 C 
HETATM    2  C   UNL     1      25.630  45.890  51.879  1.00  0.00    -0.041 A 
HETATM    3  C   UNL     1      26.007  44.614  52.330  1.00  0.00     0.081 A 
HETATM    4  C   UNL     1      26.502  44.418  53.638  1.00  0.00     0.117 A 
HETATM    5  N   UNL     1      26.550  45.496  54.442  1.00  0.00    -0.346 N 
HETATM    6  H   UNL     1      26.841  45.353  55.402  1.00  0.00     0.167 HD
HETATM    7  C   UNL     1      26.200  46.740  54.067  1.00  0.00     0.007 A 
HETATM    8  C   UNL     1      26.297  47.849  55.066  1.00  0.00     0.068 C 
HETATM    9  C   UNL     1      25.735  46.959  52.771  1.00  0.00     0.032 A 
ENDROOT
BRANCH   4  10
HETATM   10  N   UNL     1      26.815  43.162  54.145  1.00  0.00    -0.375 N 
HETATM   11  H   UNL     1      26.072  42.475  53.981  1.00  0.00     0.161 HD
BRANCH  10  12
HETATM   12  C   UNL     1      28.157  42.592  54.078  1.00  0.00     0.126 C 
BRANCH  12  13
HETATM   13  C   UNL     1      29.210  43.684  53.852  1.00  0.00     0.058 C 
BRANCH  13  14
HETATM   14  C   UNL     1      29.905  44.022  55.148  1.00  0.00    -0.057 A 
HETATM   15  C   UNL     1      30.779  43.096  55.740  1.00  0.00     0.010 A 
HETATM   16  C   UNL     1      31.384  43.383  56.965  1.00  0.00     0.043 A 
HETATM   17  C   UNL     1      31.114  44.590  57.598  1.00  0.00     0.116 A 
HETATM   18  F   UNL     1      31.685  44.858  58.779  1.00  0.00    -0.206 F 
HETATM   19  C   UNL     1      30.256  45.520  57.025  1.00  0.00     0.043 A 
HETATM   20  C   UNL     1      29.651  45.239  55.799  1.00  0.00     0.010 A 
ENDBRANCH  13  14
ENDBRANCH  12  13
ENDBRANCH  10  12
ENDBRANCH   4  10
BRANCH   3  21
HETATM   21  C   UNL     1      25.816  43.447  51.458  1.00  0.00     0.253 C 
HETATM   22  N   UNL     1      24.562  42.905  51.434  1.00  0.00    -0.366 N 
HETATM   23  H   UNL     1      23.892  43.047  52.178  1.00  0.00     0.159 HD
HETATM   24  H   UNL     1      24.485  42.021  50.935  1.00  0.00     0.159 HD
HETATM   25  O   UNL     1      26.747  42.999  50.809  1.00  0.00    -0.268 OA
ENDBRANCH   3  21
TORSDOF 5
ENDMDL
MODEL 2
REMARK VINA RESULT:      -8.0      3.297      4.995
REMARK  5 active torsions:
REMARK  status: ('A' for Active; 'I' for Inactive)
REMARK    1  A    between atoms: C_3  and  C_4 
REMARK       I    between atoms: C_4  and  N_5 
REMARK    2  A    between atoms: C_7  and  N_8 
REMARK    3  A    between atoms: N_8  and  C_9 
REMARK    4  A    between atoms: C_9  and  C_10 
REMARK    5  A    between atoms: C_10  and  C_11 
ROOT
HETATM    1  C   UNL     1      27.829  41.119  47.232  1.00  0.00     0.049 C 
HETATM    2  C   UNL     1      28.000  40.585  48.629  1.00  0.00    -0.041 A 
HETATM    3  C   UNL     1      27.466  41.242  49.749  1.00  0.00     0.081 A 
HETATM    4  C   UNL     1      27.675  40.746  51.055  1.00  0.00     0.117 A 
HETATM    5  N   UNL     1      28.445  39.649  51.176  1.00  0.00    -0.346 N 
HETATM    6  H   UNL     1      28.654  39.324  52.114  1.00  0.00     0.167 HD
HETATM    7  C   UNL     1      28.985  38.980  50.141  1.00  0.00     0.007 A 
HETATM    8  C   UNL     1      29.828  37.777  50.420  1.00  0.00     0.068 C 
HETATM    9  C   UNL     1      28.768  39.439  48.843  1.00  0.00     0.032 A 
ENDROOT
BRANCH   4  10
HETATM   10  N   UNL     1      27.226  41.406  52.193  1.00  0.00    -0.375 N 
HETATM   11  H   UNL     1      26.242  41.206  52.401  1.00  0.00     0.161 HD
BRANCH  10  12
HETATM   12  C   UNL     1      28.048  41.578  53.386  1.00  0.00     0.126 C 
BRANCH  12  13
HETATM   13  C   UNL     1      29.319  42.375  53.070  1.00  0.00     0.058 C 
BRANCH  13  14
HETATM   14  C   UNL     1      29.571  43.411  54.138  1.00  0.00    -0.057 A 
HETATM   15  C   UNL     1      30.665  43.276  55.007  1.00  0.00     0.010 A 
HETATM   16  C   UNL     1      30.872  44.204  56.030  1.00  0.00     0.043 A 
HETATM   17  C   UNL     1      29.985  45.261  56.186  1.00  0.00     0.116 A 
HETATM   18  F   UNL     1      30.177  46.143  57.175  1.00  0.00    -0.206 F 
HETATM   19  C   UNL     1      28.898  45.414  55.333  1.00  0.00     0.043 A 
HETATM   20  C   UNL     1      28.689  44.490  54.308  1.00  0.00     0.010 A 
ENDBRANCH  13  14
ENDBRANCH  12  13
ENDBRANCH  10  12
ENDBRANCH   4  10
BRANCH   3  21
HETATM   21  C   UNL     1      26.739  42.507  49.576  1.00  0.00     0.253 C 
HETATM   22  N   UNL     1      25.399  42.410  49.328  1.00  0.00    -0.366 N 
HETATM   23  H   UNL     1      24.972  41.571  48.956  1.00  0.00     0.159 HD
HETATM   24  H   UNL     1      24.944  43.284  49.076  1.00  0.00     0.159 HD
HETATM   25  O   UNL     1      27.327  43.574  49.645  1.00  0.00    -0.268 OA
ENDBRANCH   3  21
TORSDOF 5
ENDMDL
MODEL 3
REMARK VINA RESULT:      -8.0      4.266      5.741
REMARK  5 active torsions:
REMARK  status: ('A' for Active; 'I' for Inactive)
REMARK    1  A    between atoms: C_3  and  C_4 
REMARK       I    between atoms: C_4  and  N_5 
REMARK    2  A    between atoms: C_7  and  N_8 
REMARK    3  A    between atoms: N_8  and  C_9 
REMARK    4  A    between atoms: C_9  and  C_10 
REMARK    5  A    between atoms: C_10  and  C_11 
ROOT
HETATM    1  C   UNL     1      28.143  37.586  47.764  1.00  0.00     0.049 C 
HETATM    2  C   UNL     1      28.009  38.795  48.650  1.00  0.00    -0.041 A 
HETATM    3  C   UNL     1      28.660  38.887  49.891  1.00  0.00     0.081 A 
HETATM    4  C   UNL     1      28.485  40.012  50.726  1.00  0.00     0.117 A 
HETATM    5  N   UNL     1      27.634  40.964  50.300  1.00  0.00    -0.346 N 
HETATM    6  H   UNL     1      27.453  41.743  50.923  1.00  0.00     0.167 HD
HETATM    7  C   UNL     1      26.981  40.928  49.125  1.00  0.00     0.007 A 
HETATM    8  C   UNL     1      26.057  42.052  48.778  1.00  0.00     0.068 C 
HETATM    9  C   UNL     1      27.161  39.838  48.275  1.00  0.00     0.032 A 
ENDROOT
BRANCH   4  10
HETATM   10  N   UNL     1      29.054  40.108  51.992  1.00  0.00    -0.375 N 
HETATM   11  H   UNL     1      30.022  39.771  52.015  1.00  0.00     0.161 HD
BRANCH  10  12
HETATM   12  C   UNL     1      28.809  41.233  52.888  1.00  0.00     0.126 C 
BRANCH  12  13
HETATM   13  C   UNL     1      30.021  42.171  52.939  1.00  0.00     0.058 C 
BRANCH  13  14
HETATM   14  C   UNL     1      29.777  43.294  53.917  1.00  0.00    -0.057 A 
HETATM   15  C   UNL     1      30.642  43.479  55.007  1.00  0.00     0.010 A 
HETATM   16  C   UNL     1      30.390  44.484  55.944  1.00  0.00     0.043 A 
HETATM   17  C   UNL     1      29.276  45.299  55.793  1.00  0.00     0.116 A 
HETATM   18  F   UNL     1      29.029  46.253  56.698  1.00  0.00    -0.206 F 
HETATM   19  C   UNL     1      28.411  45.134  54.717  1.00  0.00     0.043 A 
HETATM   20  C   UNL     1      28.660  44.133  53.778  1.00  0.00     0.010 A 
ENDBRANCH  13  14
ENDBRANCH  12  13
ENDBRANCH  10  12
ENDBRANCH   4  10
BRANCH   3  21
HETATM   21  C   UNL     1      29.480  37.765  50.370  1.00  0.00     0.253 C 
HETATM   22  N   UNL     1      28.804  36.696  50.887  1.00  0.00    -0.366 N 
HETATM   23  H   UNL     1      27.857  36.767  51.238  1.00  0.00     0.159 HD
HETATM   24  H   UNL     1      29.388  35.994  51.337  1.00  0.00     0.159 HD
HETATM   25  O   UNL     1      30.697  37.815  50.307  1.00  0.00    -0.268 OA
ENDBRANCH   3  21
TORSDOF 5
ENDMDL
MODEL 4
REMARK VINA RESULT:      -8.0      3.410      6.815
REMARK  5 active torsions:
REMARK  status: ('A' for Active; 'I' for Inactive)
REMARK    1  A    between atoms: C_3  and  C_4 
REMARK       I    between atoms: C_4  and  N_5 
REMARK    2  A    between atoms: C_7  and  N_8 
REMARK    3  A    between atoms: N_8  and  C_9 
REMARK    4  A    between atoms: C_9  and  C_10 
REMARK    5  A    between atoms: C_10  and  C_11 
ROOT
HETATM    1  C   UNL     1      31.753  43.337  57.262  1.00  0.00     0.049 C 
HETATM    2  C   UNL     1      30.806  43.941  56.261  1.00  0.00    -0.041 A 
HETATM    3  C   UNL     1      30.035  45.078  56.554  1.00  0.00     0.081 A 
HETATM    4  C   UNL     1      29.121  45.602  55.613  1.00  0.00     0.117 A 
HETATM    5  N   UNL     1      28.990  44.937  54.451  1.00  0.00    -0.346 N 
HETATM    6  H   UNL     1      28.290  45.269  53.797  1.00  0.00     0.167 HD
HETATM    7  C   UNL     1      29.699  43.843  54.117  1.00  0.00     0.007 A 
HETATM    8  C   UNL     1      29.448  43.198  52.791  1.00  0.00     0.068 C 
HETATM    9  C   UNL     1      30.625  43.326  55.021  1.00  0.00     0.032 A 
ENDROOT
BRANCH   4  10
HETATM   10  N   UNL     1      28.288  46.680  55.892  1.00  0.00    -0.375 N 
HETATM   11  H   UNL     1      28.494  47.113  56.798  1.00  0.00     0.161 HD
BRANCH  10  12
HETATM   12  C   UNL     1      27.863  47.637  54.876  1.00  0.00     0.126 C 
BRANCH  12  13
HETATM   13  C   UNL     1      26.341  47.607  54.691  1.00  0.00     0.058 C 
BRANCH  13  14
HETATM   14  C   UNL     1      25.953  46.549  53.688  1.00  0.00    -0.057 A 
HETATM   15  C   UNL     1      25.526  45.286  54.126  1.00  0.00     0.010 A 
HETATM   16  C   UNL     1      25.216  44.287  53.201  1.00  0.00     0.043 A 
HETATM   17  C   UNL     1      25.337  44.549  51.842  1.00  0.00     0.116 A 
HETATM   18  F   UNL     1      25.052  43.586  50.957  1.00  0.00    -0.206 F 
HETATM   19  C   UNL     1      25.753  45.794  51.389  1.00  0.00     0.043 A 
HETATM   20  C   UNL     1      26.062  46.797  52.310  1.00  0.00     0.010 A 
ENDBRANCH  13  14
ENDBRANCH  12  13
ENDBRANCH  10  12
ENDBRANCH   4  10
BRANCH   3  21
HETATM   21  C   UNL     1      30.120  45.694  57.885  1.00  0.00     0.253 C 
HETATM   22  N   UNL     1      31.289  46.333  58.186  1.00  0.00    -0.366 N 
HETATM   23  H   UNL     1      32.158  46.136  57.706  1.00  0.00     0.159 HD
HETATM   24  H   UNL     1      31.380  46.632  59.155  1.00  0.00     0.159 HD
HETATM   25  O   UNL     1      29.185  45.616  58.665  1.00  0.00    -0.268 OA
ENDBRANCH   3  21
TORSDOF 5
ENDMDL
MODEL 5
REMARK VINA RESULT:      -7.7      1.628      2.175
REMARK  5 active torsions:
REMARK  status: ('A' for Active; 'I' for Inactive)
REMARK    1  A    between atoms: C_3  and  C_4 
REMARK       I    between atoms: C_4  and  N_5 
REMARK    2  A    between atoms: C_7  and  N_8 
REMARK    3  A    between atoms: N_8  and  C_9 
REMARK    4  A    between atoms: C_9  and  C_10 
REMARK    5  A    between atoms: C_10  and  C_11 
ROOT
HETATM    1  C   UNL     1      24.111  42.643  49.871  1.00  0.00     0.049 C 
HETATM    2  C   UNL     1      25.145  43.413  50.648  1.00  0.00    -0.041 A 
HETATM    3  C   UNL     1      26.393  42.861  50.980  1.00  0.00     0.081 A 
HETATM    4  C   UNL     1      27.331  43.587  51.748  1.00  0.00     0.117 A 
HETATM    5  N   UNL     1      26.955  44.804  52.182  1.00  0.00    -0.346 N 
HETATM    6  H   UNL     1      27.597  45.304  52.788  1.00  0.00     0.167 HD
HETATM    7  C   UNL     1      25.774  45.381  51.898  1.00  0.00     0.007 A 
HETATM    8  C   UNL     1      25.483  46.740  52.452  1.00  0.00     0.068 C 
HETATM    9  C   UNL     1      24.845  44.692  51.120  1.00  0.00     0.032 A 
ENDROOT
BRANCH   4  10
HETATM   10  N   UNL     1      28.545  43.049  52.159  1.00  0.00    -0.375 N 
HETATM   11  H   UNL     1      29.348  43.598  51.835  1.00  0.00     0.161 HD
BRANCH  10  12
HETATM   12  C   UNL     1      28.743  42.454  53.477  1.00  0.00     0.126 C 
BRANCH  12  13
HETATM   13  C   UNL     1      30.188  42.641  53.956  1.00  0.00     0.058 C 
BRANCH  13  14
HETATM   14  C   UNL     1      30.242  43.634  55.091  1.00  0.00    -0.057 A 
HETATM   15  C   UNL     1      31.153  43.452  56.143  1.00  0.00     0.010 A 
HETATM   16  C   UNL     1      31.170  44.339  57.222  1.00  0.00     0.043 A 
HETATM   17  C   UNL     1      30.278  45.403  57.249  1.00  0.00     0.116 A 
HETATM   18  F   UNL     1      30.287  46.245  58.290  1.00  0.00    -0.206 F 
HETATM   19  C   UNL     1      29.372  45.602  56.214  1.00  0.00     0.043 A 
HETATM   20  C   UNL     1      29.353  44.720  55.133  1.00  0.00     0.010 A 
ENDBRANCH  13  14
ENDBRANCH  12  13
ENDBRANCH  10  12
ENDBRANCH   4  10
BRANCH   3  21
HETATM   21  C   UNL     1      26.707  41.479  50.592  1.00  0.00     0.253 C 
HETATM   22  N   UNL     1      26.240  40.495  51.416  1.00  0.00    -0.366 N 
HETATM   23  H   UNL     1      25.994  40.664  52.383  1.00  0.00     0.159 HD
HETATM   24  H   UNL     1      26.583  39.560  51.207  1.00  0.00     0.159 HD
HETATM   25  O   UNL     1      27.360  41.251  49.587  1.00  0.00    -0.268 OA
ENDBRANCH   3  21
TORSDOF 5
ENDMDL
MODEL 6
REMARK VINA RESULT:      -7.3      4.028      7.434
REMARK  5 active torsions:
REMARK  status: ('A' for Active; 'I' for Inactive)
REMARK    1  A    between atoms: C_3  and  C_4 
REMARK       I    between atoms: C_4  and  N_5 
REMARK    2  A    between atoms: C_7  and  N_8 
REMARK    3  A    between atoms: N_8  and  C_9 
REMARK    4  A    between atoms: C_9  and  C_10 
REMARK    5  A    between atoms: C_10  and  C_11 
ROOT
HETATM    1  C   UNL     1      29.231  45.559  55.760  1.00  0.00     0.049 C 
HETATM    2  C   UNL     1      28.362  44.875  54.740  1.00  0.00    -0.041 A 
HETATM    3  C   UNL     1      27.252  45.510  54.159  1.00  0.00     0.081 A 
HETATM    4  C   UNL     1      26.424  44.834  53.235  1.00  0.00     0.117 A 
HETATM    5  N   UNL     1      26.721  43.547  52.977  1.00  0.00    -0.346 N 
HETATM    6  H   UNL     1      26.094  43.035  52.365  1.00  0.00     0.167 HD
HETATM    7  C   UNL     1      27.768  42.887  53.504  1.00  0.00     0.007 A 
HETATM    8  C   UNL     1      27.978  41.453  53.135  1.00  0.00     0.068 C 
HETATM    9  C   UNL     1      28.612  43.546  54.398  1.00  0.00     0.032 A 
ENDROOT
BRANCH   4  10
HETATM   10  N   UNL     1      25.276  45.402  52.695  1.00  0.00    -0.375 N 
HETATM   11  H   UNL     1      24.854  46.101  53.315  1.00  0.00     0.161 HD
BRANCH  10  12
HETATM   12  C   UNL     1      25.143  45.726  51.279  1.00  0.00     0.126 C 
BRANCH  12  13
HETATM   13  C   UNL     1      26.321  46.580  50.795  1.00  0.00     0.058 C 
BRANCH  13  14
HETATM   14  C   UNL     1      25.833  47.689  49.895  1.00  0.00    -0.057 A 
HETATM   15  C   UNL     1      26.750  48.573  49.305  1.00  0.00     0.010 A 
HETATM   16  C   UNL     1      26.300  49.631  48.514  1.00  0.00     0.043 A 
HETATM   17  C   UNL     1      24.937  49.808  48.316  1.00  0.00     0.116 A 
HETATM   18  F   UNL     1      24.506  50.831  47.568  1.00  0.00    -0.206 F 
HETATM   19  C   UNL     1      24.014  48.940  48.887  1.00  0.00     0.043 A 
HETATM   20  C   UNL     1      24.459  47.879  49.677  1.00  0.00     0.010 A 
ENDBRANCH  13  14
ENDBRANCH  12  13
ENDBRANCH  10  12
ENDBRANCH   4  10
BRANCH   3  21
HETATM   21  C   UNL     1      26.893  46.875  54.570  1.00  0.00     0.253 C 
HETATM   22  N   UNL     1      27.814  47.849  54.309  1.00  0.00    -0.366 N 
HETATM   23  H   UNL     1      28.795  47.648  54.162  1.00  0.00     0.159 HD
HETATM   24  H   UNL     1      27.609  48.757  54.722  1.00  0.00     0.159 HD
HETATM   25  O   UNL     1      25.828  47.097  55.121  1.00  0.00    -0.268 OA
ENDBRANCH   3  21
TORSDOF 5
ENDMDL
MODEL 7
REMARK VINA RESULT:      -7.3      3.821      5.528
REMARK  5 active torsions:
REMARK  status: ('A' for Active; 'I' for Inactive)
REMARK    1  A    between atoms: C_3  and  C_4 
REMARK       I    between atoms: C_4  and  N_5 
REMARK    2  A    between atoms: C_7  and  N_8 
REMARK    3  A    between atoms: N_8  and  C_9 
REMARK    4  A    between atoms: C_9  and  C_10 
REMARK    5  A    between atoms: C_10  and  C_11 
ROOT
HETATM    1  C   UNL     1      23.256  50.588  47.673  1.00  0.00     0.049 C 
HETATM    2  C   UNL     1      24.154  49.575  48.330  1.00  0.00    -0.041 A 
HETATM    3  C   UNL     1      23.651  48.413  48.937  1.00  0.00     0.081 A 
HETATM    4  C   UNL     1      24.509  47.498  49.586  1.00  0.00     0.117 A 
HETATM    5  N   UNL     1      25.816  47.814  49.635  1.00  0.00    -0.346 N 
HETATM    6  H   UNL     1      26.429  47.196  50.155  1.00  0.00     0.167 HD
HETATM    7  C   UNL     1      26.354  48.912  49.075  1.00  0.00     0.007 A 
HETATM    8  C   UNL     1      27.825  49.146  49.211  1.00  0.00     0.068 C 
HETATM    9  C   UNL     1      25.527  49.815  48.407  1.00  0.00     0.032 A 
ENDROOT
BRANCH   4  10
HETATM   10  N   UNL     1      24.042  46.376  50.261  1.00  0.00    -0.375 N 
HETATM   11  H   UNL     1      23.120  46.073  49.931  1.00  0.00     0.161 HD
BRANCH  10  12
HETATM   12  C   UNL     1      24.909  45.270  50.655  1.00  0.00     0.126 C 
BRANCH  12  13
HETATM   13  C   UNL     1      24.924  45.095  52.178  1.00  0.00     0.058 C 
BRANCH  13  14
HETATM   14  C   UNL     1      26.246  44.525  52.630  1.00  0.00    -0.057 A 
HETATM   15  C   UNL     1      26.490  44.308  53.996  1.00  0.00     0.010 A 
HETATM   16  C   UNL     1      27.730  43.831  54.423  1.00  0.00     0.043 A 
HETATM   17  C   UNL     1      28.725  43.573  53.488  1.00  0.00     0.116 A 
HETATM   18  F   UNL     1      29.918  43.127  53.900  1.00  0.00    -0.206 F 
HETATM   19  C   UNL     1      28.501  43.777  52.132  1.00  0.00     0.043 A 
HETATM   20  C   UNL     1      27.262  44.252  51.700  1.00  0.00     0.010 A 
ENDBRANCH  13  14
ENDBRANCH  12  13
ENDBRANCH  10  12
ENDBRANCH   4  10
BRANCH   3  21
HETATM   21  C   UNL     1      22.201  48.175  48.969  1.00  0.00     0.253 C 
HETATM   22  N   UNL     1      21.474  48.968  49.810  1.00  0.00    -0.366 N 
HETATM   23  H   UNL     1      21.885  49.449  50.599  1.00  0.00     0.159 HD
HETATM   24  H   UNL     1      20.499  48.698  49.920  1.00  0.00     0.159 HD
HETATM   25  O   UNL     1      21.701  47.303  48.277  1.00  0.00    -0.268 OA
ENDBRANCH   3  21
TORSDOF 5
ENDMDL
MODEL 8
REMARK VINA RESULT:      -7.3      3.276      4.789
REMARK  5 active torsions:
REMARK  status: ('A' for Active; 'I' for Inactive)
REMARK    1  A    between atoms: C_3  and  C_4 
REMARK       I    between atoms: C_4  and  N_5 
REMARK    2  A    between atoms: C_7  and  N_8 
REMARK    3  A    between atoms: N_8  and  C_9 
REMARK    4  A    between atoms: C_9  and  C_10 
REMARK    5  A    between atoms: C_10  and  C_11 
ROOT
HETATM    1  C   UNL     1      25.487  39.382  47.255  1.00  0.00     0.049 C 
HETATM    2  C   UNL     1      25.427  40.283  48.459  1.00  0.00    -0.041 A 
HETATM    3  C   UNL     1      26.245  40.083  49.582  1.00  0.00     0.081 A 
HETATM    4  C   UNL     1      26.141  40.915  50.719  1.00  0.00     0.117 A 
HETATM    5  N   UNL     1      25.195  41.872  50.692  1.00  0.00    -0.346 N 
HETATM    6  H   UNL     1      25.070  42.431  51.529  1.00  0.00     0.167 HD
HETATM    7  C   UNL     1      24.382  42.108  49.647  1.00  0.00     0.007 A 
HETATM    8  C   UNL     1      23.367  43.201  49.754  1.00  0.00     0.068 C 
HETATM    9  C   UNL     1      24.487  41.313  48.505  1.00  0.00     0.032 A 
ENDROOT
BRANCH   4  10
HETATM   10  N   UNL     1      26.881  40.705  51.877  1.00  0.00    -0.375 N 
HETATM   11  H   UNL     1      26.931  39.715  52.138  1.00  0.00     0.161 HD
BRANCH  10  12
HETATM   12  C   UNL     1      28.098  41.448  52.186  1.00  0.00     0.126 C 
BRANCH  12  13
HETATM   13  C   UNL     1      28.465  41.314  53.669  1.00  0.00     0.058 C 
BRANCH  13  14
HETATM   14  C   UNL     1      28.788  42.666  54.256  1.00  0.00    -0.057 A 
HETATM   15  C   UNL     1      30.050  42.905  54.825  1.00  0.00     0.010 A 
HETATM   16  C   UNL     1      30.334  44.137  55.416  1.00  0.00     0.043 A 
HETATM   17  C   UNL     1      29.360  45.127  55.442  1.00  0.00     0.116 A 
HETATM   18  F   UNL     1      29.631  46.303  56.020  1.00  0.00    -0.206 F 
HETATM   19  C   UNL     1      28.108  44.911  54.880  1.00  0.00     0.043 A 
HETATM   20  C   UNL     1      27.819  43.682  54.286  1.00  0.00     0.010 A 
ENDBRANCH  13  14
ENDBRANCH  12  13
ENDBRANCH  10  12
ENDBRANCH   4  10
BRANCH   3  21
HETATM   21  C   UNL     1      27.176  38.946  49.615  1.00  0.00     0.253 C 
HETATM   22  N   UNL     1      26.641  37.733  49.946  1.00  0.00    -0.366 N 
HETATM   23  H   UNL     1      25.772  37.640  50.456  1.00  0.00     0.159 HD
HETATM   24  H   UNL     1      27.320  36.990  50.097  1.00  0.00     0.159 HD
HETATM   25  O   UNL     1      28.359  39.105  49.365  1.00  0.00    -0.268 OA
ENDBRANCH   3  21
TORSDOF 5
ENDMDL
MODEL 9
REMARK VINA RESULT:      -7.2      3.229      6.201
REMARK  5 active torsions:
REMARK  status: ('A' for Active; 'I' for Inactive)
REMARK    1  A    between atoms: C_3  and  C_4 
REMARK       I    between atoms: C_4  and  N_5 
REMARK    2  A    between atoms: C_7  and  N_8 
REMARK    3  A    between atoms: N_8  and  C_9 
REMARK    4  A    between atoms: C_9  and  C_10 
REMARK    5  A    between atoms: C_10  and  C_11 
ROOT
HETATM    1  C   UNL     1      27.414  46.892  55.333  1.00  0.00     0.049 C 
HETATM    2  C   UNL     1      27.962  45.540  54.964  1.00  0.00    -0.041 A 
HETATM    3  C   UNL     1      27.233  44.626  54.184  1.00  0.00     0.081 A 
HETATM    4  C   UNL     1      27.750  43.346  53.886  1.00  0.00     0.117 A 
HETATM    5  N   UNL     1      28.944  43.028  54.419  1.00  0.00    -0.346 N 
HETATM    6  H   UNL     1      29.291  42.089  54.264  1.00  0.00     0.167 HD
HETATM    7  C   UNL     1      29.685  43.860  55.174  1.00  0.00     0.007 A 
HETATM    8  C   UNL     1      30.994  43.375  55.710  1.00  0.00     0.068 C 
HETATM    9  C   UNL     1      29.204  45.138  55.458  1.00  0.00     0.032 A 
ENDROOT
BRANCH   4  10
HETATM   10  N   UNL     1      27.029  42.388  53.181  1.00  0.00    -0.375 N 
HETATM   11  H   UNL     1      26.032  42.616  53.114  1.00  0.00     0.161 HD
BRANCH  10  12
HETATM   12  C   UNL     1      27.552  41.718  51.995  1.00  0.00     0.126 C 
BRANCH  12  13
HETATM   13  C   UNL     1      26.433  41.430  50.986  1.00  0.00     0.058 C 
BRANCH  13  14
HETATM   14  C   UNL     1      25.753  42.712  50.573  1.00  0.00    -0.057 A 
HETATM   15  C   UNL     1      24.399  42.922  50.877  1.00  0.00     0.010 A 
HETATM   16  C   UNL     1      23.753  44.084  50.451  1.00  0.00     0.043 A 
HETATM   17  C   UNL     1      24.457  45.032  49.720  1.00  0.00     0.116 A 
HETATM   18  F   UNL     1      23.832  46.139  49.301  1.00  0.00    -0.206 F 
HETATM   19  C   UNL     1      25.799  44.844  49.413  1.00  0.00     0.043 A 
HETATM   20  C   UNL     1      26.450  43.686  49.839  1.00  0.00     0.010 A 
ENDBRANCH  13  14
ENDBRANCH  12  13
ENDBRANCH  10  12
ENDBRANCH   4  10
BRANCH   3  21
HETATM   21  C   UNL     1      25.879  44.971  53.731  1.00  0.00     0.253 C 
HETATM   22  N   UNL     1      25.784  45.969  52.803  1.00  0.00    -0.366 N 
HETATM   23  H   UNL     1      26.512  46.658  52.666  1.00  0.00     0.159 HD
HETATM   24  H   UNL     1      24.837  46.285  52.606  1.00  0.00     0.159 HD
HETATM   25  O   UNL     1      24.907  44.389  54.183  1.00  0.00    -0.268 OA
ENDBRANCH   3  21
TORSDOF 5
ENDMDL
MODEL 10
REMARK VINA RESULT:      -7.2      1.946      3.399
REMARK  5 active torsions:
REMARK  status: ('A' for Active; 'I' for Inactive)
REMARK    1  A    between atoms: C_3  and  C_4 
REMARK       I    between atoms: C_4  and  N_5 
REMARK    2  A    between atoms: C_7  and  N_8 
REMARK    3  A    between atoms: N_8  and  C_9 
REMARK    4  A    between atoms: C_9  and  C_10 
REMARK    5  A    between atoms: C_10  and  C_11 
ROOT
HETATM    1  C   UNL     1      26.551  40.242  49.935  1.00  0.00     0.049 C 
HETATM    2  C   UNL     1      26.218  41.565  50.570  1.00  0.00    -0.041 A 
HETATM    3  C   UNL     1      26.884  42.034  51.713  1.00  0.00     0.081 A 
HETATM    4  C   UNL     1      26.525  43.260  52.317  1.00  0.00     0.117 A 
HETATM    5  N   UNL     1      25.490  43.928  51.776  1.00  0.00    -0.346 N 
HETATM    6  H   UNL     1      25.184  44.775  52.242  1.00  0.00     0.167 HD
HETATM    7  C   UNL     1      24.813  43.527  50.685  1.00  0.00     0.007 A 
HETATM    8  C   UNL     1      23.676  44.364  50.192  1.00  0.00     0.068 C 
HETATM    9  C   UNL     1      25.170  42.333  50.059  1.00  0.00     0.032 A 
ENDROOT
BRANCH   4  10
HETATM   10  N   UNL     1      27.111  43.722  53.490  1.00  0.00    -0.375 N 
HETATM   11  H   UNL     1      27.107  43.019  54.236  1.00  0.00     0.161 HD
BRANCH  10  12
HETATM   12  C   UNL     1      28.296  44.574  53.503  1.00  0.00     0.126 C 
BRANCH  12  13
HETATM   13  C   UNL     1      29.556  43.762  53.828  1.00  0.00     0.058 C 
BRANCH  13  14
HETATM   14  C   UNL     1      30.038  44.073  55.223  1.00  0.00    -0.057 A 
HETATM   15  C   UNL     1      29.616  45.246  55.869  1.00  0.00     0.010 A 
HETATM   16  C   UNL     1      30.100  45.565  57.139  1.00  0.00     0.043 A 
HETATM   17  C   UNL     1      31.007  44.715  57.760  1.00  0.00     0.116 A 
HETATM   18  F   UNL     1      31.481  45.028  58.972  1.00  0.00    -0.206 F 
HETATM   19  C   UNL     1      31.432  43.547  57.139  1.00  0.00     0.043 A 
HETATM   20  C   UNL     1      30.949  43.224  55.871  1.00  0.00     0.010 A 
ENDBRANCH  13  14
ENDBRANCH  12  13
ENDBRANCH  10  12
ENDBRANCH   4  10
BRANCH   3  21
HETATM   21  C   UNL     1      27.923  41.208  52.343  1.00  0.00     0.253 C 
HETATM   22  N   UNL     1      27.574  40.569  53.499  1.00  0.00    -0.366 N 
HETATM   23  H   UNL     1      26.803  40.874  54.080  1.00  0.00     0.159 HD
HETATM   24  H   UNL     1      28.342  40.116  53.989  1.00  0.00     0.159 HD
HETATM   25  O   UNL     1      29.034  41.121  51.845  1.00  0.00    -0.268 OA
ENDBRANCH   3  21
TORSDOF 5
ENDMDL
