MODEL 1
REMARK VINA RESULT:      -8.6      0.000      0.000
REMARK  6 active torsions:
REMARK  status: ('A' for Active; 'I' for Inactive)
REMARK    1  A    between atoms: C_4  and  O_5 
REMARK    2  A    between atoms: O_5  and  C_6 
REMARK    3  A    between atoms: C_6  and  C_7 
REMARK    4  A    between atoms: C_10  and  C_11 
REMARK    5  A    between atoms: C_11  and  N_12 
REMARK       I    between atoms: N_12  and  C_13 
REMARK       I    between atoms: C_13  and  N_14 
REMARK    6  A    between atoms: N_14  and  C_15 
ROOT
HETATM    1  C   UNL     1      26.385  45.574  53.859  1.00  0.00     0.165 C 
ENDROOT
BRANCH   1   2
HETATM    2  C   UNL     1      27.656  44.972  54.413  1.00  0.00    -0.007 A 
HETATM    3  C   UNL     1      28.132  43.702  54.035  1.00  0.00     0.077 A 
HETATM    4  C   UNL     1      29.360  43.243  54.532  1.00  0.00     0.044 A 
HETATM    5  C   UNL     1      30.112  44.017  55.426  1.00  0.00    -0.059 A 
HETATM    6  C   UNL     1      31.436  43.531  55.940  1.00  0.00     0.048 C 
HETATM    7  C   UNL     1      29.640  45.276  55.798  1.00  0.00     0.007 A 
HETATM    8  C   UNL     1      28.428  45.749  55.295  1.00  0.00     0.012 A 
BRANCH   3   9
HETATM    9  O   UNL     1      27.339  42.990  53.167  1.00  0.00    -0.350 OA
BRANCH   9  10
HETATM   10  C   UNL     1      27.959  42.511  51.972  1.00  0.00     0.180 C 
BRANCH  10  11
HETATM   11  C   UNL     1      27.568  41.075  51.799  1.00  0.00     0.010 A 
HETATM   12  C   UNL     1      26.437  40.703  50.875  1.00  0.00     0.007 A 
HETATM   13  C   UNL     1      27.851  40.352  50.506  1.00  0.00     0.007 A 
ENDBRANCH  10  11
ENDBRANCH   9  10
ENDBRANCH   3   9
ENDBRANCH   1   2
BRANCH   1  14
HETATM   14  N   UNL     1      26.445  45.830  52.438  1.00  0.00    -0.339 N 
HETATM   15  C   UNL     1      25.846  46.950  51.908  1.00  0.00     0.321 C 
HETATM   16  N   UNL     1      26.177  47.119  50.583  1.00  0.00    -0.307 N 
HETATM   17  O   UNL     1      25.107  47.670  52.566  1.00  0.00    -0.247 OA
HETATM   18  H   UNL     1      26.893  46.504  50.232  1.00  0.00     0.170 HD
HETATM   19  H   UNL     1      27.269  45.461  51.984  1.00  0.00     0.164 HD
BRANCH  16  20
HETATM   20  C   UNL     1      25.669  48.098  49.698  1.00  0.00     0.059 A 
HETATM   21  C   UNL     1      26.558  48.978  49.053  1.00  0.00    -0.032 A 
HETATM   22  C   UNL     1      28.040  48.958  49.301  1.00  0.00     0.050 C 
HETATM   23  C   UNL     1      26.043  49.923  48.152  1.00  0.00     0.028 A 
HETATM   24  C   UNL     1      24.677  49.966  47.927  1.00  0.00     0.117 A 
HETATM   25  N   UNL     1      23.799  49.144  48.528  1.00  0.00    -0.271 NA
HETATM   26  C   UNL     1      24.311  48.235  49.398  1.00  0.00     0.146 A 
ENDBRANCH  16  20
ENDBRANCH   1  14
TORSDOF 6
ENDMDL
MODEL 2
REMARK VINA RESULT:      -8.4      1.816      3.832
REMARK  6 active torsions:
REMARK  status: ('A' for Active; 'I' for Inactive)
REMARK    1  A    between atoms: C_4  and  O_5 
REMARK    2  A    between atoms: O_5  and  C_6 
REMARK    3  A    between atoms: C_6  and  C_7 
REMARK    4  A    between atoms: C_10  and  C_11 
REMARK    5  A    between atoms: C_11  and  N_12 
REMARK       I    between atoms: N_12  and  C_13 
REMARK       I    between atoms: C_13  and  N_14 
REMARK    6  A    between atoms: N_14  and  C_15 
ROOT
HETATM    1  C   UNL     1      27.212  43.838  51.169  1.00  0.00     0.165 C 
ENDROOT
BRANCH   1   2
HETATM    2  C   UNL     1      28.128  43.751  52.368  1.00  0.00    -0.007 A 
HETATM    3  C   UNL     1      27.790  44.274  53.630  1.00  0.00     0.077 A 
HETATM    4  C   UNL     1      28.659  44.088  54.715  1.00  0.00     0.044 A 
HETATM    5  C   UNL     1      29.877  43.413  54.558  1.00  0.00    -0.059 A 
HETATM    6  C   UNL     1      30.794  43.197  55.726  1.00  0.00     0.048 C 
HETATM    7  C   UNL     1      30.209  42.894  53.306  1.00  0.00     0.007 A 
HETATM    8  C   UNL     1      29.343  43.059  52.225  1.00  0.00     0.012 A 
BRANCH   3   9
HETATM    9  O   UNL     1      26.589  44.936  53.712  1.00  0.00    -0.350 OA
BRANCH   9  10
HETATM   10  C   UNL     1      26.373  45.740  54.873  1.00  0.00     0.180 C 
BRANCH  10  11
HETATM   11  C   UNL     1      26.542  47.175  54.475  1.00  0.00     0.010 A 
HETATM   12  C   UNL     1      26.624  48.250  55.529  1.00  0.00     0.007 A 
HETATM   13  C   UNL     1      27.844  47.894  54.726  1.00  0.00     0.007 A 
ENDBRANCH  10  11
ENDBRANCH   9  10
ENDBRANCH   3   9
ENDBRANCH   1   2
BRANCH   1  14
HETATM   14  N   UNL     1      26.428  45.053  51.134  1.00  0.00    -0.339 N 
HETATM   15  C   UNL     1      26.624  45.976  50.133  1.00  0.00     0.321 C 
HETATM   16  N   UNL     1      25.661  46.959  50.159  1.00  0.00    -0.307 N 
HETATM   17  O   UNL     1      27.560  45.902  49.347  1.00  0.00    -0.247 OA
HETATM   18  H   UNL     1      24.896  46.801  50.794  1.00  0.00     0.170 HD
HETATM   19  H   UNL     1      25.507  44.964  51.539  1.00  0.00     0.164 HD
BRANCH  16  20
HETATM   20  C   UNL     1      25.605  48.117  49.349  1.00  0.00     0.059 A 
HETATM   21  C   UNL     1      24.355  48.609  48.928  1.00  0.00    -0.032 A 
HETATM   22  C   UNL     1      23.061  47.925  49.264  1.00  0.00     0.050 C 
HETATM   23  C   UNL     1      24.314  49.777  48.151  1.00  0.00     0.028 A 
HETATM   24  C   UNL     1      25.500  50.409  47.818  1.00  0.00     0.117 A 
HETATM   25  N   UNL     1      26.711  49.965  48.199  1.00  0.00    -0.271 NA
HETATM   26  C   UNL     1      26.736  48.833  48.950  1.00  0.00     0.146 A 
ENDBRANCH  16  20
ENDBRANCH   1  14
TORSDOF 6
ENDMDL
MODEL 3
REMARK VINA RESULT:      -8.1      3.782      5.625
REMARK  6 active torsions:
REMARK  status: ('A' for Active; 'I' for Inactive)
REMARK    1  A    between atoms: C_4  and  O_5 
REMARK    2  A    between atoms: O_5  and  C_6 
REMARK    3  A    between atoms: C_6  and  C_7 
REMARK    4  A    between atoms: C_10  and  C_11 
REMARK    5  A    between atoms: C_11  and  N_12 
REMARK       I    between atoms: N_12  and  C_13 
REMARK       I    between atoms: C_13  and  N_14 
REMARK    6  A    between atoms: N_14  and  C_15 
ROOT
HETATM    1  C   UNL     1      30.037  42.637  53.727  1.00  0.00     0.165 C 
ENDROOT
BRANCH   1   2
HETATM    2  C   UNL     1      30.220  43.525  54.936  1.00  0.00    -0.007 A 
HETATM    3  C   UNL     1      29.492  44.714  55.131  1.00  0.00     0.077 A 
HETATM    4  C   UNL     1      29.661  45.447  56.315  1.00  0.00     0.044 A 
HETATM    5  C   UNL     1      30.566  45.030  57.300  1.00  0.00    -0.059 A 
HETATM    6  C   UNL     1      30.729  45.805  58.575  1.00  0.00     0.048 C 
HETATM    7  C   UNL     1      31.286  43.850  57.105  1.00  0.00     0.007 A 
HETATM    8  C   UNL     1      31.112  43.106  55.939  1.00  0.00     0.012 A 
BRANCH   3   9
HETATM    9  O   UNL     1      28.632  45.073  54.121  1.00  0.00    -0.350 OA
BRANCH   9  10
HETATM   10  C   UNL     1      27.318  45.480  54.507  1.00  0.00     0.180 C 
BRANCH  10  11
HETATM   11  C   UNL     1      27.147  46.914  54.106  1.00  0.00     0.010 A 
HETATM   12  C   UNL     1      25.766  47.489  53.919  1.00  0.00     0.007 A 
HETATM   13  C   UNL     1      26.610  47.927  55.084  1.00  0.00     0.007 A 
ENDBRANCH  10  11
ENDBRANCH   9  10
ENDBRANCH   3   9
ENDBRANCH   1   2
BRANCH   1  14
HETATM   14  N   UNL     1      28.662  42.246  53.507  1.00  0.00    -0.339 N 
HETATM   15  C   UNL     1      28.082  42.417  52.272  1.00  0.00     0.321 C 
HETATM   16  N   UNL     1      26.847  41.812  52.208  1.00  0.00    -0.307 N 
HETATM   17  O   UNL     1      28.625  43.047  51.374  1.00  0.00    -0.247 OA
HETATM   18  H   UNL     1      26.606  41.233  52.995  1.00  0.00     0.170 HD
HETATM   19  H   UNL     1      28.350  41.481  54.088  1.00  0.00     0.164 HD
BRANCH  16  20
HETATM   20  C   UNL     1      25.928  41.868  51.135  1.00  0.00     0.059 A 
HETATM   21  C   UNL     1      25.050  42.964  51.029  1.00  0.00    -0.032 A 
HETATM   22  C   UNL     1      25.010  44.070  52.045  1.00  0.00     0.050 C 
HETATM   23  C   UNL     1      24.167  43.022  49.940  1.00  0.00     0.028 A 
HETATM   24  C   UNL     1      24.180  42.001  49.005  1.00  0.00     0.117 A 
HETATM   25  N   UNL     1      25.000  40.938  49.077  1.00  0.00    -0.271 NA
HETATM   26  C   UNL     1      25.850  40.894  50.136  1.00  0.00     0.146 A 
ENDBRANCH  16  20
ENDBRANCH   1  14
TORSDOF 6
ENDMDL
MODEL 4
REMARK VINA RESULT:      -7.9      3.469      6.886
REMARK  6 active torsions:
REMARK  status: ('A' for Active; 'I' for Inactive)
REMARK    1  A    between atoms: C_4  and  O_5 
REMARK    2  A    between atoms: O_5  and  C_6 
REMARK    3  A    between atoms: C_6  and  C_7 
REMARK    4  A    between atoms: C_10  and  C_11 
REMARK    5  A    between atoms: C_11  and  N_12 
REMARK       I    between atoms: N_12  and  C_13 
REMARK       I    between atoms: C_13  and  N_14 
REMARK    6  A    between atoms: N_14  and  C_15 
ROOT
HETATM    1  C   UNL     1      29.083  43.044  54.287  1.00  0.00     0.165 C 
ENDROOT
BRANCH   1   2
HETATM    2  C   UNL     1      28.387  44.378  54.436  1.00  0.00    -0.007 A 
HETATM    3  C   UNL     1      27.096  44.629  53.935  1.00  0.00     0.077 A 
HETATM    4  C   UNL     1      26.484  45.867  54.180  1.00  0.00     0.044 A 
HETATM    5  C   UNL     1      27.149  46.873  54.893  1.00  0.00    -0.059 A 
HETATM    6  C   UNL     1      26.483  48.189  55.171  1.00  0.00     0.048 C 
HETATM    7  C   UNL     1      28.429  46.621  55.389  1.00  0.00     0.007 A 
HETATM    8  C   UNL     1      29.038  45.387  55.167  1.00  0.00     0.012 A 
BRANCH   3   9
HETATM    9  O   UNL     1      26.506  43.605  53.234  1.00  0.00    -0.350 OA
BRANCH   9  10
HETATM   10  C   UNL     1      25.748  43.967  52.079  1.00  0.00     0.180 C 
BRANCH  10  11
HETATM   11  C   UNL     1      26.715  44.278  50.976  1.00  0.00     0.010 A 
HETATM   12  C   UNL     1      26.240  44.341  49.547  1.00  0.00     0.007 A 
HETATM   13  C   UNL     1      26.657  45.600  50.254  1.00  0.00     0.007 A 
ENDBRANCH  10  11
ENDBRANCH   9  10
ENDBRANCH   3   9
ENDBRANCH   1   2
BRANCH   1  14
HETATM   14  N   UNL     1      29.126  42.571  52.921  1.00  0.00    -0.339 N 
HETATM   15  C   UNL     1      28.716  41.294  52.615  1.00  0.00     0.321 C 
HETATM   16  N   UNL     1      28.647  41.100  51.255  1.00  0.00    -0.307 N 
HETATM   17  O   UNL     1      28.467  40.462  53.478  1.00  0.00    -0.247 OA
HETATM   18  H   UNL     1      28.766  41.925  50.691  1.00  0.00     0.170 HD
HETATM   19  H   UNL     1      29.011  43.297  52.227  1.00  0.00     0.164 HD
BRANCH  16  20
HETATM   20  C   UNL     1      28.361  39.888  50.583  1.00  0.00     0.059 A 
HETATM   21  C   UNL     1      27.078  39.683  50.039  1.00  0.00    -0.032 A 
HETATM   22  C   UNL     1      25.968  40.684  50.183  1.00  0.00     0.050 C 
HETATM   23  C   UNL     1      26.819  38.491  49.346  1.00  0.00     0.028 A 
HETATM   24  C   UNL     1      27.828  37.550  49.219  1.00  0.00     0.117 A 
HETATM   25  N   UNL     1      29.062  37.711  49.729  1.00  0.00    -0.271 NA
HETATM   26  C   UNL     1      29.299  38.870  50.398  1.00  0.00     0.146 A 
ENDBRANCH  16  20
ENDBRANCH   1  14
TORSDOF 6
ENDMDL
MODEL 5
REMARK VINA RESULT:      -7.9      2.791      8.671
REMARK  6 active torsions:
REMARK  status: ('A' for Active; 'I' for Inactive)
REMARK    1  A    between atoms: C_4  and  O_5 
REMARK    2  A    between atoms: O_5  and  C_6 
REMARK    3  A    between atoms: C_6  and  C_7 
REMARK    4  A    between atoms: C_10  and  C_11 
REMARK    5  A    between atoms: C_11  and  N_12 
REMARK       I    between atoms: N_12  and  C_13 
REMARK       I    between atoms: C_13  and  N_14 
REMARK    6  A    between atoms: N_14  and  C_15 
ROOT
HETATM    1  C   UNL     1      22.759  46.989  48.289  1.00  0.00     0.165 C 
ENDROOT
BRANCH   1   2
HETATM    2  C   UNL     1      22.046  48.316  48.407  1.00  0.00    -0.007 A 
HETATM    3  C   UNL     1      22.666  49.478  48.905  1.00  0.00     0.077 A 
HETATM    4  C   UNL     1      21.964  50.692  48.913  1.00  0.00     0.044 A 
HETATM    5  C   UNL     1      20.640  50.764  48.459  1.00  0.00    -0.059 A 
HETATM    6  C   UNL     1      19.899  52.069  48.450  1.00  0.00     0.048 C 
HETATM    7  C   UNL     1      20.028  49.611  47.965  1.00  0.00     0.007 A 
HETATM    8  C   UNL     1      20.724  48.403  47.936  1.00  0.00     0.012 A 
BRANCH   3   9
HETATM    9  O   UNL     1      23.959  49.335  49.347  1.00  0.00    -0.350 OA
BRANCH   9  10
HETATM   10  C   UNL     1      24.975  49.996  48.591  1.00  0.00     0.180 C 
BRANCH  10  11
HETATM   11  C   UNL     1      26.157  49.077  48.511  1.00  0.00     0.010 A 
HETATM   12  C   UNL     1      27.522  49.560  48.931  1.00  0.00     0.007 A 
HETATM   13  C   UNL     1      26.798  48.539  49.765  1.00  0.00     0.007 A 
ENDBRANCH  10  11
ENDBRANCH   9  10
ENDBRANCH   3   9
ENDBRANCH   1   2
BRANCH   1  14
HETATM   14  N   UNL     1      23.012  46.359  49.566  1.00  0.00    -0.339 N 
HETATM   15  C   UNL     1      24.252  45.834  49.847  1.00  0.00     0.321 C 
HETATM   16  N   UNL     1      24.352  45.459  51.167  1.00  0.00    -0.307 N 
HETATM   17  O   UNL     1      25.124  45.719  48.995  1.00  0.00    -0.247 OA
HETATM   18  H   UNL     1      23.585  45.736  51.757  1.00  0.00     0.170 HD
HETATM   19  H   UNL     1      22.457  46.726  50.326  1.00  0.00     0.164 HD
BRANCH  16  20
HETATM   20  C   UNL     1      25.439  44.794  51.782  1.00  0.00     0.059 A 
HETATM   21  C   UNL     1      26.231  45.482  52.721  1.00  0.00    -0.032 A 
HETATM   22  C   UNL     1      26.003  46.925  53.070  1.00  0.00     0.050 C 
HETATM   23  C   UNL     1      27.285  44.799  53.348  1.00  0.00     0.028 A 
HETATM   24  C   UNL     1      27.518  43.473  53.023  1.00  0.00     0.117 A 
HETATM   25  N   UNL     1      26.785  42.787  52.129  1.00  0.00    -0.271 NA
HETATM   26  C   UNL     1      25.768  43.460  51.529  1.00  0.00     0.146 A 
ENDBRANCH  16  20
ENDBRANCH   1  14
TORSDOF 6
ENDMDL
MODEL 6
REMARK VINA RESULT:      -7.8      3.407      6.974
REMARK  6 active torsions:
REMARK  status: ('A' for Active; 'I' for Inactive)
REMARK    1  A    between atoms: C_4  and  O_5 
REMARK    2  A    between atoms: O_5  and  C_6 
REMARK    3  A    between atoms: C_6  and  C_7 
REMARK    4  A    between atoms: C_10  and  C_11 
REMARK    5  A    between atoms: C_11  and  N_12 
REMARK       I    between atoms: N_12  and  C_13 
REMARK       I    between atoms: C_13  and  N_14 
REMARK    6  A    between atoms: N_14  and  C_15 
ROOT
HETATM    1  C   UNL     1      27.682  41.906  53.166  1.00  0.00     0.165 C 
ENDROOT
BRANCH   1   2
HETATM    2  C   UNL     1      28.359  42.980  53.987  1.00  0.00    -0.007 A 
HETATM    3  C   UNL     1      27.697  44.143  54.422  1.00  0.00     0.077 A 
HETATM    4  C   UNL     1      28.369  45.058  55.246  1.00  0.00     0.044 A 
HETATM    5  C   UNL     1      29.702  44.848  55.622  1.00  0.00    -0.059 A 
HETATM    6  C   UNL     1      30.411  45.819  56.520  1.00  0.00     0.048 C 
HETATM    7  C   UNL     1      30.356  43.694  55.190  1.00  0.00     0.007 A 
HETATM    8  C   UNL     1      29.691  42.769  54.385  1.00  0.00     0.012 A 
BRANCH   3   9
HETATM    9  O   UNL     1      26.396  44.294  54.006  1.00  0.00    -0.350 OA
BRANCH   9  10
HETATM   10  C   UNL     1      25.862  45.619  54.028  1.00  0.00     0.180 C 
BRANCH  10  11
HETATM   11  C   UNL     1      25.396  45.947  52.641  1.00  0.00     0.010 A 
HETATM   12  C   UNL     1      26.054  47.059  51.865  1.00  0.00     0.007 A 
HETATM   13  C   UNL     1      26.259  45.630  51.446  1.00  0.00     0.007 A 
ENDBRANCH  10  11
ENDBRANCH   9  10
ENDBRANCH   3   9
ENDBRANCH   1   2
BRANCH   1  14
HETATM   14  N   UNL     1      28.515  41.390  52.101  1.00  0.00    -0.339 N 
HETATM   15  C   UNL     1      27.946  40.755  51.022  1.00  0.00     0.321 C 
HETATM   16  N   UNL     1      28.874  40.512  50.034  1.00  0.00    -0.307 N 
HETATM   17  O   UNL     1      26.761  40.449  50.990  1.00  0.00    -0.247 OA
HETATM   18  H   UNL     1      29.775  40.939  50.172  1.00  0.00     0.170 HD
HETATM   19  H   UNL     1      29.378  41.897  51.967  1.00  0.00     0.164 HD
BRANCH  16  20
HETATM   20  C   UNL     1      28.669  39.794  48.834  1.00  0.00     0.059 A 
HETATM   21  C   UNL     1      29.075  38.448  48.753  1.00  0.00    -0.032 A 
HETATM   22  C   UNL     1      29.770  37.743  49.883  1.00  0.00     0.050 C 
HETATM   23  C   UNL     1      28.836  37.738  47.567  1.00  0.00     0.028 A 
HETATM   24  C   UNL     1      28.212  38.380  46.510  1.00  0.00     0.117 A 
HETATM   25  N   UNL     1      27.815  39.663  46.550  1.00  0.00    -0.271 NA
HETATM   26  C   UNL     1      28.053  40.339  47.705  1.00  0.00     0.146 A 
ENDBRANCH  16  20
ENDBRANCH   1  14
TORSDOF 6
ENDMDL
MODEL 7
REMARK VINA RESULT:      -7.7      5.215     10.771
REMARK  6 active torsions:
REMARK  status: ('A' for Active; 'I' for Inactive)
REMARK    1  A    between atoms: C_4  and  O_5 
REMARK    2  A    between atoms: O_5  and  C_6 
REMARK    3  A    between atoms: C_6  and  C_7 
REMARK    4  A    between atoms: C_10  and  C_11 
REMARK    5  A    between atoms: C_11  and  N_12 
REMARK       I    between atoms: N_12  and  C_13 
REMARK       I    between atoms: C_13  and  N_14 
REMARK    6  A    between atoms: N_14  and  C_15 
ROOT
HETATM    1  C   UNL     1      19.854  47.531  48.626  1.00  0.00     0.165 C 
ENDROOT
BRANCH   1   2
HETATM    2  C   UNL     1      19.364  48.426  47.512  1.00  0.00    -0.007 A 
HETATM    3  C   UNL     1      19.290  49.827  47.630  1.00  0.00     0.077 A 
HETATM    4  C   UNL     1      18.898  50.598  46.526  1.00  0.00     0.044 A 
HETATM    5  C   UNL     1      18.549  49.995  45.310  1.00  0.00    -0.059 A 
HETATM    6  C   UNL     1      18.150  50.825  44.125  1.00  0.00     0.048 C 
HETATM    7  C   UNL     1      18.624  48.606  45.195  1.00  0.00     0.007 A 
HETATM    8  C   UNL     1      19.030  47.832  46.282  1.00  0.00     0.012 A 
BRANCH   3   9
HETATM    9  O   UNL     1      19.633  50.353  48.852  1.00  0.00    -0.350 OA
BRANCH   9  10
HETATM   10  C   UNL     1      19.568  51.774  48.984  1.00  0.00     0.180 C 
BRANCH  10  11
HETATM   11  C   UNL     1      18.462  52.095  49.943  1.00  0.00     0.010 A 
HETATM   12  C   UNL     1      17.285  52.922  49.493  1.00  0.00     0.007 A 
HETATM   13  C   UNL     1      17.104  51.460  49.790  1.00  0.00     0.007 A 
ENDBRANCH  10  11
ENDBRANCH   9  10
ENDBRANCH   3   9
ENDBRANCH   1   2
BRANCH   1  14
HETATM   14  N   UNL     1      21.003  48.064  49.325  1.00  0.00    -0.339 N 
HETATM   15  C   UNL     1      22.241  48.065  48.727  1.00  0.00     0.321 C 
HETATM   16  N   UNL     1      23.156  48.783  49.462  1.00  0.00    -0.307 N 
HETATM   17  O   UNL     1      22.462  47.476  47.676  1.00  0.00    -0.247 OA
HETATM   18  H   UNL     1      22.777  49.305  50.235  1.00  0.00     0.170 HD
HETATM   19  H   UNL     1      20.783  48.797  49.986  1.00  0.00     0.164 HD
BRANCH  16  20
HETATM   20  C   UNL     1      24.540  48.914  49.204  1.00  0.00     0.059 A 
HETATM   21  C   UNL     1      25.452  48.070  49.866  1.00  0.00    -0.032 A 
HETATM   22  C   UNL     1      25.022  47.056  50.887  1.00  0.00     0.050 C 
HETATM   23  C   UNL     1      26.820  48.189  49.575  1.00  0.00     0.028 A 
HETATM   24  C   UNL     1      27.233  49.133  48.648  1.00  0.00     0.117 A 
HETATM   25  N   UNL     1      26.391  49.957  48.001  1.00  0.00    -0.271 NA
HETATM   26  C   UNL     1      25.070  49.831  48.293  1.00  0.00     0.146 A 
ENDBRANCH  16  20
ENDBRANCH   1  14
TORSDOF 6
ENDMDL
MODEL 8
REMARK VINA RESULT:      -7.5      1.727      4.044
REMARK  6 active torsions:
REMARK  status: ('A' for Active; 'I' for Inactive)
REMARK    1  A    between atoms: C_4  and  O_5 
REMARK    2  A    between atoms: O_5  and  C_6 
REMARK    3  A    between atoms: C_6  and  C_7 
REMARK    4  A    between atoms: C_10  and  C_11 
REMARK    5  A    between atoms: C_11  and  N_12 
REMARK       I    between atoms: N_12  and  C_13 
REMARK       I    between atoms: C_13  and  N_14 
REMARK    6  A    between atoms: N_14  and  C_15 
ROOT
HETATM    1  C   UNL     1      25.350  45.175  53.424  1.00  0.00     0.165 C 
ENDROOT
BRANCH   1   2
HETATM    2  C   UNL     1      26.703  44.503  53.352  1.00  0.00    -0.007 A 
HETATM    3  C   UNL     1      27.803  44.909  54.131  1.00  0.00     0.077 A 
HETATM    4  C   UNL     1      29.004  44.188  54.066  1.00  0.00     0.044 A 
HETATM    5  C   UNL     1      29.139  43.083  53.215  1.00  0.00    -0.059 A 
HETATM    6  C   UNL     1      30.419  42.302  53.164  1.00  0.00     0.048 C 
HETATM    7  C   UNL     1      28.046  42.682  52.445  1.00  0.00     0.007 A 
HETATM    8  C   UNL     1      26.842  43.382  52.516  1.00  0.00     0.012 A 
BRANCH   3   9
HETATM    9  O   UNL     1      27.608  46.008  54.933  1.00  0.00    -0.350 OA
BRANCH   9  10
HETATM   10  C   UNL     1      28.765  46.562  55.560  1.00  0.00     0.180 C 
BRANCH  10  11
HETATM   11  C   UNL     1      29.091  45.714  56.752  1.00  0.00     0.010 A 
HETATM   12  C   UNL     1      30.165  46.146  57.718  1.00  0.00     0.007 A 
HETATM   13  C   UNL     1      28.722  46.168  58.141  1.00  0.00     0.007 A 
ENDBRANCH  10  11
ENDBRANCH   9  10
ENDBRANCH   3   9
ENDBRANCH   1   2
BRANCH   1  14
HETATM   14  N   UNL     1      24.874  45.642  52.141  1.00  0.00    -0.339 N 
HETATM   15  C   UNL     1      25.373  46.802  51.595  1.00  0.00     0.321 C 
HETATM   16  N   UNL     1      24.946  46.973  50.298  1.00  0.00    -0.307 N 
HETATM   17  O   UNL     1      26.092  47.566  52.226  1.00  0.00    -0.247 OA
HETATM   18  H   UNL     1      24.460  46.190  49.895  1.00  0.00     0.170 HD
HETATM   19  H   UNL     1      24.569  44.906  51.519  1.00  0.00     0.164 HD
BRANCH  16  20
HETATM   20  C   UNL     1      25.178  48.094  49.468  1.00  0.00     0.059 A 
HETATM   21  C   UNL     1      24.083  48.785  48.914  1.00  0.00    -0.032 A 
HETATM   22  C   UNL     1      22.661  48.351  49.126  1.00  0.00     0.050 C 
HETATM   23  C   UNL     1      24.328  49.915  48.119  1.00  0.00     0.028 A 
HETATM   24  C   UNL     1      25.635  50.317  47.899  1.00  0.00     0.117 A 
HETATM   25  N   UNL     1      26.703  49.679  48.409  1.00  0.00    -0.271 NA
HETATM   26  C   UNL     1      26.452  48.586  49.176  1.00  0.00     0.146 A 
ENDBRANCH  16  20
ENDBRANCH   1  14
TORSDOF 6
ENDMDL
MODEL 9
REMARK VINA RESULT:      -7.5      5.787     10.325
REMARK  6 active torsions:
REMARK  status: ('A' for Active; 'I' for Inactive)
REMARK    1  A    between atoms: C_4  and  O_5 
REMARK    2  A    between atoms: O_5  and  C_6 
REMARK    3  A    between atoms: C_6  and  C_7 
REMARK    4  A    between atoms: C_10  and  C_11 
REMARK    5  A    between atoms: C_11  and  N_12 
REMARK       I    between atoms: N_12  and  C_13 
REMARK       I    between atoms: C_13  and  N_14 
REMARK    6  A    between atoms: N_14  and  C_15 
ROOT
HETATM    1  C   UNL     1      19.760  46.133  48.400  1.00  0.00     0.165 C 
ENDROOT
BRANCH   1   2
HETATM    2  C   UNL     1      18.521  46.945  48.095  1.00  0.00    -0.007 A 
HETATM    3  C   UNL     1      17.989  47.895  48.987  1.00  0.00     0.077 A 
HETATM    4  C   UNL     1      16.882  48.665  48.603  1.00  0.00     0.044 A 
HETATM    5  C   UNL     1      16.276  48.486  47.352  1.00  0.00    -0.059 A 
HETATM    6  C   UNL     1      15.104  49.326  46.936  1.00  0.00     0.048 C 
HETATM    7  C   UNL     1      16.806  47.544  46.469  1.00  0.00     0.007 A 
HETATM    8  C   UNL     1      17.918  46.786  46.835  1.00  0.00     0.012 A 
BRANCH   3   9
HETATM    9  O   UNL     1      18.622  48.011  50.201  1.00  0.00    -0.350 OA
BRANCH   9  10
HETATM   10  C   UNL     1      18.795  49.332  50.714  1.00  0.00     0.180 C 
BRANCH  10  11
HETATM   11  C   UNL     1      19.735  50.059  49.801  1.00  0.00     0.010 A 
HETATM   12  C   UNL     1      19.533  51.526  49.516  1.00  0.00     0.007 A 
HETATM   13  C   UNL     1      20.704  51.077  50.346  1.00  0.00     0.007 A 
ENDBRANCH  10  11
ENDBRANCH   9  10
ENDBRANCH   3   9
ENDBRANCH   1   2
BRANCH   1  14
HETATM   14  N   UNL     1      20.760  46.871  49.139  1.00  0.00    -0.339 N 
HETATM   15  C   UNL     1      21.973  47.167  48.562  1.00  0.00     0.321 C 
HETATM   16  N   UNL     1      22.704  48.033  49.342  1.00  0.00    -0.307 N 
HETATM   17  O   UNL     1      22.324  46.686  47.491  1.00  0.00    -0.247 OA
HETATM   18  H   UNL     1      22.216  48.425  50.129  1.00  0.00     0.170 HD
HETATM   19  H   UNL     1      20.381  47.508  49.826  1.00  0.00     0.164 HD
BRANCH  16  20
HETATM   20  C   UNL     1      24.029  48.472  49.112  1.00  0.00     0.059 A 
HETATM   21  C   UNL     1      24.253  49.623  48.333  1.00  0.00    -0.032 A 
HETATM   22  C   UNL     1      23.137  50.391  47.684  1.00  0.00     0.050 C 
HETATM   23  C   UNL     1      25.571  50.065  48.141  1.00  0.00     0.028 A 
HETATM   24  C   UNL     1      26.612  49.357  48.719  1.00  0.00     0.117 A 
HETATM   25  N   UNL     1      26.435  48.252  49.464  1.00  0.00    -0.271 NA
HETATM   26  C   UNL     1      25.154  47.835  49.641  1.00  0.00     0.146 A 
ENDBRANCH  16  20
ENDBRANCH   1  14
TORSDOF 6
ENDMDL
MODEL 10
REMARK VINA RESULT:      -7.5      3.981      6.756
REMARK  6 active torsions:
REMARK  status: ('A' for Active; 'I' for Inactive)
REMARK    1  A    between atoms: C_4  and  O_5 
REMARK    2  A    between atoms: O_5  and  C_6 
REMARK    3  A    between atoms: C_6  and  C_7 
REMARK    4  A    between atoms: C_10  and  C_11 
REMARK    5  A    between atoms: C_11  and  N_12 
REMARK       I    between atoms: N_12  and  C_13 
REMARK       I    between atoms: C_13  and  N_14 
REMARK    6  A    between atoms: N_14  and  C_15 
ROOT
HETATM    1  C   UNL     1      22.691  45.839  48.335  1.00  0.00     0.165 C 
ENDROOT
BRANCH   1   2
HETATM    2  C   UNL     1      23.630  44.867  49.013  1.00  0.00    -0.007 A 
HETATM    3  C   UNL     1      24.875  45.249  49.545  1.00  0.00     0.077 A 
HETATM    4  C   UNL     1      25.658  44.307  50.229  1.00  0.00     0.044 A 
HETATM    5  C   UNL     1      25.234  42.979  50.366  1.00  0.00    -0.059 A 
HETATM    6  C   UNL     1      26.064  41.978  51.116  1.00  0.00     0.048 C 
HETATM    7  C   UNL     1      23.997  42.603  49.838  1.00  0.00     0.007 A 
HETATM    8  C   UNL     1      23.204  43.537  49.173  1.00  0.00     0.012 A 
BRANCH   3   9
HETATM    9  O   UNL     1      25.237  46.562  49.364  1.00  0.00    -0.350 OA
BRANCH   9  10
HETATM   10  C   UNL     1      26.597  46.901  49.642  1.00  0.00     0.180 C 
BRANCH  10  11
HETATM   11  C   UNL     1      26.671  48.387  49.818  1.00  0.00     0.010 A 
HETATM   12  C   UNL     1      27.755  49.179  49.130  1.00  0.00     0.007 A 
HETATM   13  C   UNL     1      26.327  49.314  48.680  1.00  0.00     0.007 A 
ENDBRANCH  10  11
ENDBRANCH   9  10
ENDBRANCH   3   9
ENDBRANCH   1   2
BRANCH   1  14
HETATM   14  N   UNL     1      22.414  47.015  49.130  1.00  0.00    -0.339 N 
HETATM   15  C   UNL     1      21.366  47.844  48.802  1.00  0.00     0.321 C 
HETATM   16  N   UNL     1      21.146  48.788  49.779  1.00  0.00    -0.307 N 
HETATM   17  O   UNL     1      20.742  47.728  47.755  1.00  0.00    -0.247 OA
HETATM   18  H   UNL     1      21.670  48.663  50.629  1.00  0.00     0.170 HD
HETATM   19  H   UNL     1      22.682  46.932  50.101  1.00  0.00     0.164 HD
BRANCH  16  20
HETATM   20  C   UNL     1      20.223  49.858  49.734  1.00  0.00     0.059 A 
HETATM   21  C   UNL     1      20.537  51.015  48.995  1.00  0.00    -0.032 A 
HETATM   22  C   UNL     1      21.847  51.189  48.282  1.00  0.00     0.050 C 
HETATM   23  C   UNL     1      19.596  52.055  48.933  1.00  0.00     0.028 A 
HETATM   24  C   UNL     1      18.391  51.916  49.600  1.00  0.00     0.117 A 
HETATM   25  N   UNL     1      18.060  50.829  50.318  1.00  0.00    -0.271 NA
HETATM   26  C   UNL     1      18.979  49.829  50.370  1.00  0.00     0.146 A 
ENDBRANCH  16  20
ENDBRANCH   1  14
TORSDOF 6
ENDMDL
