MODEL 1
REMARK VINA RESULT:      -8.6      0.000      0.000
REMARK  3 active torsions:
REMARK  status: ('A' for Active; 'I' for Inactive)
REMARK    1  A    between atoms: C_5  and  N_6 
REMARK       I    between atoms: N_6  and  C_7 
REMARK    2  A    between atoms: C_7  and  C_8 
REMARK    3  A    between atoms: C_8  and  C_9 
ROOT
HETATM    1  C   UNL     1      26.426  45.758  52.660  1.00  0.00     0.286 C 
HETATM    2  N   UNL     1      25.659  46.849  51.924  1.00  0.00    -0.056 N 
HETATM    3  H   UNL     1      24.650  46.651  52.099  1.00  0.00     0.278 HD
HETATM    4  H   UNL     1      25.844  47.768  52.342  1.00  0.00     0.278 HD
HETATM    5  C   UNL     1      25.951  46.848  50.445  1.00  0.00     0.209 C 
HETATM    6  C   UNL     1      25.570  45.465  49.853  1.00  0.00     0.115 C 
HETATM    7  N   UNL     1      26.128  44.356  50.629  1.00  0.00    -0.353 N 
HETATM    8  C   UNL     1      26.287  44.372  51.994  1.00  0.00     0.249 C 
HETATM    9  O   UNL     1      26.421  43.321  52.611  1.00  0.00    -0.271 OA
HETATM   10  C   UNL     1      25.213  48.010  49.781  1.00  0.00     0.035 C 
HETATM   11  C   UNL     1      23.709  47.782  49.666  1.00  0.00     0.002 C 
HETATM   12  C   UNL     1      23.399  46.455  48.985  1.00  0.00     0.002 C 
HETATM   13  C   UNL     1      24.051  45.286  49.715  1.00  0.00     0.027 C 
HETATM   14  H   UNL     1      26.057  43.418  50.241  1.00  0.00     0.163 HD
ENDROOT
BRANCH   1  15
HETATM   15  C   UNL     1      26.057  45.716  54.147  1.00  0.00     0.146 C 
BRANCH  15  16
HETATM   16  C   UNL     1      26.519  46.963  54.856  1.00  0.00     0.224 C 
HETATM   17  N   UNL     1      27.633  46.989  55.632  1.00  0.00    -0.327 N 
HETATM   18  H   UNL     1      27.726  47.871  56.128  1.00  0.00     0.169 HD
HETATM   19  O   UNL     1      25.870  48.005  54.692  1.00  0.00    -0.273 OA
BRANCH  17  20
HETATM   20  C   UNL     1      28.648  46.050  55.906  1.00  0.00     0.034 A 
HETATM   21  C   UNL     1      29.096  45.060  55.033  1.00  0.00     0.030 A 
HETATM   22  C   UNL     1      30.119  44.180  55.413  1.00  0.00     0.009 A 
HETATM   23  C   UNL     1      30.714  44.274  56.674  1.00  0.00    -0.062 A 
HETATM   24  C   UNL     1      31.824  43.342  57.059  1.00  0.00     0.048 C 
HETATM   25  C   UNL     1      30.297  45.288  57.537  1.00  0.00     0.009 A 
HETATM   26  C   UNL     1      29.277  46.165  57.155  1.00  0.00     0.030 A 
ENDBRANCH  17  20
ENDBRANCH  15  16
ENDBRANCH   1  15
TORSDOF 3
ENDMDL
MODEL 2
REMARK VINA RESULT:      -8.2      1.908      7.500
REMARK  3 active torsions:
REMARK  status: ('A' for Active; 'I' for Inactive)
REMARK    1  A    between atoms: C_5  and  N_6 
REMARK       I    between atoms: N_6  and  C_7 
REMARK    2  A    between atoms: C_7  and  C_8 
REMARK    3  A    between atoms: C_8  and  C_9 
ROOT
HETATM    1  C   UNL     1      28.632  43.851  54.261  1.00  0.00     0.286 C 
HETATM    2  N   UNL     1      29.642  43.493  55.344  1.00  0.00    -0.056 N 
HETATM    3  H   UNL     1      29.084  43.348  56.213  1.00  0.00     0.278 HD
HETATM    4  H   UNL     1      30.088  42.592  55.139  1.00  0.00     0.278 HD
HETATM    5  C   UNL     1      30.666  44.582  55.546  1.00  0.00     0.209 C 
HETATM    6  C   UNL     1      29.939  45.896  55.937  1.00  0.00     0.115 C 
HETATM    7  N   UNL     1      28.827  46.205  55.036  1.00  0.00    -0.353 N 
HETATM    8  C   UNL     1      28.023  45.258  54.448  1.00  0.00     0.249 C 
HETATM    9  O   UNL     1      26.924  45.571  54.004  1.00  0.00    -0.271 OA
HETATM   10  C   UNL     1      31.689  44.129  56.585  1.00  0.00     0.035 C 
HETATM   11  C   UNL     1      31.144  44.130  58.011  1.00  0.00     0.002 C 
HETATM   12  C   UNL     1      30.535  45.480  58.369  1.00  0.00     0.002 C 
HETATM   13  C   UNL     1      29.438  45.878  57.388  1.00  0.00     0.027 C 
HETATM   14  H   UNL     1      28.382  47.117  55.121  1.00  0.00     0.163 HD
ENDROOT
BRANCH   1  15
HETATM   15  C   UNL     1      27.548  42.775  54.124  1.00  0.00     0.146 C 
BRANCH  15  16
HETATM   16  C   UNL     1      27.735  41.977  52.859  1.00  0.00     0.224 C 
HETATM   17  N   UNL     1      27.243  42.385  51.662  1.00  0.00    -0.327 N 
HETATM   18  H   UNL     1      27.353  41.671  50.947  1.00  0.00     0.169 HD
HETATM   19  O   UNL     1      28.391  40.928  52.919  1.00  0.00    -0.273 OA
BRANCH  17  20
HETATM   20  C   UNL     1      26.596  43.560  51.226  1.00  0.00     0.034 A 
HETATM   21  C   UNL     1      27.196  44.601  50.520  1.00  0.00     0.030 A 
HETATM   22  C   UNL     1      26.452  45.725  50.133  1.00  0.00     0.009 A 
HETATM   23  C   UNL     1      25.094  45.827  50.444  1.00  0.00    -0.062 A 
HETATM   24  C   UNL     1      24.304  47.023  50.002  1.00  0.00     0.048 C 
HETATM   25  C   UNL     1      24.480  44.770  51.115  1.00  0.00     0.009 A 
HETATM   26  C   UNL     1      25.224  43.650  51.500  1.00  0.00     0.030 A 
ENDBRANCH  17  20
ENDBRANCH  15  16
ENDBRANCH   1  15
TORSDOF 3
ENDMDL
MODEL 3
REMARK VINA RESULT:      -8.2      1.313      1.697
REMARK  3 active torsions:
REMARK  status: ('A' for Active; 'I' for Inactive)
REMARK    1  A    between atoms: C_5  and  N_6 
REMARK       I    between atoms: N_6  and  C_7 
REMARK    2  A    between atoms: C_7  and  C_8 
REMARK    3  A    between atoms: C_8  and  C_9 
ROOT
HETATM    1  C   UNL     1      26.691  44.795  53.100  1.00  0.00     0.286 C 
HETATM    2  N   UNL     1      25.751  45.322  52.023  1.00  0.00    -0.056 N 
HETATM    3  H   UNL     1      24.789  45.079  52.346  1.00  0.00     0.278 HD
HETATM    4  H   UNL     1      25.786  46.347  51.981  1.00  0.00     0.278 HD
HETATM    5  C   UNL     1      26.030  44.705  50.676  1.00  0.00     0.209 C 
HETATM    6  C   UNL     1      25.877  43.164  50.781  1.00  0.00     0.115 C 
HETATM    7  N   UNL     1      26.614  42.610  51.919  1.00  0.00    -0.353 N 
HETATM    8  C   UNL     1      26.777  43.254  53.122  1.00  0.00     0.249 C 
HETATM    9  O   UNL     1      27.085  42.619  54.124  1.00  0.00    -0.271 OA
HETATM   10  C   UNL     1      25.108  45.329  49.630  1.00  0.00     0.035 C 
HETATM   11  C   UNL     1      23.660  44.861  49.745  1.00  0.00     0.002 C 
HETATM   12  C   UNL     1      23.568  43.340  49.741  1.00  0.00     0.002 C 
HETATM   13  C   UNL     1      24.407  42.725  50.855  1.00  0.00     0.027 C 
HETATM   14  H   UNL     1      26.695  41.597  51.987  1.00  0.00     0.163 HD
ENDROOT
BRANCH   1  15
HETATM   15  C   UNL     1      26.343  45.366  54.479  1.00  0.00     0.146 C 
BRANCH  15  16
HETATM   16  C   UNL     1      27.041  46.682  54.712  1.00  0.00     0.224 C 
HETATM   17  N   UNL     1      28.256  46.765  55.310  1.00  0.00    -0.327 N 
HETATM   18  H   UNL     1      28.519  47.729  55.497  1.00  0.00     0.169 HD
HETATM   19  O   UNL     1      26.490  47.717  54.310  1.00  0.00    -0.273 OA
BRANCH  17  20
HETATM   20  C   UNL     1      29.195  45.806  55.743  1.00  0.00     0.034 A 
HETATM   21  C   UNL     1      29.702  44.763  54.971  1.00  0.00     0.030 A 
HETATM   22  C   UNL     1      30.638  43.866  55.507  1.00  0.00     0.009 A 
HETATM   23  C   UNL     1      31.085  43.998  56.824  1.00  0.00    -0.062 A 
HETATM   24  C   UNL     1      32.105  43.047  57.377  1.00  0.00     0.048 C 
HETATM   25  C   UNL     1      30.610  45.064  57.588  1.00  0.00     0.009 A 
HETATM   26  C   UNL     1      29.676  45.957  57.051  1.00  0.00     0.030 A 
ENDBRANCH  17  20
ENDBRANCH  15  16
ENDBRANCH   1  15
TORSDOF 3
ENDMDL
MODEL 4
REMARK VINA RESULT:      -8.1     15.299     17.440
REMARK  3 active torsions:
REMARK  status: ('A' for Active; 'I' for Inactive)
REMARK    1  A    between atoms: C_5  and  N_6 
REMARK       I    between atoms: N_6  and  C_7 
REMARK    2  A    between atoms: C_7  and  C_8 
REMARK    3  A    between atoms: C_8  and  C_9 
ROOT
HETATM    1  C   UNL     1      39.689  45.275  64.447  1.00  0.00     0.286 C 
HETATM    2  N   UNL     1      38.563  46.203  64.883  1.00  0.00    -0.056 N 
HETATM    3  H   UNL     1      38.379  46.825  64.066  1.00  0.00     0.278 HD
HETATM    4  H   UNL     1      37.697  45.675  65.038  1.00  0.00     0.278 HD
HETATM    5  C   UNL     1      38.937  47.018  66.096  1.00  0.00     0.209 C 
HETATM    6  C   UNL     1      40.200  47.859  65.773  1.00  0.00     0.115 C 
HETATM    7  N   UNL     1      41.266  47.053  65.174  1.00  0.00    -0.353 N 
HETATM    8  C   UNL     1      41.049  45.995  64.324  1.00  0.00     0.249 C 
HETATM    9  O   UNL     1      41.950  45.596  63.595  1.00  0.00    -0.271 OA
HETATM   10  C   UNL     1      37.742  47.868  66.525  1.00  0.00     0.035 C 
HETATM   11  C   UNL     1      37.475  49.047  65.594  1.00  0.00     0.002 C 
HETATM   12  C   UNL     1      38.726  49.892  65.397  1.00  0.00     0.002 C 
HETATM   13  C   UNL     1      39.888  49.059  64.867  1.00  0.00     0.027 C 
HETATM   14  H   UNL     1      42.182  47.482  65.061  1.00  0.00     0.163 HD
ENDROOT
BRANCH   1  15
HETATM   15  C   UNL     1      39.329  44.515  63.165  1.00  0.00     0.146 C 
BRANCH  15  16
HETATM   16  C   UNL     1      37.927  43.967  63.237  1.00  0.00     0.224 C 
HETATM   17  N   UNL     1      37.669  42.648  63.426  1.00  0.00    -0.327 N 
HETATM   18  H   UNL     1      36.680  42.439  63.325  1.00  0.00     0.169 HD
HETATM   19  O   UNL     1      36.981  44.763  63.151  1.00  0.00    -0.273 OA
BRANCH  17  20
HETATM   20  C   UNL     1      38.482  41.528  63.699  1.00  0.00     0.034 A 
HETATM   21  C   UNL     1      38.820  41.062  64.968  1.00  0.00     0.030 A 
HETATM   22  C   UNL     1      39.636  39.932  65.120  1.00  0.00     0.009 A 
HETATM   23  C   UNL     1      40.128  39.246  64.006  1.00  0.00    -0.062 A 
HETATM   24  C   UNL     1      40.979  38.025  64.183  1.00  0.00     0.048 C 
HETATM   25  C   UNL     1      39.759  39.686  62.734  1.00  0.00     0.009 A 
HETATM   26  C   UNL     1      38.945  40.813  62.585  1.00  0.00     0.030 A 
ENDBRANCH  17  20
ENDBRANCH  15  16
ENDBRANCH   1  15
TORSDOF 3
ENDMDL
MODEL 5
REMARK VINA RESULT:      -8.0      2.050      3.452
REMARK  3 active torsions:
REMARK  status: ('A' for Active; 'I' for Inactive)
REMARK    1  A    between atoms: C_5  and  N_6 
REMARK       I    between atoms: N_6  and  C_7 
REMARK    2  A    between atoms: C_7  and  C_8 
REMARK    3  A    between atoms: C_8  and  C_9 
ROOT
HETATM    1  C   UNL     1      26.303  42.877  52.992  1.00  0.00     0.286 C 
HETATM    2  N   UNL     1      26.589  43.498  51.630  1.00  0.00    -0.056 N 
HETATM    3  H   UNL     1      27.425  44.105  51.768  1.00  0.00     0.278 HD
HETATM    4  H   UNL     1      26.869  42.778  50.955  1.00  0.00     0.278 HD
HETATM    5  C   UNL     1      25.423  44.308  51.121  1.00  0.00     0.209 C 
HETATM    6  C   UNL     1      25.102  45.433  52.141  1.00  0.00     0.115 C 
HETATM    7  N   UNL     1      24.996  44.926  53.511  1.00  0.00    -0.353 N 
HETATM    8  C   UNL     1      25.752  43.894  54.014  1.00  0.00     0.249 C 
HETATM    9  O   UNL     1      25.872  43.752  55.225  1.00  0.00    -0.271 OA
HETATM   10  C   UNL     1      25.745  44.837  49.725  1.00  0.00     0.035 C 
HETATM   11  C   UNL     1      26.764  45.973  49.729  1.00  0.00     0.002 C 
HETATM   12  C   UNL     1      26.341  47.092  50.672  1.00  0.00     0.002 C 
HETATM   13  C   UNL     1      26.125  46.577  52.091  1.00  0.00     0.027 C 
HETATM   14  H   UNL     1      24.646  45.559  54.228  1.00  0.00     0.163 HD
ENDROOT
BRANCH   1  15
HETATM   15  C   UNL     1      27.524  42.126  53.536  1.00  0.00     0.146 C 
BRANCH  15  16
HETATM   16  C   UNL     1      28.768  42.484  52.765  1.00  0.00     0.224 C 
HETATM   17  N   UNL     1      29.708  43.332  53.254  1.00  0.00    -0.327 N 
HETATM   18  H   UNL     1      30.413  43.555  52.556  1.00  0.00     0.169 HD
HETATM   19  O   UNL     1      28.944  41.955  51.658  1.00  0.00    -0.273 OA
BRANCH  17  20
HETATM   20  C   UNL     1      29.887  43.974  54.496  1.00  0.00     0.034 A 
HETATM   21  C   UNL     1      29.171  45.082  54.946  1.00  0.00     0.030 A 
HETATM   22  C   UNL     1      29.432  45.638  56.207  1.00  0.00     0.009 A 
HETATM   23  C   UNL     1      30.413  45.096  57.041  1.00  0.00    -0.062 A 
HETATM   24  C   UNL     1      30.666  45.685  58.396  1.00  0.00     0.048 C 
HETATM   25  C   UNL     1      31.105  43.963  56.611  1.00  0.00     0.009 A 
HETATM   26  C   UNL     1      30.842  43.410  55.353  1.00  0.00     0.030 A 
ENDBRANCH  17  20
ENDBRANCH  15  16
ENDBRANCH   1  15
TORSDOF 3
ENDMDL
MODEL 6
REMARK VINA RESULT:      -8.0      2.163      7.457
REMARK  3 active torsions:
REMARK  status: ('A' for Active; 'I' for Inactive)
REMARK    1  A    between atoms: C_5  and  N_6 
REMARK       I    between atoms: N_6  and  C_7 
REMARK    2  A    between atoms: C_7  and  C_8 
REMARK    3  A    between atoms: C_8  and  C_9 
ROOT
HETATM    1  C   UNL     1      26.431  45.670  53.473  1.00  0.00     0.286 C 
HETATM    2  N   UNL     1      27.893  45.256  53.580  1.00  0.00    -0.056 N 
HETATM    3  H   UNL     1      28.140  44.854  52.650  1.00  0.00     0.278 HD
HETATM    4  H   UNL     1      28.494  46.078  53.703  1.00  0.00     0.278 HD
HETATM    5  C   UNL     1      28.116  44.240  54.672  1.00  0.00     0.209 C 
HETATM    6  C   UNL     1      27.247  42.987  54.386  1.00  0.00     0.115 C 
HETATM    7  N   UNL     1      25.855  43.332  54.090  1.00  0.00    -0.353 N 
HETATM    8  C   UNL     1      25.466  44.465  53.416  1.00  0.00     0.249 C 
HETATM    9  O   UNL     1      24.356  44.525  52.900  1.00  0.00    -0.271 OA
HETATM   10  C   UNL     1      29.607  43.927  54.777  1.00  0.00     0.035 C 
HETATM   11  C   UNL     1      30.125  43.068  53.627  1.00  0.00     0.002 C 
HETATM   12  C   UNL     1      29.294  41.803  53.462  1.00  0.00     0.002 C 
HETATM   13  C   UNL     1      27.819  42.126  53.250  1.00  0.00     0.027 C 
HETATM   14  H   UNL     1      25.177  42.574  54.032  1.00  0.00     0.163 HD
ENDROOT
BRANCH   1  15
HETATM   15  C   UNL     1      26.203  46.637  52.305  1.00  0.00     0.146 C 
BRANCH  15  16
HETATM   16  C   UNL     1      26.425  45.951  50.982  1.00  0.00     0.224 C 
HETATM   17  N   UNL     1      25.855  46.388  49.831  1.00  0.00    -0.327 N 
HETATM   18  H   UNL     1      26.011  45.739  49.064  1.00  0.00     0.169 HD
HETATM   19  O   UNL     1      27.184  44.972  50.950  1.00  0.00    -0.273 OA
BRANCH  17  20
HETATM   20  C   UNL     1      25.081  47.518  49.497  1.00  0.00     0.034 A 
HETATM   21  C   UNL     1      23.696  47.617  49.619  1.00  0.00     0.030 A 
HETATM   22  C   UNL     1      23.029  48.797  49.258  1.00  0.00     0.009 A 
HETATM   23  C   UNL     1      23.736  49.900  48.771  1.00  0.00    -0.062 A 
HETATM   24  C   UNL     1      23.013  51.164  48.412  1.00  0.00     0.048 C 
HETATM   25  C   UNL     1      25.126  49.819  48.685  1.00  0.00     0.009 A 
HETATM   26  C   UNL     1      25.789  48.642  49.046  1.00  0.00     0.030 A 
ENDBRANCH  17  20
ENDBRANCH  15  16
ENDBRANCH   1  15
TORSDOF 3
ENDMDL
MODEL 7
REMARK VINA RESULT:      -8.0     12.485     14.229
REMARK  3 active torsions:
REMARK  status: ('A' for Active; 'I' for Inactive)
REMARK    1  A    between atoms: C_5  and  N_6 
REMARK       I    between atoms: N_6  and  C_7 
REMARK    2  A    between atoms: C_7  and  C_8 
REMARK    3  A    between atoms: C_8  and  C_9 
ROOT
HETATM    1  C   UNL     1      30.812  52.642  41.831  1.00  0.00     0.286 C 
HETATM    2  N   UNL     1      29.736  51.611  41.513  1.00  0.00    -0.056 N 
HETATM    3  H   UNL     1      30.087  51.085  40.684  1.00  0.00     0.278 HD
HETATM    4  H   UNL     1      29.656  50.925  42.272  1.00  0.00     0.278 HD
HETATM    5  C   UNL     1      28.407  52.256  41.209  1.00  0.00     0.209 C 
HETATM    6  C   UNL     1      28.572  53.215  40.000  1.00  0.00     0.115 C 
HETATM    7  N   UNL     1      29.714  54.118  40.160  1.00  0.00    -0.353 N 
HETATM    8  C   UNL     1      30.889  53.774  40.784  1.00  0.00     0.249 C 
HETATM    9  O   UNL     1      31.908  54.425  40.582  1.00  0.00    -0.271 OA
HETATM   10  C   UNL     1      27.358  51.170  40.976  1.00  0.00     0.035 C 
HETATM   11  C   UNL     1      27.519  50.453  39.638  1.00  0.00     0.002 C 
HETATM   12  C   UNL     1      27.572  51.443  38.482  1.00  0.00     0.002 C 
HETATM   13  C   UNL     1      28.691  52.461  38.668  1.00  0.00     0.027 C 
HETATM   14  H   UNL     1      29.818  54.879  39.491  1.00  0.00     0.163 HD
ENDROOT
BRANCH   1  15
HETATM   15  C   UNL     1      32.177  51.980  42.055  1.00  0.00     0.146 C 
BRANCH  15  16
HETATM   16  C   UNL     1      32.159  51.105  43.282  1.00  0.00     0.224 C 
HETATM   17  N   UNL     1      31.732  49.817  43.252  1.00  0.00    -0.327 N 
HETATM   18  H   UNL     1      31.671  49.419  44.185  1.00  0.00     0.169 HD
HETATM   19  O   UNL     1      32.583  51.579  44.346  1.00  0.00    -0.273 OA
BRANCH  17  20
HETATM   20  C   UNL     1      31.335  48.949  42.215  1.00  0.00     0.034 A 
HETATM   21  C   UNL     1      32.188  48.339  41.296  1.00  0.00     0.030 A 
HETATM   22  C   UNL     1      31.680  47.488  40.304  1.00  0.00     0.009 A 
HETATM   23  C   UNL     1      30.310  47.229  40.214  1.00  0.00    -0.062 A 
HETATM   24  C   UNL     1      29.782  46.297  39.164  1.00  0.00     0.048 C 
HETATM   25  C   UNL     1      29.456  47.806  41.155  1.00  0.00     0.009 A 
HETATM   26  C   UNL     1      29.965  48.655  42.144  1.00  0.00     0.030 A 
ENDBRANCH  17  20
ENDBRANCH  15  16
ENDBRANCH   1  15
TORSDOF 3
ENDMDL
MODEL 8
REMARK VINA RESULT:      -8.0      3.028      7.022
REMARK  3 active torsions:
REMARK  status: ('A' for Active; 'I' for Inactive)
REMARK    1  A    between atoms: C_5  and  N_6 
REMARK       I    between atoms: N_6  and  C_7 
REMARK    2  A    between atoms: C_7  and  C_8 
REMARK    3  A    between atoms: C_8  and  C_9 
ROOT
HETATM    1  C   UNL     1      25.645  42.859  51.428  1.00  0.00     0.286 C 
HETATM    2  N   UNL     1      26.570  43.662  52.334  1.00  0.00    -0.056 N 
HETATM    3  H   UNL     1      27.362  43.968  51.728  1.00  0.00     0.278 HD
HETATM    4  H   UNL     1      26.109  44.521  52.653  1.00  0.00     0.278 HD
HETATM    5  C   UNL     1      27.076  42.844  53.495  1.00  0.00     0.209 C 
HETATM    6  C   UNL     1      27.838  41.606  52.952  1.00  0.00     0.115 C 
HETATM    7  N   UNL     1      27.072  40.887  51.931  1.00  0.00    -0.353 N 
HETATM    8  C   UNL     1      26.238  41.492  51.022  1.00  0.00     0.249 C 
HETATM    9  O   UNL     1      25.911  40.903  49.998  1.00  0.00    -0.271 OA
HETATM   10  C   UNL     1      27.932  43.726  54.402  1.00  0.00     0.035 C 
HETATM   11  C   UNL     1      29.299  44.057  53.808  1.00  0.00     0.002 C 
HETATM   12  C   UNL     1      30.039  42.794  53.387  1.00  0.00     0.002 C 
HETATM   13  C   UNL     1      29.224  41.969  52.397  1.00  0.00     0.027 C 
HETATM   14  H   UNL     1      27.423  39.983  51.620  1.00  0.00     0.163 HD
ENDROOT
BRANCH   1  15
HETATM   15  C   UNL     1      25.205  43.674  50.207  1.00  0.00     0.146 C 
BRANCH  15  16
HETATM   16  C   UNL     1      23.895  44.374  50.467  1.00  0.00     0.224 C 
HETATM   17  N   UNL     1      23.761  45.722  50.383  1.00  0.00    -0.327 N 
HETATM   18  H   UNL     1      22.849  46.031  50.709  1.00  0.00     0.169 HD
HETATM   19  O   UNL     1      22.903  43.682  50.734  1.00  0.00    -0.273 OA
BRANCH  17  20
HETATM   20  C   UNL     1      24.622  46.761  49.974  1.00  0.00     0.034 A 
HETATM   21  C   UNL     1      26.011  46.759  50.097  1.00  0.00     0.030 A 
HETATM   22  C   UNL     1      26.770  47.851  49.651  1.00  0.00     0.009 A 
HETATM   23  C   UNL     1      26.154  48.964  49.072  1.00  0.00    -0.062 A 
HETATM   24  C   UNL     1      26.979  50.114  48.576  1.00  0.00     0.048 C 
HETATM   25  C   UNL     1      24.768  48.953  48.910  1.00  0.00     0.009 A 
HETATM   26  C   UNL     1      24.013  47.863  49.356  1.00  0.00     0.030 A 
ENDBRANCH  17  20
ENDBRANCH  15  16
ENDBRANCH   1  15
TORSDOF 3
ENDMDL
MODEL 9
REMARK VINA RESULT:      -7.8      2.841      4.185
REMARK  3 active torsions:
REMARK  status: ('A' for Active; 'I' for Inactive)
REMARK    1  A    between atoms: C_5  and  N_6 
REMARK       I    between atoms: N_6  and  C_7 
REMARK    2  A    between atoms: C_7  and  C_8 
REMARK    3  A    between atoms: C_8  and  C_9 
ROOT
HETATM    1  C   UNL     1      26.395  43.819  51.092  1.00  0.00     0.286 C 
HETATM    2  N   UNL     1      26.763  42.345  51.198  1.00  0.00    -0.056 N 
HETATM    3  H   UNL     1      27.752  42.277  50.874  1.00  0.00     0.278 HD
HETATM    4  H   UNL     1      26.764  42.040  52.178  1.00  0.00     0.278 HD
HETATM    5  C   UNL     1      25.867  41.475  50.352  1.00  0.00     0.209 C 
HETATM    6  C   UNL     1      25.973  41.925  48.871  1.00  0.00     0.115 C 
HETATM    7  N   UNL     1      25.811  43.372  48.718  1.00  0.00    -0.353 N 
HETATM    8  C   UNL     1      26.250  44.300  49.632  1.00  0.00     0.249 C 
HETATM    9  O   UNL     1      26.404  45.469  49.298  1.00  0.00    -0.271 OA
HETATM   10  C   UNL     1      26.238  40.008  50.562  1.00  0.00     0.035 C 
HETATM   11  C   UNL     1      27.552  39.616  49.892  1.00  0.00     0.002 C 
HETATM   12  C   UNL     1      27.555  39.992  48.416  1.00  0.00     0.002 C 
HETATM   13  C   UNL     1      27.289  41.480  48.217  1.00  0.00     0.027 C 
HETATM   14  H   UNL     1      25.720  43.746  47.774  1.00  0.00     0.163 HD
ENDROOT
BRANCH   1  15
HETATM   15  C   UNL     1      27.364  44.700  51.889  1.00  0.00     0.146 C 
BRANCH  15  16
HETATM   16  C   UNL     1      26.642  45.453  52.976  1.00  0.00     0.224 C 
HETATM   17  N   UNL     1      27.111  45.524  54.247  1.00  0.00    -0.327 N 
HETATM   18  H   UNL     1      26.441  45.964  54.872  1.00  0.00     0.169 HD
HETATM   19  O   UNL     1      25.599  46.053  52.680  1.00  0.00    -0.273 OA
BRANCH  17  20
HETATM   20  C   UNL     1      28.301  45.095  54.870  1.00  0.00     0.034 A 
HETATM   21  C   UNL     1      29.058  45.839  55.773  1.00  0.00     0.030 A 
HETATM   22  C   UNL     1      30.228  45.307  56.335  1.00  0.00     0.009 A 
HETATM   23  C   UNL     1      30.660  44.020  56.005  1.00  0.00    -0.062 A 
HETATM   24  C   UNL     1      31.900  43.453  56.632  1.00  0.00     0.048 C 
HETATM   25  C   UNL     1      29.884  43.256  55.133  1.00  0.00     0.009 A 
HETATM   26  C   UNL     1      28.718  43.789  54.574  1.00  0.00     0.030 A 
ENDBRANCH  17  20
ENDBRANCH  15  16
ENDBRANCH   1  15
TORSDOF 3
ENDMDL
MODEL 10
REMARK VINA RESULT:      -7.8     12.216     14.122
REMARK  3 active torsions:
REMARK  status: ('A' for Active; 'I' for Inactive)
REMARK    1  A    between atoms: C_5  and  N_6 
REMARK       I    between atoms: N_6  and  C_7 
REMARK    2  A    between atoms: C_7  and  C_8 
REMARK    3  A    between atoms: C_8  and  C_9 
ROOT
HETATM    1  C   UNL     1      28.396  48.711  40.087  1.00  0.00     0.286 C 
HETATM    2  N   UNL     1      28.762  49.883  39.186  1.00  0.00    -0.056 N 
HETATM    3  H   UNL     1      29.701  50.204  39.508  1.00  0.00     0.278 HD
HETATM    4  H   UNL     1      28.887  49.571  38.217  1.00  0.00     0.278 HD
HETATM    5  C   UNL     1      27.757  51.004  39.279  1.00  0.00     0.209 C 
HETATM    6  C   UNL     1      27.676  51.494  40.749  1.00  0.00     0.115 C 
HETATM    7  N   UNL     1      27.509  50.387  41.694  1.00  0.00    -0.353 N 
HETATM    8  C   UNL     1      28.070  49.142  41.533  1.00  0.00     0.249 C 
HETATM    9  O   UNL     1      28.190  48.392  42.495  1.00  0.00    -0.271 OA
HETATM   10  C   UNL     1      28.140  52.111  38.298  1.00  0.00     0.035 C 
HETATM   11  C   UNL     1      29.353  52.922  38.745  1.00  0.00     0.002 C 
HETATM   12  C   UNL     1      29.170  53.460  40.159  1.00  0.00     0.002 C 
HETATM   13  C   UNL     1      28.894  52.338  41.154  1.00  0.00     0.027 C 
HETATM   14  H   UNL     1      27.300  50.615  42.664  1.00  0.00     0.163 HD
ENDROOT
BRANCH   1  15
HETATM   15  C   UNL     1      29.468  47.615  40.048  1.00  0.00     0.146 C 
BRANCH  15  16
HETATM   16  C   UNL     1      30.628  48.023  39.177  1.00  0.00     0.224 C 
HETATM   17  N   UNL     1      31.564  48.917  39.584  1.00  0.00    -0.327 N 
HETATM   18  H   UNL     1      32.199  49.167  38.830  1.00  0.00     0.169 HD
HETATM   19  O   UNL     1      30.740  47.492  38.063  1.00  0.00    -0.273 OA
BRANCH  17  20
HETATM   20  C   UNL     1      31.811  49.579  40.804  1.00  0.00     0.034 A 
HETATM   21  C   UNL     1      31.682  49.015  42.072  1.00  0.00     0.030 A 
HETATM   22  C   UNL     1      31.959  49.770  43.222  1.00  0.00     0.009 A 
HETATM   23  C   UNL     1      32.371  51.101  43.123  1.00  0.00    -0.062 A 
HETATM   24  C   UNL     1      32.688  51.890  44.359  1.00  0.00     0.048 C 
HETATM   25  C   UNL     1      32.540  51.657  41.855  1.00  0.00     0.009 A 
HETATM   26  C   UNL     1      32.264  50.903  40.710  1.00  0.00     0.030 A 
ENDBRANCH  17  20
ENDBRANCH  15  16
ENDBRANCH   1  15
TORSDOF 3
ENDMDL
