MODEL 1
REMARK VINA RESULT:      -9.0      0.000      0.000
REMARK  6 active torsions:
REMARK  status: ('A' for Active; 'I' for Inactive)
REMARK    1  A    between atoms: C_3  and  N_4 
REMARK    2  A    between atoms: N_4  and  C_5 
REMARK    3  A    between atoms: C_5  and  C_6 
REMARK    4  A    between atoms: N_8  and  C_10 
REMARK    5  A    between atoms: C_10  and  C_11 
REMARK    6  A    between atoms: C_12  and  C_13 
ROOT
HETATM    1  C   UNL     1      24.511  44.995  49.925  1.00  0.00     0.031 C 
HETATM    2  C   UNL     1      25.891  44.547  49.426  1.00  0.00     0.241 C 
HETATM    3  N   UNL     1      26.271  43.361  50.294  1.00  0.00    -0.067 N 
HETATM    4  H   UNL     1      26.395  42.549  49.673  1.00  0.00     0.280 HD
HETATM    5  C   UNL     1      25.092  43.041  51.186  1.00  0.00     0.235 C 
HETATM    6  C   UNL     1      23.925  43.698  50.479  1.00  0.00     0.035 C 
ENDROOT
BRANCH   3   7
HETATM    7  C   UNL     1      27.598  43.507  51.008  1.00  0.00     0.277 C 
BRANCH   7   8
HETATM    8  C   UNL     1      27.959  42.335  51.844  1.00  0.00     0.016 A 
HETATM    9  C   UNL     1      28.379  42.332  53.213  1.00  0.00     0.102 A 
HETATM   10  N   UNL     1      28.556  41.079  53.646  1.00  0.00    -0.174 NA
HETATM   11  N   UNL     1      28.386  40.302  52.574  1.00  0.00    -0.288 N 
HETATM   12  H   UNL     1      28.544  39.301  52.675  1.00  0.00     0.188 HD
HETATM   13  C   UNL     1      27.998  41.003  51.468  1.00  0.00     0.120 A 
BRANCH   9  14
HETATM   14  C   UNL     1      28.605  43.448  54.122  1.00  0.00     0.072 A 
HETATM   15  C   UNL     1      27.574  44.313  54.499  1.00  0.00     0.132 A 
HETATM   16  F   UNL     1      26.343  44.175  53.975  1.00  0.00    -0.205 F 
HETATM   17  C   UNL     1      27.793  45.359  55.395  1.00  0.00     0.043 A 
HETATM   18  C   UNL     1      29.065  45.559  55.931  1.00  0.00     0.006 A 
HETATM   19  C   UNL     1      30.110  44.714  55.559  1.00  0.00     0.043 A 
HETATM   20  C   UNL     1      29.875  43.671  54.663  1.00  0.00     0.132 A 
HETATM   21  F   UNL     1      30.914  42.907  54.297  1.00  0.00    -0.205 F 
ENDBRANCH   9  14
ENDBRANCH   7   8
ENDBRANCH   3   7
BRANCH   1  22
HETATM   22  C   UNL     1      24.625  46.132  50.961  1.00  0.00     0.127 C 
BRANCH  22  23
HETATM   23  N   UNL     1      24.149  47.400  50.411  1.00  0.00    -0.376 N 
HETATM   24  H   UNL     1      23.142  47.513  50.339  1.00  0.00     0.161 HD
BRANCH  23  25
HETATM   25  C   UNL     1      24.959  48.220  49.651  1.00  0.00     0.100 A 
HETATM   26  C   UNL     1      26.360  48.237  49.715  1.00  0.00     0.048 A 
HETATM   27  C   UNL     1      27.092  49.124  48.927  1.00  0.00     0.005 A 
HETATM   28  C   UNL     1      26.426  50.009  48.092  1.00  0.00     0.017 A 
HETATM   29  C   UNL     1      25.042  49.982  48.064  1.00  0.00     0.089 A 
HETATM   30  N   UNL     1      24.369  49.105  48.826  1.00  0.00    -0.353 N 
HETATM   31  H   UNL     1      23.354  49.125  48.794  1.00  0.00     0.166 HD
ENDBRANCH  23  25
ENDBRANCH  22  23
ENDBRANCH   1  22
TORSDOF 6
ENDMDL
MODEL 2
REMARK VINA RESULT:      -8.7      3.595      6.585
REMARK  6 active torsions:
REMARK  status: ('A' for Active; 'I' for Inactive)
REMARK    1  A    between atoms: C_3  and  N_4 
REMARK    2  A    between atoms: N_4  and  C_5 
REMARK    3  A    between atoms: C_5  and  C_6 
REMARK    4  A    between atoms: N_8  and  C_10 
REMARK    5  A    between atoms: C_10  and  C_11 
REMARK    6  A    between atoms: C_12  and  C_13 
ROOT
HETATM    1  C   UNL     1      28.021  41.978  51.449  1.00  0.00     0.031 C 
HETATM    2  C   UNL     1      28.220  43.314  52.177  1.00  0.00     0.241 C 
HETATM    3  N   UNL     1      28.240  42.973  53.656  1.00  0.00    -0.067 N 
HETATM    4  H   UNL     1      29.153  43.264  54.030  1.00  0.00     0.280 HD
HETATM    5  C   UNL     1      28.186  41.466  53.785  1.00  0.00     0.235 C 
HETATM    6  C   UNL     1      28.637  40.978  52.425  1.00  0.00     0.035 C 
ENDROOT
BRANCH   3   7
HETATM    7  C   UNL     1      27.223  43.726  54.487  1.00  0.00     0.277 C 
BRANCH   7   8
HETATM    8  C   UNL     1      27.446  45.193  54.520  1.00  0.00     0.016 A 
HETATM    9  C   UNL     1      28.419  45.913  55.286  1.00  0.00     0.102 A 
HETATM   10  N   UNL     1      28.361  47.220  55.006  1.00  0.00    -0.174 NA
HETATM   11  N   UNL     1      27.313  47.366  54.192  1.00  0.00    -0.288 N 
HETATM   12  H   UNL     1      27.051  48.308  53.908  1.00  0.00     0.188 HD
HETATM   13  C   UNL     1      26.742  46.175  53.844  1.00  0.00     0.120 A 
BRANCH   9  14
HETATM   14  C   UNL     1      29.396  45.424  56.250  1.00  0.00     0.072 A 
HETATM   15  C   UNL     1      30.440  44.576  55.874  1.00  0.00     0.132 A 
HETATM   16  F   UNL     1      30.536  44.129  54.610  1.00  0.00    -0.205 F 
HETATM   17  C   UNL     1      31.391  44.139  56.798  1.00  0.00     0.043 A 
HETATM   18  C   UNL     1      31.305  44.549  58.128  1.00  0.00     0.006 A 
HETATM   19  C   UNL     1      30.263  45.387  58.525  1.00  0.00     0.043 A 
HETATM   20  C   UNL     1      29.322  45.817  57.589  1.00  0.00     0.132 A 
HETATM   21  F   UNL     1      28.312  46.587  58.019  1.00  0.00    -0.205 F 
ENDBRANCH   9  14
ENDBRANCH   7   8
ENDBRANCH   3   7
BRANCH   1  22
HETATM   22  C   UNL     1      26.533  41.721  51.135  1.00  0.00     0.127 C 
BRANCH  22  23
HETATM   23  N   UNL     1      26.230  40.291  51.136  1.00  0.00    -0.376 N 
HETATM   24  H   UNL     1      26.159  39.843  52.045  1.00  0.00     0.161 HD
BRANCH  23  25
HETATM   25  C   UNL     1      26.440  39.497  50.026  1.00  0.00     0.100 A 
HETATM   26  C   UNL     1      26.523  39.972  48.709  1.00  0.00     0.048 A 
HETATM   27  C   UNL     1      26.707  39.086  47.649  1.00  0.00     0.005 A 
HETATM   28  C   UNL     1      26.786  37.724  47.899  1.00  0.00     0.017 A 
HETATM   29  C   UNL     1      26.682  37.283  49.208  1.00  0.00     0.089 A 
HETATM   30  N   UNL     1      26.518  38.165  50.206  1.00  0.00    -0.353 N 
HETATM   31  H   UNL     1      26.428  37.805  51.151  1.00  0.00     0.166 HD
ENDBRANCH  23  25
ENDBRANCH  22  23
ENDBRANCH   1  22
TORSDOF 6
ENDMDL
MODEL 3
REMARK VINA RESULT:      -8.7      2.759      6.508
REMARK  6 active torsions:
REMARK  status: ('A' for Active; 'I' for Inactive)
REMARK    1  A    between atoms: C_3  and  N_4 
REMARK    2  A    between atoms: N_4  and  C_5 
REMARK    3  A    between atoms: C_5  and  C_6 
REMARK    4  A    between atoms: N_8  and  C_10 
REMARK    5  A    between atoms: C_10  and  C_11 
REMARK    6  A    between atoms: C_12  and  C_13 
ROOT
HETATM    1  C   UNL     1      28.791  41.866  53.680  1.00  0.00     0.031 C 
HETATM    2  C   UNL     1      27.387  42.303  53.242  1.00  0.00     0.241 C 
HETATM    3  N   UNL     1      27.183  41.695  51.866  1.00  0.00    -0.067 N 
HETATM    4  H   UNL     1      26.369  41.066  51.921  1.00  0.00     0.280 HD
HETATM    5  C   UNL     1      28.379  40.818  51.564  1.00  0.00     0.235 C 
HETATM    6  C   UNL     1      28.974  40.549  52.930  1.00  0.00     0.035 C 
ENDROOT
BRANCH   3   7
HETATM    7  C   UNL     1      26.828  42.693  50.785  1.00  0.00     0.277 C 
BRANCH   7   8
HETATM    8  C   UNL     1      25.381  43.013  50.719  1.00  0.00     0.016 A 
HETATM    9  C   UNL     1      24.702  44.127  51.312  1.00  0.00     0.102 A 
HETATM   10  N   UNL     1      23.406  44.116  50.982  1.00  0.00    -0.174 NA
HETATM   11  N   UNL     1      23.217  42.977  50.310  1.00  0.00    -0.288 N 
HETATM   12  H   UNL     1      22.270  42.741  50.020  1.00  0.00     0.188 HD
HETATM   13  C   UNL     1      24.377  42.288  50.099  1.00  0.00     0.120 A 
BRANCH   9  14
HETATM   14  C   UNL     1      25.222  45.193  52.157  1.00  0.00     0.072 A 
HETATM   15  C   UNL     1      25.288  45.067  53.547  1.00  0.00     0.132 A 
HETATM   16  F   UNL     1      24.806  43.969  54.156  1.00  0.00    -0.205 F 
HETATM   17  C   UNL     1      25.818  46.081  54.345  1.00  0.00     0.043 A 
HETATM   18  C   UNL     1      26.293  47.251  53.755  1.00  0.00     0.006 A 
HETATM   19  C   UNL     1      26.227  47.402  52.371  1.00  0.00     0.043 A 
HETATM   20  C   UNL     1      25.696  46.378  51.585  1.00  0.00     0.132 A 
HETATM   21  F   UNL     1      25.610  46.578  50.262  1.00  0.00    -0.205 F 
ENDBRANCH   9  14
ENDBRANCH   7   8
ENDBRANCH   3   7
BRANCH   1  22
HETATM   22  C   UNL     1      29.848  42.937  53.345  1.00  0.00     0.127 C 
BRANCH  22  23
HETATM   23  N   UNL     1      30.690  43.232  54.503  1.00  0.00    -0.376 N 
HETATM   24  H   UNL     1      31.407  42.548  54.728  1.00  0.00     0.161 HD
BRANCH  23  25
HETATM   25  C   UNL     1      30.304  44.127  55.481  1.00  0.00     0.100 A 
HETATM   26  C   UNL     1      29.287  45.081  55.333  1.00  0.00     0.048 A 
HETATM   27  C   UNL     1      28.989  45.963  56.371  1.00  0.00     0.005 A 
HETATM   28  C   UNL     1      29.721  45.908  57.548  1.00  0.00     0.017 A 
HETATM   29  C   UNL     1      30.732  44.969  57.658  1.00  0.00     0.089 A 
HETATM   30  N   UNL     1      30.982  44.126  56.644  1.00  0.00    -0.353 N 
HETATM   31  H   UNL     1      31.743  43.461  56.752  1.00  0.00     0.166 HD
ENDBRANCH  23  25
ENDBRANCH  22  23
ENDBRANCH   1  22
TORSDOF 6
ENDMDL
MODEL 4
REMARK VINA RESULT:      -8.6      2.249      4.543
REMARK  6 active torsions:
REMARK  status: ('A' for Active; 'I' for Inactive)
REMARK    1  A    between atoms: C_3  and  N_4 
REMARK    2  A    between atoms: N_4  and  C_5 
REMARK    3  A    between atoms: C_5  and  C_6 
REMARK    4  A    between atoms: N_8  and  C_10 
REMARK    5  A    between atoms: C_10  and  C_11 
REMARK    6  A    between atoms: C_12  and  C_13 
ROOT
HETATM    1  C   UNL     1      28.397  41.969  51.509  1.00  0.00     0.031 C 
HETATM    2  C   UNL     1      28.637  43.176  52.426  1.00  0.00     0.241 C 
HETATM    3  N   UNL     1      28.345  42.683  53.831  1.00  0.00    -0.067 N 
HETATM    4  H   UNL     1      29.207  42.791  54.384  1.00  0.00     0.280 HD
HETATM    5  C   UNL     1      28.071  41.197  53.755  1.00  0.00     0.235 C 
HETATM    6  C   UNL     1      28.690  40.790  52.434  1.00  0.00     0.035 C 
ENDROOT
BRANCH   3   7
HETATM    7  C   UNL     1      27.305  43.492  54.577  1.00  0.00     0.277 C 
BRANCH   7   8
HETATM    8  C   UNL     1      27.530  44.957  54.516  1.00  0.00     0.016 A 
HETATM    9  C   UNL     1      28.503  45.723  55.237  1.00  0.00     0.102 A 
HETATM   10  N   UNL     1      28.447  47.009  54.874  1.00  0.00    -0.174 NA
HETATM   11  N   UNL     1      27.400  47.105  54.051  1.00  0.00    -0.288 N 
HETATM   12  H   UNL     1      27.140  48.028  53.708  1.00  0.00     0.188 HD
HETATM   13  C   UNL     1      26.828  45.895  53.779  1.00  0.00     0.120 A 
BRANCH   9  14
HETATM   14  C   UNL     1      29.478  45.295  56.230  1.00  0.00     0.072 A 
HETATM   15  C   UNL     1      30.544  44.454  55.902  1.00  0.00     0.132 A 
HETATM   16  F   UNL     1      30.663  43.957  54.658  1.00  0.00    -0.205 F 
HETATM   17  C   UNL     1      31.492  44.076  56.853  1.00  0.00     0.043 A 
HETATM   18  C   UNL     1      31.383  44.539  58.164  1.00  0.00     0.006 A 
HETATM   19  C   UNL     1      30.320  45.370  58.514  1.00  0.00     0.043 A 
HETATM   20  C   UNL     1      29.381  45.742  57.551  1.00  0.00     0.132 A 
HETATM   21  F   UNL     1      28.350  46.508  57.937  1.00  0.00    -0.205 F 
ENDBRANCH   9  14
ENDBRANCH   7   8
ENDBRANCH   3   7
BRANCH   1  22
HETATM   22  C   UNL     1      26.969  41.976  50.927  1.00  0.00     0.127 C 
BRANCH  22  23
HETATM   23  N   UNL     1      26.842  42.952  49.846  1.00  0.00    -0.376 N 
HETATM   24  H   UNL     1      27.428  42.803  49.029  1.00  0.00     0.161 HD
BRANCH  23  25
HETATM   25  C   UNL     1      26.309  44.209  50.052  1.00  0.00     0.100 A 
HETATM   26  C   UNL     1      26.986  45.413  49.807  1.00  0.00     0.048 A 
HETATM   27  C   UNL     1      26.372  46.635  50.075  1.00  0.00     0.005 A 
HETATM   28  C   UNL     1      25.090  46.657  50.608  1.00  0.00     0.017 A 
HETATM   29  C   UNL     1      24.454  45.453  50.856  1.00  0.00     0.089 A 
HETATM   30  N   UNL     1      25.070  44.294  50.573  1.00  0.00    -0.353 N 
HETATM   31  H   UNL     1      24.581  43.429  50.784  1.00  0.00     0.166 HD
ENDBRANCH  23  25
ENDBRANCH  22  23
ENDBRANCH   1  22
TORSDOF 6
ENDMDL
MODEL 5
REMARK VINA RESULT:      -8.6     11.596     13.683
REMARK  6 active torsions:
REMARK  status: ('A' for Active; 'I' for Inactive)
REMARK    1  A    between atoms: C_3  and  N_4 
REMARK    2  A    between atoms: N_4  and  C_5 
REMARK    3  A    between atoms: C_5  and  C_6 
REMARK    4  A    between atoms: N_8  and  C_10 
REMARK    5  A    between atoms: C_10  and  C_11 
REMARK    6  A    between atoms: C_12  and  C_13 
ROOT
HETATM    1  C   UNL     1      29.208  53.131  40.837  1.00  0.00     0.031 C 
HETATM    2  C   UNL     1      29.159  52.865  39.327  1.00  0.00     0.241 C 
HETATM    3  N   UNL     1      28.184  51.715  39.149  1.00  0.00    -0.067 N 
HETATM    4  H   UNL     1      27.411  52.051  38.556  1.00  0.00     0.280 HD
HETATM    5  C   UNL     1      27.579  51.405  40.501  1.00  0.00     0.235 C 
HETATM    6  C   UNL     1      27.828  52.669  41.298  1.00  0.00     0.035 C 
ENDROOT
BRANCH   3   7
HETATM    7  C   UNL     1      28.749  50.522  38.409  1.00  0.00     0.277 C 
BRANCH   7   8
HETATM    8  C   UNL     1      28.133  49.229  38.799  1.00  0.00     0.016 A 
HETATM    9  C   UNL     1      28.613  48.289  39.767  1.00  0.00     0.102 A 
HETATM   10  N   UNL     1      27.757  47.269  39.893  1.00  0.00    -0.174 NA
HETATM   11  N   UNL     1      26.825  47.465  38.958  1.00  0.00    -0.288 N 
HETATM   12  H   UNL     1      26.104  46.756  38.839  1.00  0.00     0.188 HD
HETATM   13  C   UNL     1      26.987  48.645  38.288  1.00  0.00     0.120 A 
BRANCH   9  14
HETATM   14  C   UNL     1      29.824  48.319  40.577  1.00  0.00     0.072 A 
HETATM   15  C   UNL     1      29.805  48.715  41.917  1.00  0.00     0.132 A 
HETATM   16  F   UNL     1      28.665  49.147  42.484  1.00  0.00    -0.205 F 
HETATM   17  C   UNL     1      30.963  48.709  42.694  1.00  0.00     0.043 A 
HETATM   18  C   UNL     1      32.173  48.304  42.131  1.00  0.00     0.006 A 
HETATM   19  C   UNL     1      32.215  47.916  40.793  1.00  0.00     0.043 A 
HETATM   20  C   UNL     1      31.048  47.924  40.029  1.00  0.00     0.132 A 
HETATM   21  F   UNL     1      31.137  47.585  38.735  1.00  0.00    -0.205 F 
ENDBRANCH   9  14
ENDBRANCH   7   8
ENDBRANCH   3   7
BRANCH   1  22
HETATM   22  C   UNL     1      30.381  52.386  41.506  1.00  0.00     0.127 C 
BRANCH  22  23
HETATM   23  N   UNL     1      31.555  52.356  40.635  1.00  0.00    -0.376 N 
HETATM   24  H   UNL     1      31.383  52.449  39.638  1.00  0.00     0.161 HD
BRANCH  23  25
HETATM   25  C   UNL     1      32.760  51.822  41.047  1.00  0.00     0.100 A 
HETATM   26  C   UNL     1      33.668  51.162  40.207  1.00  0.00     0.048 A 
HETATM   27  C   UNL     1      34.849  50.629  40.724  1.00  0.00     0.005 A 
HETATM   28  C   UNL     1      35.112  50.735  42.082  1.00  0.00     0.017 A 
HETATM   29  C   UNL     1      34.188  51.376  42.889  1.00  0.00     0.089 A 
HETATM   30  N   UNL     1      33.068  51.889  42.356  1.00  0.00    -0.353 N 
HETATM   31  H   UNL     1      32.404  52.337  42.980  1.00  0.00     0.166 HD
ENDBRANCH  23  25
ENDBRANCH  22  23
ENDBRANCH   1  22
TORSDOF 6
ENDMDL
MODEL 6
REMARK VINA RESULT:      -8.5     11.605     13.718
REMARK  6 active torsions:
REMARK  status: ('A' for Active; 'I' for Inactive)
REMARK    1  A    between atoms: C_3  and  N_4 
REMARK    2  A    between atoms: N_4  and  C_5 
REMARK    3  A    between atoms: C_5  and  C_6 
REMARK    4  A    between atoms: N_8  and  C_10 
REMARK    5  A    between atoms: C_10  and  C_11 
REMARK    6  A    between atoms: C_12  and  C_13 
ROOT
HETATM    1  C   UNL     1      29.225  53.110  40.864  1.00  0.00     0.031 C 
HETATM    2  C   UNL     1      29.182  52.845  39.354  1.00  0.00     0.241 C 
HETATM    3  N   UNL     1      28.191  51.710  39.169  1.00  0.00    -0.067 N 
HETATM    4  H   UNL     1      27.428  52.057  38.571  1.00  0.00     0.280 HD
HETATM    5  C   UNL     1      27.573  51.408  40.517  1.00  0.00     0.235 C 
HETATM    6  C   UNL     1      27.835  52.668  41.315  1.00  0.00     0.035 C 
ENDROOT
BRANCH   3   7
HETATM    7  C   UNL     1      28.744  50.509  38.431  1.00  0.00     0.277 C 
BRANCH   7   8
HETATM    8  C   UNL     1      28.106  49.225  38.816  1.00  0.00     0.016 A 
HETATM    9  C   UNL     1      28.578  48.263  39.767  1.00  0.00     0.102 A 
HETATM   10  N   UNL     1      27.702  47.261  39.892  1.00  0.00    -0.174 NA
HETATM   11  N   UNL     1      26.762  47.488  38.972  1.00  0.00    -0.288 N 
HETATM   12  H   UNL     1      26.024  46.796  38.856  1.00  0.00     0.188 HD
HETATM   13  C   UNL     1      26.940  48.672  38.314  1.00  0.00     0.120 A 
BRANCH   9  14
HETATM   14  C   UNL     1      29.800  48.258  40.560  1.00  0.00     0.072 A 
HETATM   15  C   UNL     1      31.025  47.852  40.024  1.00  0.00     0.132 A 
HETATM   16  F   UNL     1      31.098  47.388  38.764  1.00  0.00    -0.205 F 
HETATM   17  C   UNL     1      32.196  47.882  40.782  1.00  0.00     0.043 A 
HETATM   18  C   UNL     1      32.155  48.321  42.104  1.00  0.00     0.006 A 
HETATM   19  C   UNL     1      30.941  48.720  42.661  1.00  0.00     0.043 A 
HETATM   20  C   UNL     1      29.778  48.687  41.890  1.00  0.00     0.132 A 
HETATM   21  F   UNL     1      28.623  49.038  42.474  1.00  0.00    -0.205 F 
ENDBRANCH   9  14
ENDBRANCH   7   8
ENDBRANCH   3   7
BRANCH   1  22
HETATM   22  C   UNL     1      30.382  52.348  41.540  1.00  0.00     0.127 C 
BRANCH  22  23
HETATM   23  N   UNL     1      31.497  52.149  40.616  1.00  0.00    -0.376 N 
HETATM   24  H   UNL     1      31.258  52.031  39.635  1.00  0.00     0.161 HD
BRANCH  23  25
HETATM   25  C   UNL     1      32.739  51.725  41.045  1.00  0.00     0.100 A 
HETATM   26  C   UNL     1      33.719  51.159  40.217  1.00  0.00     0.048 A 
HETATM   27  C   UNL     1      34.934  50.732  40.750  1.00  0.00     0.005 A 
HETATM   28  C   UNL     1      35.164  50.850  42.114  1.00  0.00     0.017 A 
HETATM   29  C   UNL     1      34.171  51.396  42.909  1.00  0.00     0.089 A 
HETATM   30  N   UNL     1      33.017  51.809  42.359  1.00  0.00    -0.353 N 
HETATM   31  H   UNL     1      32.304  52.188  42.976  1.00  0.00     0.166 HD
ENDBRANCH  23  25
ENDBRANCH  22  23
ENDBRANCH   1  22
TORSDOF 6
ENDMDL
MODEL 7
REMARK VINA RESULT:      -8.5      1.456      2.144
REMARK  6 active torsions:
REMARK  status: ('A' for Active; 'I' for Inactive)
REMARK    1  A    between atoms: C_3  and  N_4 
REMARK    2  A    between atoms: N_4  and  C_5 
REMARK    3  A    between atoms: C_5  and  C_6 
REMARK    4  A    between atoms: N_8  and  C_10 
REMARK    5  A    between atoms: C_10  and  C_11 
REMARK    6  A    between atoms: C_12  and  C_13 
ROOT
HETATM    1  C   UNL     1      24.614  46.378  50.930  1.00  0.00     0.031 C 
HETATM    2  C   UNL     1      24.936  44.905  51.215  1.00  0.00     0.241 C 
HETATM    3  N   UNL     1      26.239  44.918  51.993  1.00  0.00    -0.067 N 
HETATM    4  H   UNL     1      26.060  44.483  52.909  1.00  0.00     0.280 HD
HETATM    5  C   UNL     1      26.602  46.360  52.270  1.00  0.00     0.235 C 
HETATM    6  C   UNL     1      25.288  47.094  52.099  1.00  0.00     0.035 C 
ENDROOT
BRANCH   3   7
HETATM    7  C   UNL     1      27.344  44.084  51.379  1.00  0.00     0.277 C 
BRANCH   7   8
HETATM    8  C   UNL     1      27.495  42.743  51.997  1.00  0.00     0.016 A 
HETATM    9  C   UNL     1      28.142  42.416  53.232  1.00  0.00     0.102 A 
HETATM   10  N   UNL     1      28.022  41.110  53.492  1.00  0.00    -0.174 NA
HETATM   11  N   UNL     1      27.436  40.582  52.414  1.00  0.00    -0.288 N 
HETATM   12  H   UNL     1      27.310  39.572  52.381  1.00  0.00     0.188 HD
HETATM   13  C   UNL     1      27.072  41.524  51.495  1.00  0.00     0.120 A 
BRANCH   9  14
HETATM   14  C   UNL     1      28.850  43.276  54.171  1.00  0.00     0.072 A 
HETATM   15  C   UNL     1      28.176  44.195  54.979  1.00  0.00     0.132 A 
HETATM   16  F   UNL     1      26.846  44.359  54.865  1.00  0.00    -0.205 F 
HETATM   17  C   UNL     1      28.859  44.992  55.899  1.00  0.00     0.043 A 
HETATM   18  C   UNL     1      30.243  44.880  56.021  1.00  0.00     0.006 A 
HETATM   19  C   UNL     1      30.935  43.977  55.215  1.00  0.00     0.043 A 
HETATM   20  C   UNL     1      30.238  43.185  54.302  1.00  0.00     0.132 A 
HETATM   21  F   UNL     1      30.944  42.359  53.516  1.00  0.00    -0.205 F 
ENDBRANCH   9  14
ENDBRANCH   7   8
ENDBRANCH   3   7
BRANCH   1  22
HETATM   22  C   UNL     1      25.127  46.811  49.542  1.00  0.00     0.127 C 
BRANCH  22  23
HETATM   23  N   UNL     1      25.268  48.264  49.459  1.00  0.00    -0.376 N 
HETATM   24  H   UNL     1      26.019  48.679  50.004  1.00  0.00     0.161 HD
BRANCH  23  25
HETATM   25  C   UNL     1      24.236  49.078  49.035  1.00  0.00     0.100 A 
HETATM   26  C   UNL     1      24.374  50.127  48.115  1.00  0.00     0.048 A 
HETATM   27  C   UNL     1      23.276  50.914  47.771  1.00  0.00     0.005 A 
HETATM   28  C   UNL     1      22.044  50.667  48.361  1.00  0.00     0.017 A 
HETATM   29  C   UNL     1      21.942  49.636  49.279  1.00  0.00     0.089 A 
HETATM   30  N   UNL     1      23.018  48.890  49.577  1.00  0.00    -0.353 N 
HETATM   31  H   UNL     1      22.911  48.153  50.268  1.00  0.00     0.166 HD
ENDBRANCH  23  25
ENDBRANCH  22  23
ENDBRANCH   1  22
TORSDOF 6
ENDMDL
MODEL 8
REMARK VINA RESULT:      -8.4      3.039      8.262
REMARK  6 active torsions:
REMARK  status: ('A' for Active; 'I' for Inactive)
REMARK    1  A    between atoms: C_3  and  N_4 
REMARK    2  A    between atoms: N_4  and  C_5 
REMARK    3  A    between atoms: C_5  and  C_6 
REMARK    4  A    between atoms: N_8  and  C_10 
REMARK    5  A    between atoms: C_10  and  C_11 
REMARK    6  A    between atoms: C_12  and  C_13 
ROOT
HETATM    1  C   UNL     1      25.930  43.948  51.473  1.00  0.00     0.031 C 
HETATM    2  C   UNL     1      24.917  45.052  51.802  1.00  0.00     0.241 C 
HETATM    3  N   UNL     1      24.947  45.997  50.615  1.00  0.00    -0.067 N 
HETATM    4  H   UNL     1      24.002  46.015  50.207  1.00  0.00     0.280 HD
HETATM    5  C   UNL     1      25.853  45.395  49.564  1.00  0.00     0.235 C 
HETATM    6  C   UNL     1      25.914  43.931  49.946  1.00  0.00     0.035 C 
ENDROOT
BRANCH   3   7
HETATM    7  C   UNL     1      25.243  47.439  50.969  1.00  0.00     0.277 C 
BRANCH   7   8
HETATM    8  C   UNL     1      25.672  48.263  49.812  1.00  0.00     0.016 A 
HETATM    9  C   UNL     1      24.844  49.018  48.919  1.00  0.00     0.102 A 
HETATM   10  N   UNL     1      25.594  49.685  48.036  1.00  0.00    -0.174 NA
HETATM   11  N   UNL     1      26.848  49.283  48.255  1.00  0.00    -0.288 N 
HETATM   12  H   UNL     1      27.580  49.628  47.636  1.00  0.00     0.188 HD
HETATM   13  C   UNL     1      26.957  48.449  49.331  1.00  0.00     0.120 A 
BRANCH   9  14
HETATM   14  C   UNL     1      23.393  49.145  48.875  1.00  0.00     0.072 A 
HETATM   15  C   UNL     1      22.748  50.343  49.193  1.00  0.00     0.132 A 
HETATM   16  F   UNL     1      23.453  51.406  49.617  1.00  0.00    -0.205 F 
HETATM   17  C   UNL     1      21.360  50.464  49.116  1.00  0.00     0.043 A 
HETATM   18  C   UNL     1      20.590  49.373  48.718  1.00  0.00     0.006 A 
HETATM   19  C   UNL     1      21.214  48.165  48.407  1.00  0.00     0.043 A 
HETATM   20  C   UNL     1      22.602  48.060  48.486  1.00  0.00     0.132 A 
HETATM   21  F   UNL     1      23.161  46.870  48.221  1.00  0.00    -0.205 F 
ENDBRANCH   9  14
ENDBRANCH   7   8
ENDBRANCH   3   7
BRANCH   1  22
HETATM   22  C   UNL     1      27.312  44.247  52.088  1.00  0.00     0.127 C 
BRANCH  22  23
HETATM   23  N   UNL     1      27.441  43.650  53.417  1.00  0.00    -0.376 N 
HETATM   24  H   UNL     1      26.587  43.303  53.843  1.00  0.00     0.161 HD
BRANCH  23  25
HETATM   25  C   UNL     1      28.527  43.903  54.232  1.00  0.00     0.100 A 
HETATM   26  C   UNL     1      29.597  43.019  54.432  1.00  0.00     0.048 A 
HETATM   27  C   UNL     1      30.636  43.353  55.299  1.00  0.00     0.005 A 
HETATM   28  C   UNL     1      30.597  44.559  55.984  1.00  0.00     0.017 A 
HETATM   29  C   UNL     1      29.519  45.404  55.780  1.00  0.00     0.089 A 
HETATM   30  N   UNL     1      28.542  45.056  54.927  1.00  0.00    -0.353 N 
HETATM   31  H   UNL     1      27.758  45.692  54.815  1.00  0.00     0.166 HD
ENDBRANCH  23  25
ENDBRANCH  22  23
ENDBRANCH   1  22
TORSDOF 6
ENDMDL
MODEL 9
REMARK VINA RESULT:      -8.3     12.071     14.345
REMARK  6 active torsions:
REMARK  status: ('A' for Active; 'I' for Inactive)
REMARK    1  A    between atoms: C_3  and  N_4 
REMARK    2  A    between atoms: N_4  and  C_5 
REMARK    3  A    between atoms: C_5  and  C_6 
REMARK    4  A    between atoms: N_8  and  C_10 
REMARK    5  A    between atoms: C_10  and  C_11 
REMARK    6  A    between atoms: C_12  and  C_13 
ROOT
HETATM    1  C   UNL     1      31.256  47.742  40.441  1.00  0.00     0.031 C 
HETATM    2  C   UNL     1      29.947  47.639  41.236  1.00  0.00     0.241 C 
HETATM    3  N   UNL     1      28.846  47.989  40.251  1.00  0.00    -0.067 N 
HETATM    4  H   UNL     1      28.222  47.174  40.179  1.00  0.00     0.280 HD
HETATM    5  C   UNL     1      29.480  48.162  38.888  1.00  0.00     0.235 C 
HETATM    6  C   UNL     1      30.801  47.433  39.017  1.00  0.00     0.035 C 
ENDROOT
BRANCH   3   7
HETATM    7  C   UNL     1      27.948  49.126  40.691  1.00  0.00     0.277 C 
BRANCH   7   8
HETATM    8  C   UNL     1      27.488  49.991  39.577  1.00  0.00     0.016 A 
HETATM    9  C   UNL     1      28.108  51.184  39.082  1.00  0.00     0.102 A 
HETATM   10  N   UNL     1      27.437  51.655  38.025  1.00  0.00    -0.174 NA
HETATM   11  N   UNL     1      26.355  50.882  37.912  1.00  0.00    -0.288 N 
HETATM   12  H   UNL     1      25.668  51.116  37.198  1.00  0.00     0.188 HD
HETATM   13  C   UNL     1      26.349  49.847  38.803  1.00  0.00     0.120 A 
BRANCH   9  14
HETATM   14  C   UNL     1      29.297  51.881  39.551  1.00  0.00     0.072 A 
HETATM   15  C   UNL     1      29.297  52.626  40.733  1.00  0.00     0.132 A 
HETATM   16  F   UNL     1      28.166  52.776  41.445  1.00  0.00    -0.205 F 
HETATM   17  C   UNL     1      30.450  53.263  41.192  1.00  0.00     0.043 A 
HETATM   18  C   UNL     1      31.634  53.164  40.462  1.00  0.00     0.006 A 
HETATM   19  C   UNL     1      31.653  52.435  39.274  1.00  0.00     0.043 A 
HETATM   20  C   UNL     1      30.492  51.801  38.829  1.00  0.00     0.132 A 
HETATM   21  F   UNL     1      30.539  51.145  37.661  1.00  0.00    -0.205 F 
ENDBRANCH   9  14
ENDBRANCH   7   8
ENDBRANCH   3   7
BRANCH   1  22
HETATM   22  C   UNL     1      31.914  49.126  40.610  1.00  0.00     0.127 C 
BRANCH  22  23
HETATM   23  N   UNL     1      31.593  49.710  41.911  1.00  0.00    -0.376 N 
HETATM   24  H   UNL     1      30.607  49.810  42.133  1.00  0.00     0.161 HD
BRANCH  23  25
HETATM   25  C   UNL     1      32.507  50.465  42.621  1.00  0.00     0.100 A 
HETATM   26  C   UNL     1      32.211  51.185  43.787  1.00  0.00     0.048 A 
HETATM   27  C   UNL     1      33.196  51.944  44.418  1.00  0.00     0.005 A 
HETATM   28  C   UNL     1      34.471  52.002  43.872  1.00  0.00     0.017 A 
HETATM   29  C   UNL     1      34.728  51.295  42.709  1.00  0.00     0.089 A 
HETATM   30  N   UNL     1      33.759  50.564  42.136  1.00  0.00    -0.353 N 
HETATM   31  H   UNL     1      33.978  50.073  41.274  1.00  0.00     0.166 HD
ENDBRANCH  23  25
ENDBRANCH  22  23
ENDBRANCH   1  22
TORSDOF 6
ENDMDL
MODEL 10
REMARK VINA RESULT:      -8.2      3.173      7.887
REMARK  6 active torsions:
REMARK  status: ('A' for Active; 'I' for Inactive)
REMARK    1  A    between atoms: C_3  and  N_4 
REMARK    2  A    between atoms: N_4  and  C_5 
REMARK    3  A    between atoms: C_5  and  C_6 
REMARK    4  A    between atoms: N_8  and  C_10 
REMARK    5  A    between atoms: C_10  and  C_11 
REMARK    6  A    between atoms: C_12  and  C_13 
ROOT
HETATM    1  C   UNL     1      25.180  43.657  51.133  1.00  0.00     0.031 C 
HETATM    2  C   UNL     1      24.313  44.919  51.244  1.00  0.00     0.241 C 
HETATM    3  N   UNL     1      24.852  45.875  50.194  1.00  0.00    -0.067 N 
HETATM    4  H   UNL     1      24.087  46.076  49.535  1.00  0.00     0.280 HD
HETATM    5  C   UNL     1      25.915  45.144  49.403  1.00  0.00     0.235 C 
HETATM    6  C   UNL     1      25.614  43.684  49.670  1.00  0.00     0.035 C 
ENDROOT
BRANCH   3   7
HETATM    7  C   UNL     1      25.266  47.228  50.731  1.00  0.00     0.277 C 
BRANCH   7   8
HETATM    8  C   UNL     1      25.638  48.202  49.676  1.00  0.00     0.016 A 
HETATM    9  C   UNL     1      24.763  49.030  48.901  1.00  0.00     0.102 A 
HETATM   10  N   UNL     1      25.468  49.826  48.090  1.00  0.00    -0.174 NA
HETATM   11  N   UNL     1      26.740  49.447  48.232  1.00  0.00    -0.288 N 
HETATM   12  H   UNL     1      27.443  49.891  47.644  1.00  0.00     0.188 HD
HETATM   13  C   UNL     1      26.904  48.492  49.194  1.00  0.00     0.120 A 
BRANCH   9  14
HETATM   14  C   UNL     1      23.308  49.109  48.904  1.00  0.00     0.072 A 
HETATM   15  C   UNL     1      22.512  48.040  48.485  1.00  0.00     0.132 A 
HETATM   16  F   UNL     1      23.074  46.919  48.000  1.00  0.00    -0.205 F 
HETATM   17  C   UNL     1      21.119  48.113  48.523  1.00  0.00     0.043 A 
HETATM   18  C   UNL     1      20.497  49.272  48.983  1.00  0.00     0.006 A 
HETATM   19  C   UNL     1      21.274  50.354  49.395  1.00  0.00     0.043 A 
HETATM   20  C   UNL     1      22.666  50.266  49.354  1.00  0.00     0.132 A 
HETATM   21  F   UNL     1      23.377  51.342  49.718  1.00  0.00    -0.205 F 
ENDBRANCH   9  14
ENDBRANCH   7   8
ENDBRANCH   3   7
BRANCH   1  22
HETATM   22  C   UNL     1      26.347  43.682  52.141  1.00  0.00     0.127 C 
BRANCH  22  23
HETATM   23  N   UNL     1      25.992  44.430  53.345  1.00  0.00    -0.376 N 
HETATM   24  H   UNL     1      25.004  44.620  53.486  1.00  0.00     0.161 HD
BRANCH  23  25
HETATM   25  C   UNL     1      26.914  45.198  54.030  1.00  0.00     0.100 A 
HETATM   26  C   UNL     1      26.878  46.597  54.118  1.00  0.00     0.048 A 
HETATM   27  C   UNL     1      27.873  47.286  54.809  1.00  0.00     0.005 A 
HETATM   28  C   UNL     1      28.915  46.582  55.394  1.00  0.00     0.017 A 
HETATM   29  C   UNL     1      28.934  45.203  55.274  1.00  0.00     0.089 A 
HETATM   30  N   UNL     1      27.952  44.570  54.613  1.00  0.00    -0.353 N 
HETATM   31  H   UNL     1      28.007  43.559  54.529  1.00  0.00     0.166 HD
ENDBRANCH  23  25
ENDBRANCH  22  23
ENDBRANCH   1  22
TORSDOF 6
ENDMDL
