MODEL 1
REMARK VINA RESULT:      -8.0      0.000      0.000
REMARK  8 active torsions:
REMARK  status: ('A' for Active; 'I' for Inactive)
REMARK    1  A    between atoms: C_1  and  C_15 
REMARK    2  A    between atoms: C_2  and  C_11 
REMARK    3  A    between atoms: C_2  and  N_12 
REMARK    4  A    between atoms: C_5  and  C_6 
REMARK    5  A    between atoms: C_6  and  O_7 
REMARK       I    between atoms: N_10  and  C_11 
REMARK    6  A    between atoms: C_16  and  O_17 
REMARK    7  A    between atoms: C_20  and  O_22 
REMARK    8  A    between atoms: C_25  and  O_26 
ROOT
HETATM    1  C           1      20.091  48.271  48.913  0.00  0.00     0.231 C 
HETATM    2  N           1      21.346  47.699  48.277  0.00  0.00    -0.054 N 
HETATM    3  C           1      19.000  47.180  49.046  0.00  0.00     0.055 C 
HETATM    4  C           1      18.802  46.213  47.869  0.00  0.00     0.065 C 
HETATM    5  C           1      20.160  45.780  47.302  0.00  0.00     0.066 C 
HETATM    6  C           1      21.134  46.918  46.997  0.00  0.00     0.239 C 
HETATM    7  C           1      17.673  47.717  49.631  0.00  0.00     0.010 C 
HETATM    8  C           1      16.430  47.449  48.767  0.00  0.00     0.001 C 
HETATM    9  C           1      16.752  47.671  47.288  0.00  0.00     0.003 C 
HETATM   10  C           1      17.838  46.707  46.785  0.00  0.00     0.038 C 
HETATM   11  H           1      21.705  47.000  48.970  0.00  0.00     0.281 HD
ENDROOT
BRANCH   2  12
HETATM   12  C           1      22.439  48.739  48.131  0.00  0.00     0.338 C 
BRANCH  12  13
HETATM   13  C           1      23.612  48.429  49.049  0.00  0.00     0.248 C 
HETATM   14  N           1      23.596  47.159  49.543  0.00  0.00    -0.319 N 
HETATM   15  C           1      24.404  46.488  50.387  0.00  0.00     0.094 A 
HETATM   16  H           1      22.870  46.558  49.190  0.00  0.00     0.169 HD
HETATM   17  C           1      24.456  45.146  50.522  0.00  0.00     0.080 A 
HETATM   18  S           1      25.160  47.164  51.439  0.00  0.00    -0.076 SA
HETATM   19  C           1      25.274  44.842  51.546  0.00  0.00    -0.030 A 
HETATM   20  C           1      25.655  43.470  52.039  0.00  0.00     0.050 C 
HETATM   21  C           1      25.722  45.982  52.100  0.00  0.00    -0.012 A 
HETATM   22  C           1      26.660  46.078  53.276  0.00  0.00     0.057 C 
HETATM   23  O           1      24.466  49.250  49.273  0.00  0.00    -0.271 OA
BRANCH  17  24
HETATM   24  C           1      23.804  44.227  49.742  0.00  0.00     0.296 C 
HETATM   25  O           1      22.601  44.110  49.867  0.00  0.00    -0.259 OA
BRANCH  24  26
HETATM   26  O           1      24.464  43.449  48.830  0.00  0.00    -0.322 OA
HETATM   27  C           1      24.130  42.085  48.732  0.00  0.00     0.213 C 
ENDBRANCH  24  26
ENDBRANCH  17  24
ENDBRANCH  12  13
ENDBRANCH   2  12
BRANCH   1  28
HETATM   28  C           1      19.709  49.666  48.396  0.00  0.00     0.009 A 
HETATM   29  C           1      19.850  50.756  49.191  0.00  0.00     0.076 A 
HETATM   30  C           1      19.449  51.940  48.688  0.00  0.00     0.040 A 
HETATM   31  C           1      18.980  52.068  47.441  0.00  0.00     0.039 A 
HETATM   32  C           1      18.872  51.015  46.614  0.00  0.00     0.069 A 
HETATM   33  C           1      19.230  49.833  47.150  0.00  0.00     0.048 A 
BRANCH  29  34
HETATM   34  O           1      20.314  50.611  50.477  0.00  0.00    -0.355 OA
HETATM   35  C           1      21.598  51.084  50.808  0.00  0.00     0.210 C 
ENDBRANCH  29  34
BRANCH  32  36
HETATM   36  O           1      18.366  51.208  45.351  0.00  0.00    -0.356 OA
HETATM   37  C           1      17.304  52.116  45.174  0.00  0.00     0.210 C 
ENDBRANCH  32  36
ENDBRANCH   1  28
BRANCH   4  38
HETATM   38  O           1      18.252  45.023  48.399  0.00  0.00    -0.389 OA
HETATM   39  H           1      17.866  44.471  47.720  0.00  0.00     0.210 HD
ENDBRANCH   4  38
TORSDOF 8
ENDMDL
MODEL 2
REMARK VINA RESULT:      -7.7     10.851     13.096
REMARK  8 active torsions:
REMARK  status: ('A' for Active; 'I' for Inactive)
REMARK    1  A    between atoms: C_1  and  C_15 
REMARK    2  A    between atoms: C_2  and  C_11 
REMARK    3  A    between atoms: C_2  and  N_12 
REMARK    4  A    between atoms: C_5  and  C_6 
REMARK    5  A    between atoms: C_6  and  O_7 
REMARK       I    between atoms: N_10  and  C_11 
REMARK    6  A    between atoms: C_16  and  O_17 
REMARK    7  A    between atoms: C_20  and  O_22 
REMARK    8  A    between atoms: C_25  and  O_26 
ROOT
HETATM    1  C           1      28.163  47.880  39.710  0.00  0.00     0.231 C 
HETATM    2  N           1      28.542  48.949  40.721  0.00  0.00    -0.054 N 
HETATM    3  C           1      27.548  48.522  38.441  0.00  0.00     0.055 C 
HETATM    4  C           1      26.557  49.680  38.629  0.00  0.00     0.065 C 
HETATM    5  C           1      27.054  50.633  39.724  0.00  0.00     0.066 C 
HETATM    6  C           1      27.463  49.963  41.037  0.00  0.00     0.239 C 
HETATM    7  C           1      27.084  47.478  37.398  0.00  0.00     0.010 C 
HETATM    8  C           1      25.614  47.605  36.966  0.00  0.00     0.001 C 
HETATM    9  C           1      24.729  47.914  38.175  0.00  0.00     0.003 C 
HETATM   10  C           1      25.099  49.254  38.831  0.00  0.00     0.038 C 
HETATM   11  H           1      29.308  49.496  40.261  0.00  0.00     0.281 HD
ENDROOT
BRANCH   2  12
HETATM   12  C           1      29.150  48.359  41.978  0.00  0.00     0.338 C 
BRANCH  12  13
HETATM   13  C           1      30.583  48.834  42.165  0.00  0.00     0.248 C 
HETATM   14  N           1      30.991  49.721  41.213  0.00  0.00    -0.319 N 
HETATM   15  C           1      32.156  50.359  40.987  0.00  0.00     0.094 A 
HETATM   16  H           1      30.289  50.015  40.556  0.00  0.00     0.169 HD
HETATM   17  C           1      32.313  51.455  40.215  0.00  0.00     0.080 A 
HETATM   18  S           1      33.443  49.783  41.371  0.00  0.00    -0.076 SA
HETATM   19  C           1      33.626  51.731  40.113  0.00  0.00    -0.030 A 
HETATM   20  C           1      34.265  52.880  39.376  0.00  0.00     0.050 C 
HETATM   21  C           1      34.322  50.798  40.783  0.00  0.00    -0.012 A 
HETATM   22  C           1      35.823  50.746  40.911  0.00  0.00     0.057 C 
HETATM   23  O           1      31.252  48.456  43.093  0.00  0.00    -0.271 OA
BRANCH  17  24
HETATM   24  C           1      31.311  52.188  39.636  0.00  0.00     0.296 C 
HETATM   25  O           1      30.839  51.799  38.586  0.00  0.00    -0.259 OA
BRANCH  24  26
HETATM   26  O           1      30.827  53.335  40.206  0.00  0.00    -0.322 OA
HETATM   27  C           1      29.436  53.550  40.226  0.00  0.00     0.213 C 
ENDBRANCH  24  26
ENDBRANCH  17  24
ENDBRANCH  12  13
ENDBRANCH   2  12
BRANCH   1  28
HETATM   28  C           1      27.502  46.640  40.329  0.00  0.00     0.009 A 
HETATM   29  C           1      28.105  45.428  40.252  0.00  0.00     0.076 A 
HETATM   30  C           1      27.443  44.378  40.774  0.00  0.00     0.040 A 
HETATM   31  C           1      26.266  44.509  41.398  0.00  0.00     0.039 A 
HETATM   32  C           1      25.666  45.703  41.532  0.00  0.00     0.069 A 
HETATM   33  C           1      26.317  46.733  40.960  0.00  0.00     0.048 A 
BRANCH  29  34
HETATM   34  O           1      29.304  45.301  39.592  0.00  0.00    -0.355 OA
HETATM   35  C           1      29.414  44.391  38.523  0.00  0.00     0.210 C 
ENDBRANCH  29  34
BRANCH  32  36
HETATM   36  O           1      24.449  45.770  42.167  0.00  0.00    -0.356 OA
HETATM   37  C           1      23.321  46.189  41.435  0.00  0.00     0.210 C 
ENDBRANCH  32  36
ENDBRANCH   1  28
BRANCH   4  38
HETATM   38  O           1      26.600  50.457  37.448  0.00  0.00    -0.389 OA
HETATM   39  H           1      25.881  51.086  37.405  0.00  0.00     0.210 HD
ENDBRANCH   4  38
TORSDOF 8
ENDMDL
MODEL 3
REMARK VINA RESULT:      -7.4      2.498      8.414
REMARK  8 active torsions:
REMARK  status: ('A' for Active; 'I' for Inactive)
REMARK    1  A    between atoms: C_1  and  C_15 
REMARK    2  A    between atoms: C_2  and  C_11 
REMARK    3  A    between atoms: C_2  and  N_12 
REMARK    4  A    between atoms: C_5  and  C_6 
REMARK    5  A    between atoms: C_6  and  O_7 
REMARK       I    between atoms: N_10  and  C_11 
REMARK    6  A    between atoms: C_16  and  O_17 
REMARK    7  A    between atoms: C_20  and  O_22 
REMARK    8  A    between atoms: C_25  and  O_26 
ROOT
HETATM    1  C           1      24.933  45.185  49.267  0.00  0.00     0.231 C 
HETATM    2  N           1      23.453  45.355  48.971  0.00  0.00    -0.054 N 
HETATM    3  C           1      25.383  43.730  48.983  0.00  0.00     0.055 C 
HETATM    4  C           1      24.453  42.590  49.422  0.00  0.00     0.065 C 
HETATM    5  C           1      22.994  42.944  49.110  0.00  0.00     0.066 C 
HETATM    6  C           1      22.538  44.322  49.594  0.00  0.00     0.239 C 
HETATM    7  C           1      26.871  43.478  49.326  0.00  0.00     0.010 C 
HETATM    8  C           1      27.122  42.312  50.295  0.00  0.00     0.001 C 
HETATM    9  C           1      26.076  42.313  51.411  0.00  0.00     0.003 C 
HETATM   10  C           1      24.653  42.116  50.866  0.00  0.00     0.038 C 
HETATM   11  H           1      23.367  45.212  47.937  0.00  0.00     0.281 HD
ENDROOT
BRANCH   2  12
HETATM   12  C           1      22.974  46.768  49.236  0.00  0.00     0.338 C 
BRANCH  12  13
HETATM   13  C           1      21.893  47.173  48.247  0.00  0.00     0.248 C 
HETATM   14  N           1      20.813  47.764  48.832  0.00  0.00    -0.319 N 
HETATM   15  C           1      19.649  48.243  48.350  0.00  0.00     0.094 A 
HETATM   16  H           1      20.887  47.935  49.821  0.00  0.00     0.169 HD
HETATM   17  C           1      18.826  49.098  48.993  0.00  0.00     0.080 A 
HETATM   18  S           1      19.022  47.692  47.151  0.00  0.00    -0.076 SA
HETATM   19  C           1      17.702  49.248  48.269  0.00  0.00    -0.030 A 
HETATM   20  C           1      16.520  50.129  48.583  0.00  0.00     0.050 C 
HETATM   21  C           1      17.776  48.464  47.180  0.00  0.00    -0.012 A 
HETATM   22  C           1      16.718  48.339  46.113  0.00  0.00     0.057 C 
HETATM   23  O           1      22.027  46.991  47.063  0.00  0.00    -0.271 OA
BRANCH  17  24
HETATM   24  C           1      19.084  49.733  50.179  0.00  0.00     0.296 C 
HETATM   25  O           1      18.761  49.183  51.214  0.00  0.00    -0.259 OA
BRANCH  24  26
HETATM   26  O           1      19.695  50.957  50.231  0.00  0.00    -0.322 OA
HETATM   27  C           1      21.092  51.014  50.394  0.00  0.00     0.213 C 
ENDBRANCH  24  26
ENDBRANCH  17  24
ENDBRANCH  12  13
ENDBRANCH   2  12
BRANCH   1  28
HETATM   28  C           1      25.398  45.885  50.553  0.00  0.00     0.009 A 
HETATM   29  C           1      26.204  46.974  50.491  0.00  0.00     0.076 A 
HETATM   30  C           1      26.611  47.505  51.660  0.00  0.00     0.040 A 
HETATM   31  C           1      26.204  47.031  52.844  0.00  0.00     0.039 A 
HETATM   32  C           1      25.369  45.983  52.938  0.00  0.00     0.069 A 
HETATM   33  C           1      25.013  45.434  51.761  0.00  0.00     0.048 A 
BRANCH  29  34
HETATM   34  O           1      26.631  47.440  49.270  0.00  0.00    -0.355 OA
HETATM   35  C           1      27.427  48.600  49.212  0.00  0.00     0.210 C 
ENDBRANCH  29  34
BRANCH  32  36
HETATM   36  O           1      25.003  45.532  54.183  0.00  0.00    -0.356 OA
HETATM   37  C           1      25.307  44.204  54.542  0.00  0.00     0.210 C 
ENDBRANCH  32  36
ENDBRANCH   1  28
BRANCH   4  38
HETATM   38  O           1      24.728  41.485  48.584  0.00  0.00    -0.389 OA
HETATM   39  H           1      23.931  41.102  48.220  0.00  0.00     0.210 HD
ENDBRANCH   4  38
TORSDOF 8
ENDMDL
MODEL 4
REMARK VINA RESULT:      -7.4      4.804      9.887
REMARK  8 active torsions:
REMARK  status: ('A' for Active; 'I' for Inactive)
REMARK    1  A    between atoms: C_1  and  C_15 
REMARK    2  A    between atoms: C_2  and  C_11 
REMARK    3  A    between atoms: C_2  and  N_12 
REMARK    4  A    between atoms: C_5  and  C_6 
REMARK    5  A    between atoms: C_6  and  O_7 
REMARK       I    between atoms: N_10  and  C_11 
REMARK    6  A    between atoms: C_16  and  O_17 
REMARK    7  A    between atoms: C_20  and  O_22 
REMARK    8  A    between atoms: C_25  and  O_26 
ROOT
HETATM    1  C           1      17.977  49.489  48.747  0.00  0.00     0.231 C 
HETATM    2  N           1      17.151  50.714  49.098  0.00  0.00    -0.054 N 
HETATM    3  C           1      19.331  49.509  49.500  0.00  0.00     0.055 C 
HETATM    4  C           1      20.081  50.845  49.597  0.00  0.00     0.065 C 
HETATM    5  C           1      19.099  51.986  49.894  0.00  0.00     0.066 C 
HETATM    6  C           1      17.869  52.042  48.986  0.00  0.00     0.239 C 
HETATM    7  C           1      20.245  48.315  49.135  0.00  0.00     0.010 C 
HETATM    8  C           1      21.647  48.703  48.640  0.00  0.00     0.001 C 
HETATM    9  C           1      21.566  49.910  47.704  0.00  0.00     0.003 C 
HETATM   10  C           1      21.006  51.152  48.415  0.00  0.00     0.038 C 
HETATM   11  H           1      16.929  50.607  50.117  0.00  0.00     0.281 HD
ENDROOT
BRANCH   2  12
HETATM   12  C           1      15.816  50.730  48.381  0.00  0.00     0.338 C 
BRANCH  12  13
HETATM   13  C           1      15.526  52.105  47.799  0.00  0.00     0.248 C 
HETATM   14  N           1      14.879  52.937  48.664  0.00  0.00    -0.319 N 
HETATM   15  C           1      14.420  54.199  48.559  0.00  0.00     0.094 A 
HETATM   16  H           1      14.741  52.583  49.596  0.00  0.00     0.169 HD
HETATM   17  C           1      14.105  55.008  49.593  0.00  0.00     0.080 A 
HETATM   18  S           1      13.979  54.761  47.284  0.00  0.00    -0.076 SA
HETATM   19  C           1      13.555  56.137  49.111  0.00  0.00    -0.030 A 
HETATM   20  C           1      13.081  57.333  49.897  0.00  0.00     0.050 C 
HETATM   21  C           1      13.477  56.048  47.773  0.00  0.00    -0.012 A 
HETATM   22  C           1      12.920  57.105  46.853  0.00  0.00     0.057 C 
HETATM   23  O           1      15.872  52.398  46.683  0.00  0.00    -0.271 OA
BRANCH  17  24
HETATM   24  C           1      14.318  54.745  50.921  0.00  0.00     0.296 C 
HETATM   25  O           1      13.638  53.895  51.461  0.00  0.00    -0.259 OA
BRANCH  24  26
HETATM   26  O           1      15.272  55.405  51.648  0.00  0.00    -0.322 OA
HETATM   27  C           1      14.956  55.839  52.949  0.00  0.00     0.213 C 
ENDBRANCH  24  26
ENDBRANCH  17  24
ENDBRANCH  12  13
ENDBRANCH   2  12
BRANCH   1  28
HETATM   28  C           1      17.944  49.119  47.257  0.00  0.00     0.009 A 
HETATM   29  C           1      17.528  47.889  46.863  0.00  0.00     0.076 A 
HETATM   30  C           1      17.573  47.619  45.544  0.00  0.00     0.040 A 
HETATM   31  C           1      17.952  48.527  44.637  0.00  0.00     0.039 A 
HETATM   32  C           1      18.324  49.768  44.992  0.00  0.00     0.069 A 
HETATM   33  C           1      18.322  50.005  46.318  0.00  0.00     0.048 A 
BRANCH  29  34
HETATM   34  O           1      17.160  46.957  47.804  0.00  0.00    -0.355 OA
HETATM   35  C           1      17.736  45.672  47.769  0.00  0.00     0.210 C 
ENDBRANCH  29  34
BRANCH  32  36
HETATM   36  O           1      18.720  50.650  44.016  0.00  0.00    -0.356 OA
HETATM   37  C           1      17.762  51.516  43.452  0.00  0.00     0.210 C 
ENDBRANCH  32  36
ENDBRANCH   1  28
BRANCH   4  38
HETATM   38  O           1      20.895  50.780  50.752  0.00  0.00    -0.389 OA
HETATM   39  H           1      20.378  50.702  51.553  0.00  0.00     0.210 HD
ENDBRANCH   4  38
TORSDOF 8
ENDMDL
MODEL 5
REMARK VINA RESULT:      -7.3      4.612     10.053
REMARK  8 active torsions:
REMARK  status: ('A' for Active; 'I' for Inactive)
REMARK    1  A    between atoms: C_1  and  C_15 
REMARK    2  A    between atoms: C_2  and  C_11 
REMARK    3  A    between atoms: C_2  and  N_12 
REMARK    4  A    between atoms: C_5  and  C_6 
REMARK    5  A    between atoms: C_6  and  O_7 
REMARK       I    between atoms: N_10  and  C_11 
REMARK    6  A    between atoms: C_16  and  O_17 
REMARK    7  A    between atoms: C_20  and  O_22 
REMARK    8  A    between atoms: C_25  and  O_26 
ROOT
HETATM    1  C           1      17.936  49.664  48.854  0.00  0.00     0.231 C 
HETATM    2  N           1      17.240  50.956  49.244  0.00  0.00    -0.054 N 
HETATM    3  C           1      19.302  49.540  49.572  0.00  0.00     0.055 C 
HETATM    4  C           1      20.180  50.797  49.671  0.00  0.00     0.065 C 
HETATM    5  C           1      19.319  52.021  50.009  0.00  0.00     0.066 C 
HETATM    6  C           1      18.080  52.211  49.133  0.00  0.00     0.239 C 
HETATM    7  C           1      20.088  48.271  49.167  0.00  0.00     0.010 C 
HETATM    8  C           1      21.510  48.531  48.643  0.00  0.00     0.001 C 
HETATM    9  C           1      21.523  49.757  47.727  0.00  0.00     0.003 C 
HETATM   10  C           1      21.102  51.034  48.471  0.00  0.00     0.038 C 
HETATM   11  H           1      17.032  50.853  50.266  0.00  0.00     0.281 HD
ENDROOT
BRANCH   2  12
HETATM   12  C           1      15.896  51.113  48.561  0.00  0.00     0.338 C 
BRANCH  12  13
HETATM   13  C           1      15.158  52.336  49.082  0.00  0.00     0.248 C 
HETATM   14  N           1      14.920  53.277  48.124  0.00  0.00    -0.319 N 
HETATM   15  C           1      14.335  54.490  48.150  0.00  0.00     0.094 A 
HETATM   16  H           1      15.183  53.027  47.186  0.00  0.00     0.169 HD
HETATM   17  C           1      13.871  55.160  47.073  0.00  0.00     0.080 A 
HETATM   18  S           1      14.351  55.335  49.342  0.00  0.00    -0.076 SA
HETATM   19  C           1      13.478  56.387  47.460  0.00  0.00    -0.030 A 
HETATM   20  C           1      12.868  57.466  46.602  0.00  0.00     0.050 C 
HETATM   21  C           1      13.721  56.530  48.773  0.00  0.00    -0.012 A 
HETATM   22  C           1      13.427  57.761  49.592  0.00  0.00     0.057 C 
HETATM   23  O           1      14.813  52.416  50.233  0.00  0.00    -0.271 OA
BRANCH  17  24
HETATM   24  C           1      13.790  54.678  45.793  0.00  0.00     0.296 C 
HETATM   25  O           1      14.811  54.595  45.138  0.00  0.00    -0.259 OA
BRANCH  24  26
HETATM   26  O           1      12.602  54.287  45.238  0.00  0.00    -0.322 OA
HETATM   27  C           1      12.601  53.234  44.304  0.00  0.00     0.213 C 
ENDBRANCH  24  26
ENDBRANCH  17  24
ENDBRANCH  12  13
ENDBRANCH   2  12
BRANCH   1  28
HETATM   28  C           1      17.832  49.324  47.359  0.00  0.00     0.009 A 
HETATM   29  C           1      17.270  48.157  46.957  0.00  0.00     0.076 A 
HETATM   30  C           1      17.258  47.906  45.634  0.00  0.00     0.040 A 
HETATM   31  C           1      17.723  48.779  44.732  0.00  0.00     0.039 A 
HETATM   32  C           1      18.242  49.963  45.097  0.00  0.00     0.069 A 
HETATM   33  C           1      18.292  50.176  46.425  0.00  0.00     0.048 A 
BRANCH  29  34
HETATM   34  O           1      16.814  47.258  47.891  0.00  0.00    -0.355 OA
HETATM   35  C           1      17.415  45.988  47.982  0.00  0.00     0.210 C 
ENDBRANCH  29  34
BRANCH  32  36
HETATM   36  O           1      18.719  50.810  44.125  0.00  0.00    -0.356 OA
HETATM   37  C           1      18.618  50.422  42.775  0.00  0.00     0.210 C 
ENDBRANCH  32  36
ENDBRANCH   1  28
BRANCH   4  38
HETATM   38  O           1      21.011  50.634  50.804  0.00  0.00    -0.389 OA
HETATM   39  H           1      21.925  50.838  50.612  0.00  0.00     0.210 HD
ENDBRANCH   4  38
TORSDOF 8
ENDMDL
MODEL 6
REMARK VINA RESULT:      -7.2      4.172      6.595
REMARK  8 active torsions:
REMARK  status: ('A' for Active; 'I' for Inactive)
REMARK    1  A    between atoms: C_1  and  C_15 
REMARK    2  A    between atoms: C_2  and  C_11 
REMARK    3  A    between atoms: C_2  and  N_12 
REMARK    4  A    between atoms: C_5  and  C_6 
REMARK    5  A    between atoms: C_6  and  O_7 
REMARK       I    between atoms: N_10  and  C_11 
REMARK    6  A    between atoms: C_16  and  O_17 
REMARK    7  A    between atoms: C_20  and  O_22 
REMARK    8  A    between atoms: C_25  and  O_26 
ROOT
HETATM    1  C           1      18.225  49.365  46.713  0.00  0.00     0.231 C 
HETATM    2  N           1      17.296  48.191  46.974  0.00  0.00    -0.054 N 
HETATM    3  C           1      19.316  49.451  47.809  0.00  0.00     0.055 C 
HETATM    4  C           1      18.894  49.212  49.266  0.00  0.00     0.065 C 
HETATM    5  C           1      17.911  48.037  49.349  0.00  0.00     0.066 C 
HETATM    6  C           1      16.732  48.101  48.377  0.00  0.00     0.239 C 
HETATM    7  C           1      20.257  50.666  47.632  0.00  0.00     0.010 C 
HETATM    8  C           1      20.360  51.588  48.857  0.00  0.00     0.001 C 
HETATM    9  C           1      18.982  51.782  49.493  0.00  0.00     0.003 C 
HETATM   10  C           1      18.393  50.458  50.004  0.00  0.00     0.038 C 
HETATM   11  H           1      17.898  47.341  46.864  0.00  0.00     0.281 HD
ENDROOT
BRANCH   2  12
HETATM   12  C           1      16.213  48.072  45.920  0.00  0.00     0.338 C 
BRANCH  12  13
HETATM   13  C           1      16.295  46.734  45.203  0.00  0.00     0.248 C 
HETATM   14  N           1      17.432  46.036  45.481  0.00  0.00    -0.319 N 
HETATM   15  C           1      17.912  44.850  45.059  0.00  0.00     0.094 A 
HETATM   16  H           1      18.038  46.440  46.175  0.00  0.00     0.169 HD
HETATM   17  C           1      18.881  44.134  45.668  0.00  0.00     0.080 A 
HETATM   18  S           1      17.597  44.312  43.737  0.00  0.00    -0.076 SA
HETATM   19  C           1      19.195  43.079  44.894  0.00  0.00    -0.030 A 
HETATM   20  C           1      20.199  41.994  45.188  0.00  0.00     0.050 C 
HETATM   21  C           1      18.462  43.129  43.769  0.00  0.00    -0.012 A 
HETATM   22  C           1      18.517  42.131  42.640  0.00  0.00     0.057 C 
HETATM   23  O           1      15.406  46.353  44.484  0.00  0.00    -0.271 OA
BRANCH  17  24
HETATM   24  C           1      19.450  44.411  46.883  0.00  0.00     0.296 C 
HETATM   25  O           1      18.783  44.255  47.887  0.00  0.00    -0.259 OA
BRANCH  24  26
HETATM   26  O           1      20.741  44.851  46.997  0.00  0.00    -0.322 OA
HETATM   27  C           1      21.007  46.226  46.854  0.00  0.00     0.213 C 
ENDBRANCH  24  26
ENDBRANCH  17  24
ENDBRANCH  12  13
ENDBRANCH   2  12
BRANCH   1  28
HETATM   28  C           1      17.504  50.643  46.258  0.00  0.00     0.009 A 
HETATM   29  C           1      17.753  51.173  45.035  0.00  0.00     0.076 A 
HETATM   30  C           1      17.122  52.322  44.723  0.00  0.00     0.040 A 
HETATM   31  C           1      16.240  52.902  45.546  0.00  0.00     0.039 A 
HETATM   32  C           1      15.938  52.376  46.744  0.00  0.00     0.069 A 
HETATM   33  C           1      16.615  51.256  47.060  0.00  0.00     0.048 A 
BRANCH  29  34
HETATM   34  O           1      18.676  50.580  44.205  0.00  0.00    -0.355 OA
HETATM   35  C           1      18.238  49.927  43.037  0.00  0.00     0.210 C 
ENDBRANCH  29  34
BRANCH  32  36
HETATM   36  O           1      15.037  53.029  47.551  0.00  0.00    -0.356 OA
HETATM   37  C           1      15.152  52.891  48.949  0.00  0.00     0.210 C 
ENDBRANCH  32  36
ENDBRANCH   1  28
BRANCH   4  38
HETATM   38  O           1      20.039  48.755  49.959  0.00  0.00    -0.389 OA
HETATM   39  H           1      20.756  49.388  49.926  0.00  0.00     0.210 HD
ENDBRANCH   4  38
TORSDOF 8
ENDMDL
MODEL 7
REMARK VINA RESULT:      -7.1      4.151      8.798
REMARK  8 active torsions:
REMARK  status: ('A' for Active; 'I' for Inactive)
REMARK    1  A    between atoms: C_1  and  C_15 
REMARK    2  A    between atoms: C_2  and  C_11 
REMARK    3  A    between atoms: C_2  and  N_12 
REMARK    4  A    between atoms: C_5  and  C_6 
REMARK    5  A    between atoms: C_6  and  O_7 
REMARK       I    between atoms: N_10  and  C_11 
REMARK    6  A    between atoms: C_16  and  O_17 
REMARK    7  A    between atoms: C_20  and  O_22 
REMARK    8  A    between atoms: C_25  and  O_26 
ROOT
HETATM    1  C           1      18.298  49.095  47.202  0.00  0.00     0.231 C 
HETATM    2  N           1      18.095  49.200  45.700  0.00  0.00    -0.054 N 
HETATM    3  C           1      17.601  50.271  47.930  0.00  0.00     0.055 C 
HETATM    4  C           1      17.717  51.672  47.311  0.00  0.00     0.065 C 
HETATM    5  C           1      17.552  51.596  45.788  0.00  0.00     0.066 C 
HETATM    6  C           1      18.417  50.547  45.088  0.00  0.00     0.239 C 
HETATM    7  C           1      17.824  50.254  49.461  0.00  0.00     0.010 C 
HETATM    8  C           1      18.415  51.548  50.042  0.00  0.00     0.001 C 
HETATM    9  C           1      19.509  52.095  49.122  0.00  0.00     0.003 C 
HETATM   10  C           1      18.961  52.461  47.733  0.00  0.00     0.038 C 
HETATM   11  H           1      17.065  49.072  45.557  0.00  0.00     0.281 HD
ENDROOT
BRANCH   2  12
HETATM   12  C           1      18.762  48.064  44.951  0.00  0.00     0.338 C 
BRANCH  12  13
HETATM   13  C           1      17.756  47.307  44.099  0.00  0.00     0.248 C 
HETATM   14  N           1      16.495  47.306  44.617  0.00  0.00    -0.319 N 
HETATM   15  C           1      15.334  46.753  44.216  0.00  0.00     0.094 A 
HETATM   16  H           1      16.359  47.861  45.445  0.00  0.00     0.169 HD
HETATM   17  C           1      14.105  47.112  44.644  0.00  0.00     0.080 A 
HETATM   18  S           1      15.291  45.518  43.436  0.00  0.00    -0.076 SA
HETATM   19  C           1      13.199  46.257  44.135  0.00  0.00    -0.030 A 
HETATM   20  C           1      11.704  46.290  44.319  0.00  0.00     0.050 C 
HETATM   21  C           1      13.839  45.323  43.411  0.00  0.00    -0.012 A 
HETATM   22  C           1      13.185  44.181  42.676  0.00  0.00     0.057 C 
HETATM   23  O           1      18.078  46.791  43.059  0.00  0.00    -0.271 OA
BRANCH  17  24
HETATM   24  C           1      13.808  48.179  45.450  0.00  0.00     0.296 C 
HETATM   25  O           1      14.150  48.139  46.616  0.00  0.00    -0.259 OA
BRANCH  24  26
HETATM   26  O           1      13.146  49.282  44.982  0.00  0.00    -0.322 OA
HETATM   27  C           1      13.896  50.370  44.496  0.00  0.00     0.213 C 
ENDBRANCH  24  26
ENDBRANCH  17  24
ENDBRANCH  12  13
ENDBRANCH   2  12
BRANCH   1  28
HETATM   28  C           1      19.719  48.684  47.613  0.00  0.00     0.009 A 
HETATM   29  C           1      19.933  47.519  48.275  0.00  0.00     0.076 A 
HETATM   30  C           1      21.199  47.249  48.647  0.00  0.00     0.040 A 
HETATM   31  C           1      22.226  48.051  48.339  0.00  0.00     0.039 A 
HETATM   32  C           1      22.052  49.187  47.644  0.00  0.00     0.069 A 
HETATM   33  C           1      20.774  49.467  47.325  0.00  0.00     0.048 A 
BRANCH  29  34
HETATM   34  O           1      18.870  46.713  48.603  0.00  0.00    -0.355 OA
HETATM   35  C           1      18.747  45.447  47.997  0.00  0.00     0.210 C 
ENDBRANCH  29  34
BRANCH  32  36
HETATM   36  O           1      23.143  49.978  47.375  0.00  0.00    -0.356 OA
HETATM   37  C           1      24.271  49.890  48.214  0.00  0.00     0.210 C 
ENDBRANCH  32  36
ENDBRANCH   1  28
BRANCH   4  38
HETATM   38  O           1      16.593  52.411  47.745  0.00  0.00    -0.389 OA
HETATM   39  H           1      16.651  53.333  47.498  0.00  0.00     0.210 HD
ENDBRANCH   4  38
TORSDOF 8
ENDMDL
MODEL 8
REMARK VINA RESULT:      -7.0     22.841     25.204
REMARK  8 active torsions:
REMARK  status: ('A' for Active; 'I' for Inactive)
REMARK    1  A    between atoms: C_1  and  C_15 
REMARK    2  A    between atoms: C_2  and  C_11 
REMARK    3  A    between atoms: C_2  and  N_12 
REMARK    4  A    between atoms: C_5  and  C_6 
REMARK    5  A    between atoms: C_6  and  O_7 
REMARK       I    between atoms: N_10  and  C_11 
REMARK    6  A    between atoms: C_16  and  O_17 
REMARK    7  A    between atoms: C_20  and  O_22 
REMARK    8  A    between atoms: C_25  and  O_26 
ROOT
HETATM    1  C           1      38.952  45.837  66.023  0.00  0.00     0.231 C 
HETATM    2  N           1      40.396  45.539  66.391  0.00  0.00    -0.054 N 
HETATM    3  C           1      38.881  46.957  64.955  0.00  0.00     0.055 C 
HETATM    4  C           1      39.819  48.162  65.114  0.00  0.00     0.065 C 
HETATM    5  C           1      41.215  47.697  65.548  0.00  0.00     0.066 C 
HETATM    6  C           1      41.244  46.743  66.743  0.00  0.00     0.239 C 
HETATM    7  C           1      37.432  47.349  64.584  0.00  0.00     0.010 C 
HETATM    8  C           1      37.107  48.843  64.736  0.00  0.00     0.001 C 
HETATM    9  C           1      37.739  49.397  66.015  0.00  0.00     0.003 C 
HETATM   10  C           1      39.272  49.294  65.991  0.00  0.00     0.038 C 
HETATM   11  H           1      40.822  45.147  65.518  0.00  0.00     0.281 HD
ENDROOT
BRANCH   2  12
HETATM   12  C           1      40.506  44.445  67.434  0.00  0.00     0.338 C 
BRANCH  12  13
HETATM   13  C           1      41.114  43.184  66.840  0.00  0.00     0.248 C 
HETATM   14  N           1      40.335  42.603  65.883  0.00  0.00    -0.319 N 
HETATM   15  C           1      40.470  41.492  65.134  0.00  0.00     0.094 A 
HETATM   16  H           1      39.502  43.107  65.628  0.00  0.00     0.169 HD
HETATM   17  C           1      39.790  41.223  63.999  0.00  0.00     0.080 A 
HETATM   18  S           1      41.211  40.324  65.605  0.00  0.00    -0.076 SA
HETATM   19  C           1      40.083  39.972  63.601  0.00  0.00    -0.030 A 
HETATM   20  C           1      39.580  39.260  62.372  0.00  0.00     0.050 C 
HETATM   21  C           1      40.919  39.415  64.493  0.00  0.00    -0.012 A 
HETATM   22  C           1      41.485  38.019  64.414  0.00  0.00     0.057 C 
HETATM   23  O           1      42.194  42.783  67.192  0.00  0.00    -0.271 OA
BRANCH  17  24
HETATM   24  C           1      38.948  42.078  63.338  0.00  0.00     0.296 C 
HETATM   25  O           1      37.750  41.892  63.419  0.00  0.00    -0.259 OA
BRANCH  24  26
HETATM   26  O           1      39.416  43.131  62.598  0.00  0.00    -0.322 OA
HETATM   27  C           1      38.654  44.313  62.541  0.00  0.00     0.213 C 
ENDBRANCH  24  26
ENDBRANCH  17  24
ENDBRANCH  12  13
ENDBRANCH   2  12
BRANCH   1  28
HETATM   28  C           1      37.995  45.872  67.223  0.00  0.00     0.009 A 
HETATM   29  C           1      37.002  44.955  67.338  0.00  0.00     0.076 A 
HETATM   30  C           1      36.172  45.078  68.391  0.00  0.00     0.040 A 
HETATM   31  C           1      36.333  46.021  69.327  0.00  0.00     0.039 A 
HETATM   32  C           1      37.334  46.914  69.266  0.00  0.00     0.069 A 
HETATM   33  C           1      38.124  46.808  68.181  0.00  0.00     0.048 A 
BRANCH  29  34
HETATM   34  O           1      36.833  44.002  66.361  0.00  0.00    -0.355 OA
HETATM   35  C           1      35.693  44.051  65.537  0.00  0.00     0.210 C 
ENDBRANCH  29  34
BRANCH  32  36
HETATM   36  O           1      37.436  47.870  70.248  0.00  0.00    -0.356 OA
HETATM   37  C           1      37.988  49.124  69.922  0.00  0.00     0.210 C 
ENDBRANCH  32  36
ENDBRANCH   1  28
BRANCH   4  38
HETATM   38  O           1      40.020  48.703  63.822  0.00  0.00    -0.389 OA
HETATM   39  H           1      39.215  49.063  63.453  0.00  0.00     0.210 HD
ENDBRANCH   4  38
TORSDOF 8
ENDMDL
MODEL 9
REMARK VINA RESULT:      -6.8      4.826      7.924
REMARK  8 active torsions:
REMARK  status: ('A' for Active; 'I' for Inactive)
REMARK    1  A    between atoms: C_1  and  C_15 
REMARK    2  A    between atoms: C_2  and  C_11 
REMARK    3  A    between atoms: C_2  and  N_12 
REMARK    4  A    between atoms: C_5  and  C_6 
REMARK    5  A    between atoms: C_6  and  O_7 
REMARK       I    between atoms: N_10  and  C_11 
REMARK    6  A    between atoms: C_16  and  O_17 
REMARK    7  A    between atoms: C_20  and  O_22 
REMARK    8  A    between atoms: C_25  and  O_26 
ROOT
HETATM    1  C           1      24.200  42.629  47.795  0.00  0.00     0.231 C 
HETATM    2  N           1      24.533  42.445  49.266  0.00  0.00    -0.054 N 
HETATM    3  C           1      23.671  44.061  47.530  0.00  0.00     0.055 C 
HETATM    4  C           1      22.689  44.664  48.544  0.00  0.00     0.065 C 
HETATM    5  C           1      23.132  44.336  49.976  0.00  0.00     0.066 C 
HETATM    6  C           1      23.452  42.863  50.239  0.00  0.00     0.239 C 
HETATM    7  C           1      23.255  44.291  46.058  0.00  0.00     0.010 C 
HETATM    8  C           1      21.817  44.795  45.864  0.00  0.00     0.001 C 
HETATM    9  C           1      20.865  44.067  46.817  0.00  0.00     0.003 C 
HETATM   10  C           1      21.214  44.330  48.290  0.00  0.00     0.038 C 
HETATM   11  H           1      25.333  43.097  49.445  0.00  0.00     0.281 HD
ENDROOT
BRANCH   2  12
HETATM   12  C           1      25.057  41.054  49.564  0.00  0.00     0.338 C 
BRANCH  12  13
HETATM   13  C           1      26.145  41.097  50.625  0.00  0.00     0.248 C 
HETATM   14  N           1      26.252  42.306  51.247  0.00  0.00    -0.319 N 
HETATM   15  C           1      27.073  42.781  52.203  0.00  0.00     0.094 A 
HETATM   16  H           1      25.562  42.993  50.995  0.00  0.00     0.169 HD
HETATM   17  C           1      26.849  43.880  52.955  0.00  0.00     0.080 A 
HETATM   18  S           1      28.437  42.284  52.372  0.00  0.00    -0.076 SA
HETATM   19  C           1      27.939  44.124  53.705  0.00  0.00    -0.030 A 
HETATM   20  C           1      28.128  45.228  54.714  0.00  0.00     0.050 C 
HETATM   21  C           1      28.882  43.213  53.415  0.00  0.00    -0.012 A 
HETATM   22  C           1      30.254  43.140  54.037  0.00  0.00     0.057 C 
HETATM   23  O           1      26.812  40.126  50.878  0.00  0.00    -0.271 OA
BRANCH  17  24
HETATM   24  C           1      25.700  44.626  52.976  0.00  0.00     0.296 C 
HETATM   25  O           1      24.687  44.119  53.417  0.00  0.00    -0.259 OA
BRANCH  24  26
HETATM   26  O           1      25.663  45.917  52.524  0.00  0.00    -0.322 OA
HETATM   27  C           1      26.076  46.188  51.206  0.00  0.00     0.213 C 
ENDBRANCH  24  26
ENDBRANCH  17  24
ENDBRANCH  12  13
ENDBRANCH   2  12
BRANCH   1  28
HETATM   28  C           1      23.485  41.427  47.160  0.00  0.00     0.009 A 
HETATM   29  C           1      24.010  40.811  46.072  0.00  0.00     0.076 A 
HETATM   30  C           1      23.302  39.796  45.540  0.00  0.00     0.040 A 
HETATM   31  C           1      22.157  39.359  46.079  0.00  0.00     0.039 A 
HETATM   32  C           1      21.636  39.918  47.184  0.00  0.00     0.069 A 
HETATM   33  C           1      22.330  40.964  47.672  0.00  0.00     0.048 A 
BRANCH  29  34
HETATM   34  O           1      25.175  41.280  45.515  0.00  0.00    -0.355 OA
HETATM   35  C           1      25.678  40.675  44.347  0.00  0.00     0.210 C 
ENDBRANCH  29  34
BRANCH  32  36
HETATM   36  O           1      20.448  39.436  47.678  0.00  0.00    -0.356 OA
HETATM   37  C           1      19.742  38.473  46.933  0.00  0.00     0.210 C 
ENDBRANCH  32  36
ENDBRANCH   1  28
BRANCH   4  38
HETATM   38  O           1      22.814  46.070  48.457  0.00  0.00    -0.389 OA
HETATM   39  H           1      21.995  46.518  48.665  0.00  0.00     0.210 HD
ENDBRANCH   4  38
TORSDOF 8
ENDMDL
MODEL 10
REMARK VINA RESULT:      -6.8      2.368      4.238
REMARK  8 active torsions:
REMARK  status: ('A' for Active; 'I' for Inactive)
REMARK    1  A    between atoms: C_1  and  C_15 
REMARK    2  A    between atoms: C_2  and  C_11 
REMARK    3  A    between atoms: C_2  and  N_12 
REMARK    4  A    between atoms: C_5  and  C_6 
REMARK    5  A    between atoms: C_6  and  O_7 
REMARK       I    between atoms: N_10  and  C_11 
REMARK    6  A    between atoms: C_16  and  O_17 
REMARK    7  A    between atoms: C_20  and  O_22 
REMARK    8  A    between atoms: C_25  and  O_26 
ROOT
HETATM    1  C           1      17.177  48.304  46.476  0.00  0.00     0.231 C 
HETATM    2  N           1      18.370  47.488  46.008  0.00  0.00    -0.054 N 
HETATM    3  C           1      15.851  47.594  46.106  0.00  0.00     0.055 C 
HETATM    4  C           1      15.745  46.945  44.719  0.00  0.00     0.065 C 
HETATM    5  C           1      17.050  46.216  44.371  0.00  0.00     0.066 C 
HETATM    6  C           1      18.327  47.034  44.565  0.00  0.00     0.239 C 
HETATM    7  C           1      14.597  48.409  46.502  0.00  0.00     0.010 C 
HETATM    8  C           1      13.615  48.683  45.353  0.00  0.00     0.001 C 
HETATM    9  C           1      14.377  49.038  44.075  0.00  0.00     0.003 C 
HETATM   10  C           1      15.276  47.885  43.602  0.00  0.00     0.038 C 
HETATM   11  H           1      18.334  46.608  46.575  0.00  0.00     0.281 HD
ENDROOT
BRANCH   2  12
HETATM   12  C           1      19.689  48.151  46.354  0.00  0.00     0.338 C 
BRANCH  12  13
HETATM   13  C           1      20.453  47.338  47.388  0.00  0.00     0.248 C 
HETATM   14  N           1      21.703  47.819  47.643  0.00  0.00    -0.319 N 
HETATM   15  C           1      22.703  47.407  48.447  0.00  0.00     0.094 A 
HETATM   16  H           1      21.943  48.684  47.188  0.00  0.00     0.169 HD
HETATM   17  C           1      23.747  48.162  48.849  0.00  0.00     0.080 A 
HETATM   18  S           1      22.895  45.999  48.787  0.00  0.00    -0.076 SA
HETATM   19  C           1      24.611  47.384  49.527  0.00  0.00    -0.030 A 
HETATM   20  C           1      25.900  47.805  50.185  0.00  0.00     0.050 C 
HETATM   21  C           1      24.150  46.122  49.533  0.00  0.00    -0.012 A 
HETATM   22  C           1      24.826  44.944  50.187  0.00  0.00     0.057 C 
HETATM   23  O           1      19.956  46.381  47.925  0.00  0.00    -0.271 OA
BRANCH  17  24
HETATM   24  C           1      23.910  49.504  48.627  0.00  0.00     0.296 C 
HETATM   25  O           1      24.362  49.865  47.558  0.00  0.00    -0.259 OA
BRANCH  24  26
HETATM   26  O           1      23.575  50.442  49.566  0.00  0.00    -0.322 OA
HETATM   27  C           1      22.284  51.002  49.536  0.00  0.00     0.213 C 
ENDBRANCH  24  26
ENDBRANCH  17  24
ENDBRANCH  12  13
ENDBRANCH   2  12
BRANCH   1  28
HETATM   28  C           1      17.321  49.815  46.238  0.00  0.00     0.009 A 
HETATM   29  C           1      17.328  50.678  47.284  0.00  0.00     0.076 A 
HETATM   30  C           1      17.408  51.991  46.996  0.00  0.00     0.040 A 
HETATM   31  C           1      17.533  52.446  45.743  0.00  0.00     0.039 A 
HETATM   32  C           1      17.576  51.613  44.690  0.00  0.00     0.069 A 
HETATM   33  C           1      17.444  50.307  44.992  0.00  0.00     0.048 A 
BRANCH  29  34
HETATM   34  O           1      17.180  50.203  48.566  0.00  0.00    -0.355 OA
HETATM   35  C           1      17.875  50.825  49.620  0.00  0.00     0.210 C 
ENDBRANCH  29  34
BRANCH  32  36
HETATM   36  O           1      17.688  52.141  43.426  0.00  0.00    -0.356 OA
HETATM   37  C           1      16.544  52.188  42.605  0.00  0.00     0.210 C 
ENDBRANCH  32  36
ENDBRANCH   1  28
BRANCH   4  38
HETATM   38  O           1      14.786  45.911  44.817  0.00  0.00    -0.389 OA
HETATM   39  H           1      15.044  45.132  44.326  0.00  0.00     0.210 HD
ENDBRANCH   4  38
TORSDOF 8
ENDMDL
