MODEL 1
REMARK VINA RESULT:      -9.3      0.000      0.000
REMARK  1 active torsions:
REMARK  status: ('A' for Active; 'I' for Inactive)
REMARK    1  A    between atoms: C_8  and  C_9 
ROOT
HETATM    1  C   UNL     1      20.318  51.140  50.095  1.00  0.00     0.073 C 
HETATM    2  C   UNL     1      19.722  49.776  50.105  1.00  0.00     0.062 A 
HETATM    3  N   UNL     1      18.970  49.402  51.141  1.00  0.00    -0.178 NA
HETATM    4  N   UNL     1      18.567  48.173  50.817  1.00  0.00    -0.262 N 
HETATM    5  H   UNL     1      17.955  47.690  51.463  1.00  0.00     0.191 HD
HETATM    6  C   UNL     1      19.078  47.701  49.634  1.00  0.00     0.134 A 
HETATM    7  C   UNL     1      19.833  48.741  49.110  1.00  0.00     0.032 A 
HETATM    8  C   UNL     1      20.528  48.903  47.792  1.00  0.00     0.119 C 
HETATM    9  S   UNL     1      20.228  47.640  46.537  1.00  0.00    -0.141 SA
HETATM   10  C   UNL     1      20.541  46.137  47.507  1.00  0.00     0.136 C 
HETATM   11  C   UNL     1      21.045  45.057  46.550  1.00  0.00     0.031 C 
HETATM   12  C   UNL     1      19.271  45.685  48.216  1.00  0.00     0.236 C 
HETATM   13  O   UNL     1      18.740  44.594  47.988  1.00  0.00    -0.272 OA
HETATM   14  N   UNL     1      18.734  46.435  49.225  1.00  0.00    -0.311 N 
HETATM   15  H   UNL     1      17.983  45.946  49.701  1.00  0.00     0.170 HD
ENDROOT
BRANCH   8  16
HETATM   16  C   UNL     1      22.006  49.186  48.033  1.00  0.00    -0.039 A 
HETATM   17  C   UNL     1      22.746  48.263  48.802  1.00  0.00     0.021 A 
HETATM   18  C   UNL     1      24.124  48.421  49.031  1.00  0.00    -0.025 A 
HETATM   19  C   UNL     1      24.785  49.548  48.501  1.00  0.00    -0.026 A 
HETATM   20  C   UNL     1      24.858  47.474  49.764  1.00  0.00     0.012 A 
HETATM   21  C   UNL     1      24.051  50.485  47.761  1.00  0.00     0.013 A 
HETATM   22  C   UNL     1      26.165  49.701  48.719  1.00  0.00     0.012 A 
HETATM   23  C   UNL     1      22.684  50.306  47.528  1.00  0.00     0.009 A 
HETATM   24  C   UNL     1      26.881  48.750  49.447  1.00  0.00     0.001 A 
HETATM   25  C   UNL     1      26.230  47.636  49.967  1.00  0.00     0.001 A 
ENDBRANCH   8  16
TORSDOF 1
ENDMDL
MODEL 2
REMARK VINA RESULT:      -8.9      4.486      6.363
REMARK  1 active torsions:
REMARK  status: ('A' for Active; 'I' for Inactive)
REMARK    1  A    between atoms: C_8  and  C_9 
ROOT
HETATM    1  C   UNL     1      27.062  48.069  50.139  1.00  0.00     0.073 C 
HETATM    2  C   UNL     1      25.646  47.733  49.825  1.00  0.00     0.062 A 
HETATM    3  N   UNL     1      24.761  48.719  49.677  1.00  0.00    -0.178 NA
HETATM    4  N   UNL     1      23.628  48.088  49.366  1.00  0.00    -0.262 N 
HETATM    5  H   UNL     1      22.807  48.653  49.186  1.00  0.00     0.191 HD
HETATM    6  C   UNL     1      23.722  46.719  49.365  1.00  0.00     0.134 A 
HETATM    7  C   UNL     1      25.052  46.434  49.641  1.00  0.00     0.032 A 
HETATM    8  C   UNL     1      25.815  45.144  49.645  1.00  0.00     0.119 C 
HETATM    9  S   UNL     1      24.968  43.679  49.017  1.00  0.00    -0.141 SA
HETATM   10  C   UNL     1      23.415  43.775  49.954  1.00  0.00     0.136 C 
HETATM   11  C   UNL     1      22.890  42.351  50.139  1.00  0.00     0.031 C 
HETATM   12  C   UNL     1      22.399  44.637  49.215  1.00  0.00     0.236 C 
HETATM   13  O   UNL     1      21.322  44.188  48.812  1.00  0.00    -0.272 OA
HETATM   14  N   UNL     1      22.600  45.981  49.073  1.00  0.00    -0.311 N 
HETATM   15  H   UNL     1      21.782  46.449  48.696  1.00  0.00     0.170 HD
ENDROOT
BRANCH   8  16
HETATM   16  C   UNL     1      26.453  44.941  51.014  1.00  0.00    -0.039 A 
HETATM   17  C   UNL     1      27.604  44.128  51.100  1.00  0.00     0.021 A 
HETATM   18  C   UNL     1      28.285  43.928  52.314  1.00  0.00    -0.025 A 
HETATM   19  C   UNL     1      27.791  44.534  53.488  1.00  0.00    -0.026 A 
HETATM   20  C   UNL     1      29.452  43.150  52.380  1.00  0.00     0.012 A 
HETATM   21  C   UNL     1      26.631  45.318  53.416  1.00  0.00     0.013 A 
HETATM   22  C   UNL     1      28.476  44.344  54.699  1.00  0.00     0.012 A 
HETATM   23  C   UNL     1      25.975  45.521  52.198  1.00  0.00     0.009 A 
HETATM   24  C   UNL     1      29.637  43.571  54.748  1.00  0.00     0.001 A 
HETATM   25  C   UNL     1      30.126  42.976  53.589  1.00  0.00     0.001 A 
ENDBRANCH   8  16
TORSDOF 1
ENDMDL
MODEL 3
REMARK VINA RESULT:      -8.6      2.367      3.738
REMARK  1 active torsions:
REMARK  status: ('A' for Active; 'I' for Inactive)
REMARK    1  A    between atoms: C_8  and  C_9 
ROOT
HETATM    1  C   UNL     1      21.904  46.109  46.942  1.00  0.00     0.073 C 
HETATM    2  C   UNL     1      20.679  46.928  46.729  1.00  0.00     0.062 A 
HETATM    3  N   UNL     1      19.932  46.712  45.646  1.00  0.00    -0.178 NA
HETATM    4  N   UNL     1      18.914  47.562  45.785  1.00  0.00    -0.262 N 
HETATM    5  H   UNL     1      18.195  47.560  45.072  1.00  0.00     0.191 HD
HETATM    6  C   UNL     1      18.998  48.373  46.889  1.00  0.00     0.134 A 
HETATM    7  C   UNL     1      20.143  47.973  47.563  1.00  0.00     0.032 A 
HETATM    8  C   UNL     1      20.706  48.369  48.894  1.00  0.00     0.119 C 
HETATM    9  S   UNL     1      19.681  49.415  49.949  1.00  0.00    -0.141 SA
HETATM   10  C   UNL     1      19.229  50.722  48.771  1.00  0.00     0.136 C 
HETATM   11  C   UNL     1      19.004  52.010  49.563  1.00  0.00     0.031 C 
HETATM   12  C   UNL     1      17.976  50.333  47.997  1.00  0.00     0.236 C 
HETATM   13  O   UNL     1      16.931  50.987  48.061  1.00  0.00    -0.272 OA
HETATM   14  N   UNL     1      18.003  49.297  47.106  1.00  0.00    -0.311 N 
HETATM   15  H   UNL     1      17.149  49.245  46.560  1.00  0.00     0.170 HD
ENDROOT
BRANCH   8  16
HETATM   16  C   UNL     1      22.123  48.895  48.705  1.00  0.00    -0.039 A 
HETATM   17  C   UNL     1      23.180  48.216  49.348  1.00  0.00     0.021 A 
HETATM   18  C   UNL     1      24.522  48.603  49.187  1.00  0.00    -0.025 A 
HETATM   19  C   UNL     1      24.824  49.720  48.381  1.00  0.00    -0.026 A 
HETATM   20  C   UNL     1      25.568  47.894  49.801  1.00  0.00     0.012 A 
HETATM   21  C   UNL     1      23.778  50.419  47.763  1.00  0.00     0.013 A 
HETATM   22  C   UNL     1      26.165  50.102  48.211  1.00  0.00     0.012 A 
HETATM   23  C   UNL     1      22.449  50.012  47.919  1.00  0.00     0.009 A 
HETATM   24  C   UNL     1      27.194  49.385  48.824  1.00  0.00     0.001 A 
HETATM   25  C   UNL     1      26.896  48.281  49.616  1.00  0.00     0.001 A 
ENDBRANCH   8  16
TORSDOF 1
ENDMDL
MODEL 4
REMARK VINA RESULT:      -8.5      5.345      7.107
REMARK  1 active torsions:
REMARK  status: ('A' for Active; 'I' for Inactive)
REMARK    1  A    between atoms: C_8  and  C_9 
ROOT
HETATM    1  C   UNL     1      25.843  47.528  53.913  1.00  0.00     0.073 C 
HETATM    2  C   UNL     1      26.671  46.301  53.753  1.00  0.00     0.062 A 
HETATM    3  N   UNL     1      27.689  46.089  54.588  1.00  0.00    -0.178 NA
HETATM    4  N   UNL     1      28.178  44.910  54.203  1.00  0.00    -0.262 N 
HETATM    5  H   UNL     1      28.962  44.532  54.721  1.00  0.00     0.191 HD
HETATM    6  C   UNL     1      27.557  44.367  53.107  1.00  0.00     0.134 A 
HETATM    7  C   UNL     1      26.530  45.244  52.785  1.00  0.00     0.032 A 
HETATM    8  C   UNL     1      25.418  45.152  51.784  1.00  0.00     0.119 C 
HETATM    9  S   UNL     1      25.199  43.577  50.930  1.00  0.00    -0.141 SA
HETATM   10  C   UNL     1      26.900  43.271  50.372  1.00  0.00     0.136 C 
HETATM   11  C   UNL     1      26.831  42.444  49.088  1.00  0.00     0.031 C 
HETATM   12  C   UNL     1      27.691  42.539  51.448  1.00  0.00     0.236 C 
HETATM   13  O   UNL     1      28.166  41.413  51.268  1.00  0.00    -0.272 OA
HETATM   14  N   UNL     1      28.004  43.160  52.625  1.00  0.00    -0.311 N 
HETATM   15  H   UNL     1      28.654  42.613  53.181  1.00  0.00     0.170 HD
ENDROOT
BRANCH   8  16
HETATM   16  C   UNL     1      25.485  46.351  50.846  1.00  0.00    -0.039 A 
HETATM   17  C   UNL     1      24.272  46.923  50.405  1.00  0.00     0.021 A 
HETATM   18  C   UNL     1      24.242  48.060  49.579  1.00  0.00    -0.025 A 
HETATM   19  C   UNL     1      25.458  48.634  49.154  1.00  0.00    -0.026 A 
HETATM   20  C   UNL     1      23.029  48.644  49.179  1.00  0.00     0.012 A 
HETATM   21  C   UNL     1      26.667  48.055  49.563  1.00  0.00     0.013 A 
HETATM   22  C   UNL     1      25.430  49.778  48.338  1.00  0.00     0.012 A 
HETATM   23  C   UNL     1      26.681  46.933  50.398  1.00  0.00     0.009 A 
HETATM   24  C   UNL     1      24.216  50.349  47.952  1.00  0.00     0.001 A 
HETATM   25  C   UNL     1      23.016  49.784  48.374  1.00  0.00     0.001 A 
ENDBRANCH   8  16
TORSDOF 1
ENDMDL
MODEL 5
REMARK VINA RESULT:      -8.2     10.697     12.377
REMARK  1 active torsions:
REMARK  status: ('A' for Active; 'I' for Inactive)
REMARK    1  A    between atoms: C_8  and  C_9 
ROOT
HETATM    1  C   UNL     1      29.955  53.520  40.453  1.00  0.00     0.073 C 
HETATM    2  C   UNL     1      28.858  52.539  40.681  1.00  0.00     0.062 A 
HETATM    3  N   UNL     1      27.750  52.937  41.308  1.00  0.00    -0.178 NA
HETATM    4  N   UNL     1      26.975  51.852  41.306  1.00  0.00    -0.262 N 
HETATM    5  H   UNL     1      26.055  51.928  41.722  1.00  0.00     0.191 HD
HETATM    6  C   UNL     1      27.558  50.738  40.756  1.00  0.00     0.134 A 
HETATM    7  C   UNL     1      28.804  51.151  40.304  1.00  0.00     0.032 A 
HETATM    8  C   UNL     1      29.855  50.448  39.499  1.00  0.00     0.119 C 
HETATM    9  S   UNL     1      29.429  48.838  38.804  1.00  0.00    -0.141 SA
HETATM   10  C   UNL     1      28.765  48.013  40.280  1.00  0.00     0.136 C 
HETATM   11  C   UNL     1      29.015  46.512  40.130  1.00  0.00     0.031 C 
HETATM   12  C   UNL     1      27.278  48.303  40.431  1.00  0.00     0.236 C 
HETATM   13  O   UNL     1      26.424  47.412  40.397  1.00  0.00    -0.272 OA
HETATM   14  N   UNL     1      26.842  49.565  40.727  1.00  0.00    -0.311 N 
HETATM   15  H   UNL     1      25.851  49.582  40.943  1.00  0.00     0.170 HD
ENDROOT
BRANCH   8  16
HETATM   16  C   UNL     1      31.167  50.451  40.274  1.00  0.00    -0.039 A 
HETATM   17  C   UNL     1      32.328  50.917  39.620  1.00  0.00     0.021 A 
HETATM   18  C   UNL     1      33.569  51.000  40.275  1.00  0.00    -0.025 A 
HETATM   19  C   UNL     1      33.668  50.581  41.618  1.00  0.00    -0.026 A 
HETATM   20  C   UNL     1      34.708  51.504  39.626  1.00  0.00     0.012 A 
HETATM   21  C   UNL     1      32.526  50.089  42.265  1.00  0.00     0.013 A 
HETATM   22  C   UNL     1      34.905  50.674  42.278  1.00  0.00     0.012 A 
HETATM   23  C   UNL     1      31.295  50.027  41.606  1.00  0.00     0.009 A 
HETATM   24  C   UNL     1      36.027  51.180  41.620  1.00  0.00     0.001 A 
HETATM   25  C   UNL     1      35.929  51.597  40.296  1.00  0.00     0.001 A 
ENDBRANCH   8  16
TORSDOF 1
ENDMDL
MODEL 6
REMARK VINA RESULT:      -7.9     11.244     12.965
REMARK  1 active torsions:
REMARK  status: ('A' for Active; 'I' for Inactive)
REMARK    1  A    between atoms: C_8  and  C_9 
ROOT
HETATM    1  C   UNL     1      32.158  48.354  42.592  1.00  0.00     0.073 C 
HETATM    2  C   UNL     1      31.795  49.797  42.528  1.00  0.00     0.062 A 
HETATM    3  N   UNL     1      32.009  50.569  43.594  1.00  0.00    -0.178 NA
HETATM    4  N   UNL     1      31.624  51.781  43.192  1.00  0.00    -0.262 N 
HETATM    5  H   UNL     1      31.718  52.548  43.848  1.00  0.00     0.191 HD
HETATM    6  C   UNL     1      31.107  51.822  41.923  1.00  0.00     0.134 A 
HETATM    7  C   UNL     1      31.222  50.530  41.429  1.00  0.00     0.032 A 
HETATM    8  C   UNL     1      30.964  49.956  40.069  1.00  0.00     0.119 C 
HETATM    9  S   UNL     1      30.611  51.116  38.733  1.00  0.00    -0.141 SA
HETATM   10  C   UNL     1      29.316  52.124  39.512  1.00  0.00     0.136 C 
HETATM   11  C   UNL     1      28.403  52.652  38.405  1.00  0.00     0.031 C 
HETATM   12  C   UNL     1      29.934  53.272  40.300  1.00  0.00     0.236 C 
HETATM   13  O   UNL     1      29.719  54.455  40.021  1.00  0.00    -0.272 OA
HETATM   14  N   UNL     1      30.665  53.026  41.428  1.00  0.00    -0.311 N 
HETATM   15  H   UNL     1      30.888  53.880  41.928  1.00  0.00     0.170 HD
ENDROOT
BRANCH   8  16
HETATM   16  C   UNL     1      29.947  48.827  40.182  1.00  0.00    -0.039 A 
HETATM   17  C   UNL     1      30.193  47.632  39.474  1.00  0.00     0.021 A 
HETATM   18  C   UNL     1      29.332  46.523  39.563  1.00  0.00    -0.025 A 
HETATM   19  C   UNL     1      28.173  46.614  40.360  1.00  0.00    -0.026 A 
HETATM   20  C   UNL     1      29.610  45.324  38.886  1.00  0.00     0.012 A 
HETATM   21  C   UNL     1      27.905  47.809  41.042  1.00  0.00     0.013 A 
HETATM   22  C   UNL     1      27.318  45.503  40.458  1.00  0.00     0.012 A 
HETATM   23  C   UNL     1      28.779  48.897  40.958  1.00  0.00     0.009 A 
HETATM   24  C   UNL     1      27.609  44.318  39.782  1.00  0.00     0.001 A 
HETATM   25  C   UNL     1      28.755  44.227  38.998  1.00  0.00     0.001 A 
ENDBRANCH   8  16
TORSDOF 1
ENDMDL
MODEL 7
REMARK VINA RESULT:      -7.5      3.817      6.371
REMARK  1 active torsions:
REMARK  status: ('A' for Active; 'I' for Inactive)
REMARK    1  A    between atoms: C_8  and  C_9 
ROOT
HETATM    1  C   UNL     1      19.789  51.639  49.574  1.00  0.00     0.073 C 
HETATM    2  C   UNL     1      20.265  50.234  49.456  1.00  0.00     0.062 A 
HETATM    3  N   UNL     1      21.540  49.953  49.733  1.00  0.00    -0.178 NA
HETATM    4  N   UNL     1      21.618  48.632  49.574  1.00  0.00    -0.262 N 
HETATM    5  H   UNL     1      22.509  48.186  49.755  1.00  0.00     0.191 HD
HETATM    6  C   UNL     1      20.457  48.042  49.142  1.00  0.00     0.134 A 
HETATM    7  C   UNL     1      19.520  49.063  49.072  1.00  0.00     0.032 A 
HETATM    8  C   UNL     1      18.046  49.047  48.801  1.00  0.00     0.119 C 
HETATM    9  S   UNL     1      17.237  47.436  48.717  1.00  0.00    -0.141 SA
HETATM   10  C   UNL     1      18.344  46.576  47.562  1.00  0.00     0.136 C 
HETATM   11  C   UNL     1      17.518  45.531  46.811  1.00  0.00     0.031 C 
HETATM   12  C   UNL     1      19.495  45.920  48.314  1.00  0.00     0.236 C 
HETATM   13  O   UNL     1      19.675  44.699  48.312  1.00  0.00    -0.272 OA
HETATM   14  N   UNL     1      20.447  46.683  48.931  1.00  0.00    -0.311 N 
HETATM   15  H   UNL     1      21.225  46.123  49.262  1.00  0.00     0.170 HD
ENDROOT
BRANCH   8  16
HETATM   16  C   UNL     1      17.744  49.945  47.608  1.00  0.00    -0.039 A 
HETATM   17  C   UNL     1      16.634  50.813  47.690  1.00  0.00     0.021 A 
HETATM   18  C   UNL     1      16.313  51.711  46.656  1.00  0.00    -0.025 A 
HETATM   19  C   UNL     1      17.104  51.728  45.489  1.00  0.00    -0.026 A 
HETATM   20  C   UNL     1      15.231  52.599  46.767  1.00  0.00     0.012 A 
HETATM   21  C   UNL     1      18.190  50.847  45.387  1.00  0.00     0.013 A 
HETATM   22  C   UNL     1      16.791  52.632  44.460  1.00  0.00     0.012 A 
HETATM   23  C   UNL     1      18.507  49.972  46.430  1.00  0.00     0.009 A 
HETATM   24  C   UNL     1      15.715  53.511  44.586  1.00  0.00     0.001 A 
HETATM   25  C   UNL     1      14.936  53.496  45.739  1.00  0.00     0.001 A 
ENDBRANCH   8  16
TORSDOF 1
ENDMDL
MODEL 8
REMARK VINA RESULT:      -7.5     11.755     13.305
REMARK  1 active torsions:
REMARK  status: ('A' for Active; 'I' for Inactive)
REMARK    1  A    between atoms: C_8  and  C_9 
ROOT
HETATM    1  C   UNL     1      26.899  49.995  38.701  1.00  0.00     0.073 C 
HETATM    2  C   UNL     1      28.087  50.887  38.799  1.00  0.00     0.062 A 
HETATM    3  N   UNL     1      28.174  51.946  37.993  1.00  0.00    -0.178 NA
HETATM    4  N   UNL     1      29.310  52.538  38.365  1.00  0.00    -0.262 N 
HETATM    5  H   UNL     1      29.574  53.393  37.891  1.00  0.00     0.191 HD
HETATM    6  C   UNL     1      30.004  51.872  39.344  1.00  0.00     0.134 A 
HETATM    7  C   UNL     1      29.219  50.780  39.684  1.00  0.00     0.032 A 
HETATM    8  C   UNL     1      29.353  49.754  40.768  1.00  0.00     0.119 C 
HETATM    9  S   UNL     1      30.640  50.020  42.005  1.00  0.00    -0.141 SA
HETATM   10  C   UNL     1      32.067  50.339  40.927  1.00  0.00     0.136 C 
HETATM   11  C   UNL     1      33.325  49.885  41.667  1.00  0.00     0.031 C 
HETATM   12  C   UNL     1      32.148  51.819  40.573  1.00  0.00     0.236 C 
HETATM   13  O   UNL     1      33.111  52.522  40.894  1.00  0.00    -0.272 OA
HETATM   14  N   UNL     1      31.197  52.397  39.780  1.00  0.00    -0.311 N 
HETATM   15  H   UNL     1      31.454  53.340  39.507  1.00  0.00     0.170 HD
ENDROOT
BRANCH   8  16
HETATM   16  C   UNL     1      29.383  48.363  40.145  1.00  0.00    -0.039 A 
HETATM   17  C   UNL     1      28.539  47.371  40.686  1.00  0.00     0.021 A 
HETATM   18  C   UNL     1      28.466  46.077  40.141  1.00  0.00    -0.025 A 
HETATM   19  C   UNL     1      29.281  45.748  39.038  1.00  0.00    -0.026 A 
HETATM   20  C   UNL     1      27.592  45.110  40.663  1.00  0.00     0.012 A 
HETATM   21  C   UNL     1      30.145  46.719  38.514  1.00  0.00     0.013 A 
HETATM   22  C   UNL     1      29.201  44.459  38.486  1.00  0.00     0.012 A 
HETATM   23  C   UNL     1      30.193  48.007  39.056  1.00  0.00     0.009 A 
HETATM   24  C   UNL     1      28.325  43.509  39.013  1.00  0.00     0.001 A 
HETATM   25  C   UNL     1      27.519  43.835  40.099  1.00  0.00     0.001 A 
ENDBRANCH   8  16
TORSDOF 1
ENDMDL
MODEL 9
REMARK VINA RESULT:      -7.5     22.603     25.048
REMARK  1 active torsions:
REMARK  status: ('A' for Active; 'I' for Inactive)
REMARK    1  A    between atoms: C_8  and  C_9 
ROOT
HETATM    1  C   UNL     1      42.905  47.577  66.454  1.00  0.00     0.073 C 
HETATM    2  C   UNL     1      42.628  46.574  65.389  1.00  0.00     0.062 A 
HETATM    3  N   UNL     1      43.605  46.230  64.549  1.00  0.00    -0.178 NA
HETATM    4  N   UNL     1      43.046  45.302  63.771  1.00  0.00    -0.262 N 
HETATM    5  H   UNL     1      43.622  44.876  63.055  1.00  0.00     0.191 HD
HETATM    6  C   UNL     1      41.719  45.069  64.029  1.00  0.00     0.134 A 
HETATM    7  C   UNL     1      41.400  45.873  65.114  1.00  0.00     0.032 A 
HETATM    8  C   UNL     1      40.160  45.975  65.950  1.00  0.00     0.119 C 
HETATM    9  S   UNL     1      38.872  44.741  65.674  1.00  0.00    -0.141 SA
HETATM   10  C   UNL     1      38.714  44.835  63.867  1.00  0.00     0.136 C 
HETATM   11  C   UNL     1      37.277  44.460  63.501  1.00  0.00     0.031 C 
HETATM   12  C   UNL     1      39.708  43.897  63.194  1.00  0.00     0.236 C 
HETATM   13  O   UNL     1      39.349  42.954  62.484  1.00  0.00    -0.272 OA
HETATM   14  N   UNL     1      41.051  44.142  63.264  1.00  0.00    -0.311 N 
HETATM   15  H   UNL     1      41.580  43.528  62.654  1.00  0.00     0.170 HD
ENDROOT
BRANCH   8  16
HETATM   16  C   UNL     1      39.648  47.410  65.919  1.00  0.00    -0.039 A 
HETATM   17  C   UNL     1      38.902  47.876  67.022  1.00  0.00     0.021 A 
HETATM   18  C   UNL     1      38.435  49.200  67.099  1.00  0.00    -0.025 A 
HETATM   19  C   UNL     1      38.694  50.084  66.032  1.00  0.00    -0.026 A 
HETATM   20  C   UNL     1      37.728  49.664  68.221  1.00  0.00     0.012 A 
HETATM   21  C   UNL     1      39.408  49.620  64.919  1.00  0.00     0.013 A 
HETATM   22  C   UNL     1      38.237  51.410  66.112  1.00  0.00     0.012 A 
HETATM   23  C   UNL     1      39.881  48.305  64.864  1.00  0.00     0.009 A 
HETATM   24  C   UNL     1      37.539  51.858  67.235  1.00  0.00     0.001 A 
HETATM   25  C   UNL     1      37.286  50.986  68.290  1.00  0.00     0.001 A 
ENDBRANCH   8  16
TORSDOF 1
ENDMDL
MODEL 10
REMARK VINA RESULT:      -7.4     11.188     12.260
REMARK  1 active torsions:
REMARK  status: ('A' for Active; 'I' for Inactive)
REMARK    1  A    between atoms: C_8  and  C_9 
ROOT
HETATM    1  C   UNL     1      29.586  52.191  38.355  1.00  0.00     0.073 C 
HETATM    2  C   UNL     1      28.469  51.209  38.272  1.00  0.00     0.062 A 
HETATM    3  N   UNL     1      27.244  51.641  37.969  1.00  0.00    -0.178 NA
HETATM    4  N   UNL     1      26.512  50.527  37.934  1.00  0.00    -0.262 N 
HETATM    5  H   UNL     1      25.531  50.614  37.699  1.00  0.00     0.191 HD
HETATM    6  C   UNL     1      27.198  49.386  38.264  1.00  0.00     0.134 A 
HETATM    7  C   UNL     1      28.511  49.784  38.473  1.00  0.00     0.032 A 
HETATM    8  C   UNL     1      29.763  48.999  38.725  1.00  0.00     0.119 C 
HETATM    9  S   UNL     1      29.662  47.204  38.566  1.00  0.00    -0.141 SA
HETATM   10  C   UNL     1      28.202  46.869  39.594  1.00  0.00     0.136 C 
HETATM   11  C   UNL     1      28.353  45.463  40.177  1.00  0.00     0.031 C 
HETATM   12  C   UNL     1      26.929  46.980  38.765  1.00  0.00     0.236 C 
HETATM   13  O   UNL     1      26.169  46.023  38.591  1.00  0.00    -0.272 OA
HETATM   14  N   UNL     1      26.522  48.189  38.275  1.00  0.00    -0.311 N 
HETATM   15  H   UNL     1      25.591  48.141  37.873  1.00  0.00     0.170 HD
ENDROOT
BRANCH   8  16
HETATM   16  C   UNL     1      30.393  49.462  40.033  1.00  0.00    -0.039 A 
HETATM   17  C   UNL     1      31.739  49.883  40.014  1.00  0.00     0.021 A 
HETATM   18  C   UNL     1      32.383  50.372  41.165  1.00  0.00    -0.025 A 
HETATM   19  C   UNL     1      31.674  50.418  42.383  1.00  0.00    -0.026 A 
HETATM   20  C   UNL     1      33.712  50.826  41.124  1.00  0.00     0.012 A 
HETATM   21  C   UNL     1      30.346  49.973  42.417  1.00  0.00     0.013 A 
HETATM   22  C   UNL     1      32.313  50.916  43.531  1.00  0.00     0.012 A 
HETATM   23  C   UNL     1      29.713  49.505  41.261  1.00  0.00     0.009 A 
HETATM   24  C   UNL     1      33.632  51.368  43.474  1.00  0.00     0.001 A 
HETATM   25  C   UNL     1      34.331  51.325  42.271  1.00  0.00     0.001 A 
ENDBRANCH   8  16
TORSDOF 1
ENDMDL
