MODEL 1
REMARK VINA RESULT:      -9.1      0.000      0.000
REMARK  2 active torsions:
REMARK  status: ('A' for Active; 'I' for Inactive)
REMARK    1  A    between atoms: C_6  and  O_7 
REMARK    2  A    between atoms: C_6  and  C_8 
ROOT
HETATM    1  C   UNL     1      24.285  45.957  49.821  1.00  0.00     0.048 C 
HETATM    2  C   UNL     1      25.201  45.339  50.839  1.00  0.00    -0.059 A 
HETATM    3  C   UNL     1      26.492  44.934  50.489  1.00  0.00     0.037 A 
HETATM    4  C   UNL     1      27.283  44.378  51.475  1.00  0.00     0.046 A 
HETATM    5  C   UNL     1      26.854  44.212  52.799  1.00  0.00     0.023 A 
HETATM    6  C   UNL     1      27.970  43.561  53.596  1.00  0.00     0.199 A 
HETATM    7  C   UNL     1      29.040  43.302  52.476  1.00  0.00     0.266 A 
HETATM    8  O   UNL     1      30.083  42.673  52.578  1.00  0.00    -0.269 OA
HETATM    9  N   UNL     1      28.562  43.869  51.300  1.00  0.00    -0.323 N 
HETATM   10  C   UNL     1      25.556  44.577  53.157  1.00  0.00    -0.049 A 
HETATM   11  C   UNL     1      25.020  44.424  54.550  1.00  0.00     0.049 C 
HETATM   12  C   UNL     1      24.747  45.164  52.165  1.00  0.00     0.014 A 
HETATM   13  H   UNL     1      29.060  43.814  50.425  1.00  0.00     0.169 HD
ENDROOT
BRANCH   6  14
HETATM   14  O   UNL     1      27.486  42.358  54.174  1.00  0.00    -0.371 OA
HETATM   15  H   UNL     1      27.617  41.675  53.497  1.00  0.00     0.212 HD
ENDBRANCH   6  14
BRANCH   6  16
HETATM   16  C   UNL     1      28.507  44.541  54.625  1.00  0.00     0.018 A 
HETATM   17  C   UNL     1      29.566  44.268  55.575  1.00  0.00     0.002 A 
HETATM   18  C   UNL     1      29.728  45.401  56.375  1.00  0.00     0.043 A 
HETATM   19  C   UNL     1      30.407  43.161  55.829  1.00  0.00     0.014 A 
HETATM   20  C   UNL     1      30.649  45.470  57.427  1.00  0.00     0.030 A 
HETATM   21  N   UNL     1      28.851  46.350  55.914  1.00  0.00    -0.365 N 
HETATM   22  C   UNL     1      31.448  44.351  57.667  1.00  0.00     0.002 A 
HETATM   23  C   UNL     1      31.337  43.214  56.875  1.00  0.00     0.001 A 
HETATM   24  H   UNL     1      28.760  47.280  56.297  1.00  0.00     0.165 HD
HETATM   25  C   UNL     1      28.138  45.860  54.856  1.00  0.00     0.100 A 
ENDBRANCH   6  16
TORSDOF 2
ENDMDL
MODEL 2
REMARK VINA RESULT:      -8.1     13.948     16.122
REMARK  2 active torsions:
REMARK  status: ('A' for Active; 'I' for Inactive)
REMARK    1  A    between atoms: C_6  and  O_7 
REMARK    2  A    between atoms: C_6  and  C_8 
ROOT
HETATM    1  C   UNL     1      35.345  51.268  39.759  1.00  0.00     0.048 C 
HETATM    2  C   UNL     1      33.864  51.498  39.853  1.00  0.00    -0.059 A 
HETATM    3  C   UNL     1      33.065  51.498  38.705  1.00  0.00     0.037 A 
HETATM    4  C   UNL     1      31.710  51.711  38.863  1.00  0.00     0.046 A 
HETATM    5  C   UNL     1      31.107  51.914  40.112  1.00  0.00     0.023 A 
HETATM    6  C   UNL     1      29.618  52.126  39.906  1.00  0.00     0.199 A 
HETATM    7  C   UNL     1      29.516  52.109  38.338  1.00  0.00     0.266 A 
HETATM    8  O   UNL     1      28.536  52.371  37.655  1.00  0.00    -0.269 OA
HETATM    9  N   UNL     1      30.777  51.802  37.840  1.00  0.00    -0.323 N 
HETATM   10  C   UNL     1      31.893  51.953  41.263  1.00  0.00    -0.049 A 
HETATM   11  C   UNL     1      31.324  52.174  42.633  1.00  0.00     0.049 C 
HETATM   12  C   UNL     1      33.274  51.718  41.116  1.00  0.00     0.014 A 
HETATM   13  H   UNL     1      30.979  51.755  36.853  1.00  0.00     0.169 HD
ENDROOT
BRANCH   6  14
HETATM   14  O   UNL     1      29.247  53.379  40.460  1.00  0.00    -0.371 OA
HETATM   15  H   UNL     1      28.676  53.169  41.216  1.00  0.00     0.212 HD
ENDBRANCH   6  14
BRANCH   6  16
HETATM   16  C   UNL     1      28.844  50.961  40.499  1.00  0.00     0.018 A 
HETATM   17  C   UNL     1      29.130  49.560  40.275  1.00  0.00     0.002 A 
HETATM   18  C   UNL     1      28.164  48.811  40.951  1.00  0.00     0.043 A 
HETATM   19  C   UNL     1      30.124  48.854  39.561  1.00  0.00     0.014 A 
HETATM   20  C   UNL     1      28.118  47.412  40.918  1.00  0.00     0.030 A 
HETATM   21  N   UNL     1      27.349  49.700  41.605  1.00  0.00    -0.365 N 
HETATM   22  C   UNL     1      29.101  46.745  40.184  1.00  0.00     0.002 A 
HETATM   23  C   UNL     1      30.097  47.453  39.521  1.00  0.00     0.001 A 
HETATM   24  H   UNL     1      26.567  49.437  42.189  1.00  0.00     0.165 HD
HETATM   25  C   UNL     1      27.759  50.981  41.366  1.00  0.00     0.100 A 
ENDBRANCH   6  16
TORSDOF 2
ENDMDL
MODEL 3
REMARK VINA RESULT:      -8.0     14.185     15.432
REMARK  2 active torsions:
REMARK  status: ('A' for Active; 'I' for Inactive)
REMARK    1  A    between atoms: C_6  and  O_7 
REMARK    2  A    between atoms: C_6  and  C_8 
ROOT
HETATM    1  C   UNL     1      39.991  39.223  63.471  1.00  0.00     0.048 C 
HETATM    2  C   UNL     1      39.206  40.479  63.723  1.00  0.00    -0.059 A 
HETATM    3  C   UNL     1      38.067  40.462  64.535  1.00  0.00     0.037 A 
HETATM    4  C   UNL     1      37.395  41.653  64.728  1.00  0.00     0.046 A 
HETATM    5  C   UNL     1      37.807  42.866  64.159  1.00  0.00     0.023 A 
HETATM    6  C   UNL     1      36.832  43.954  64.571  1.00  0.00     0.199 A 
HETATM    7  C   UNL     1      35.763  43.126  65.371  1.00  0.00     0.266 A 
HETATM    8  O   UNL     1      34.691  43.521  65.806  1.00  0.00    -0.269 OA
HETATM    9  N   UNL     1      36.221  41.816  65.449  1.00  0.00    -0.323 N 
HETATM   10  C   UNL     1      38.919  42.895  63.318  1.00  0.00    -0.049 A 
HETATM   11  C   UNL     1      39.417  44.150  62.666  1.00  0.00     0.049 C 
HETATM   12  C   UNL     1      39.624  41.690  63.129  1.00  0.00     0.014 A 
HETATM   13  H   UNL     1      35.697  41.079  65.895  1.00  0.00     0.169 HD
ENDROOT
BRANCH   6  14
HETATM   14  O   UNL     1      36.291  44.556  63.406  1.00  0.00    -0.371 OA
HETATM   15  H   UNL     1      35.556  45.109  63.717  1.00  0.00     0.212 HD
ENDBRANCH   6  14
BRANCH   6  16
HETATM   16  C   UNL     1      37.525  44.948  65.487  1.00  0.00     0.018 A 
HETATM   17  C   UNL     1      37.511  46.387  65.332  1.00  0.00     0.002 A 
HETATM   18  C   UNL     1      38.303  46.936  66.342  1.00  0.00     0.043 A 
HETATM   19  C   UNL     1      36.894  47.280  64.426  1.00  0.00     0.014 A 
HETATM   20  C   UNL     1      38.541  48.310  66.469  1.00  0.00     0.030 A 
HETATM   21  N   UNL     1      38.747  45.895  67.118  1.00  0.00    -0.365 N 
HETATM   22  C   UNL     1      37.936  49.163  65.544  1.00  0.00     0.002 A 
HETATM   23  C   UNL     1      37.116  48.658  64.540  1.00  0.00     0.001 A 
HETATM   24  H   UNL     1      39.332  45.998  67.935  1.00  0.00     0.165 HD
HETATM   25  C   UNL     1      38.269  44.709  66.636  1.00  0.00     0.100 A 
ENDBRANCH   6  16
TORSDOF 2
ENDMDL
MODEL 4
REMARK VINA RESULT:      -8.0     10.246     12.771
REMARK  2 active torsions:
REMARK  status: ('A' for Active; 'I' for Inactive)
REMARK    1  A    between atoms: C_6  and  O_7 
REMARK    2  A    between atoms: C_6  and  C_8 
ROOT
HETATM    1  C   UNL     1      23.729  51.269  48.065  1.00  0.00     0.048 C 
HETATM    2  C   UNL     1      22.536  50.437  48.441  1.00  0.00    -0.059 A 
HETATM    3  C   UNL     1      21.817  50.704  49.610  1.00  0.00     0.037 A 
HETATM    4  C   UNL     1      20.728  49.902  49.893  1.00  0.00     0.046 A 
HETATM    5  C   UNL     1      20.313  48.852  49.063  1.00  0.00     0.023 A 
HETATM    6  C   UNL     1      19.101  48.185  49.688  1.00  0.00     0.199 A 
HETATM    7  C   UNL     1      18.980  48.971  51.043  1.00  0.00     0.266 A 
HETATM    8  O   UNL     1      18.231  48.726  51.978  1.00  0.00    -0.269 OA
HETATM    9  N   UNL     1      19.935  49.980  51.029  1.00  0.00    -0.323 N 
HETATM   10  C   UNL     1      21.040  48.550  47.912  1.00  0.00    -0.049 A 
HETATM   11  C   UNL     1      20.666  47.437  46.978  1.00  0.00     0.049 C 
HETATM   12  C   UNL     1      22.142  49.372  47.603  1.00  0.00     0.014 A 
HETATM   13  H   UNL     1      20.075  50.612  51.803  1.00  0.00     0.169 HD
ENDROOT
BRANCH   6  14
HETATM   14  O   UNL     1      19.379  46.807  49.883  1.00  0.00    -0.371 OA
HETATM   15  H   UNL     1      18.586  46.440  50.305  1.00  0.00     0.212 HD
ENDBRANCH   6  14
BRANCH   6  16
HETATM   16  C   UNL     1      17.875  48.429  48.824  1.00  0.00     0.018 A 
HETATM   17  C   UNL     1      17.522  49.686  48.199  1.00  0.00     0.002 A 
HETATM   18  C   UNL     1      16.305  49.510  47.538  1.00  0.00     0.043 A 
HETATM   19  C   UNL     1      18.126  50.962  48.131  1.00  0.00     0.014 A 
HETATM   20  C   UNL     1      15.649  50.540  46.853  1.00  0.00     0.030 A 
HETATM   21  N   UNL     1      15.944  48.196  47.698  1.00  0.00    -0.365 N 
HETATM   22  C   UNL     1      16.260  51.795  46.825  1.00  0.00     0.002 A 
HETATM   23  C   UNL     1      17.486  52.004  47.447  1.00  0.00     0.001 A 
HETATM   24  H   UNL     1      15.109  47.780  47.311  1.00  0.00     0.165 HD
HETATM   25  C   UNL     1      16.883  47.535  48.439  1.00  0.00     0.100 A 
ENDBRANCH   6  16
TORSDOF 2
ENDMDL
MODEL 5
REMARK VINA RESULT:      -7.9     13.331     15.581
REMARK  2 active torsions:
REMARK  status: ('A' for Active; 'I' for Inactive)
REMARK    1  A    between atoms: C_6  and  O_7 
REMARK    2  A    between atoms: C_6  and  C_8 
ROOT
HETATM    1  C   UNL     1      33.159  51.911  44.364  1.00  0.00     0.048 C 
HETATM    2  C   UNL     1      32.319  51.444  43.210  1.00  0.00    -0.059 A 
HETATM    3  C   UNL     1      32.583  50.225  42.578  1.00  0.00     0.037 A 
HETATM    4  C   UNL     1      31.769  49.854  41.526  1.00  0.00     0.046 A 
HETATM    5  C   UNL     1      30.695  50.634  41.077  1.00  0.00     0.023 A 
HETATM    6  C   UNL     1      30.036  49.929  39.905  1.00  0.00     0.199 A 
HETATM    7  C   UNL     1      30.982  48.689  39.718  1.00  0.00     0.266 A 
HETATM    8  O   UNL     1      30.960  47.869  38.811  1.00  0.00    -0.269 OA
HETATM    9  N   UNL     1      31.915  48.715  40.747  1.00  0.00    -0.323 N 
HETATM   10  C   UNL     1      30.439  51.869  41.672  1.00  0.00    -0.049 A 
HETATM   11  C   UNL     1      29.315  52.766  41.242  1.00  0.00     0.049 C 
HETATM   12  C   UNL     1      31.251  52.249  42.758  1.00  0.00     0.014 A 
HETATM   13  H   UNL     1      32.653  48.033  40.834  1.00  0.00     0.169 HD
ENDROOT
BRANCH   6  14
HETATM   14  O   UNL     1      30.045  50.794  38.779  1.00  0.00    -0.371 OA
HETATM   15  H   UNL     1      29.160  50.719  38.387  1.00  0.00     0.212 HD
ENDBRANCH   6  14
BRANCH   6  16
HETATM   16  C   UNL     1      28.640  49.476  40.295  1.00  0.00     0.018 A 
HETATM   17  C   UNL     1      27.547  49.230  39.378  1.00  0.00     0.002 A 
HETATM   18  C   UNL     1      26.424  48.881  40.130  1.00  0.00     0.043 A 
HETATM   19  C   UNL     1      27.407  49.270  37.971  1.00  0.00     0.014 A 
HETATM   20  C   UNL     1      25.174  48.610  39.561  1.00  0.00     0.030 A 
HETATM   21  N   UNL     1      26.811  48.859  41.446  1.00  0.00    -0.365 N 
HETATM   22  C   UNL     1      25.063  48.681  38.171  1.00  0.00     0.002 A 
HETATM   23  C   UNL     1      26.164  48.998  37.384  1.00  0.00     0.001 A 
HETATM   24  H   UNL     1      26.203  48.622  42.218  1.00  0.00     0.165 HD
HETATM   25  C   UNL     1      28.133  49.185  41.556  1.00  0.00     0.100 A 
ENDBRANCH   6  16
TORSDOF 2
ENDMDL
MODEL 6
REMARK VINA RESULT:      -7.9     13.787     14.929
REMARK  2 active torsions:
REMARK  status: ('A' for Active; 'I' for Inactive)
REMARK    1  A    between atoms: C_6  and  O_7 
REMARK    2  A    between atoms: C_6  and  C_8 
ROOT
HETATM    1  C   UNL     1      24.477  47.519  40.109  1.00  0.00     0.048 C 
HETATM    2  C   UNL     1      25.755  48.291  39.950  1.00  0.00    -0.059 A 
HETATM    3  C   UNL     1      25.790  49.474  39.205  1.00  0.00     0.037 A 
HETATM    4  C   UNL     1      26.998  50.135  39.102  1.00  0.00     0.046 A 
HETATM    5  C   UNL     1      28.174  49.683  39.715  1.00  0.00     0.023 A 
HETATM    6  C   UNL     1      29.301  50.644  39.379  1.00  0.00     0.199 A 
HETATM    7  C   UNL     1      28.578  51.639  38.402  1.00  0.00     0.266 A 
HETATM    8  O   UNL     1      29.088  52.532  37.742  1.00  0.00    -0.269 OA
HETATM    9  N   UNL     1      27.234  51.284  38.361  1.00  0.00    -0.323 N 
HETATM   10  C   UNL     1      28.166  48.486  40.431  1.00  0.00    -0.049 A 
HETATM   11  C   UNL     1      29.384  47.931  41.108  1.00  0.00     0.049 C 
HETATM   12  C   UNL     1      26.936  47.812  40.559  1.00  0.00     0.014 A 
HETATM   13  H   UNL     1      26.561  51.760  37.781  1.00  0.00     0.169 HD
ENDROOT
BRANCH   6  14
HETATM   14  O   UNL     1      30.349  49.927  38.746  1.00  0.00    -0.371 OA
HETATM   15  H   UNL     1      30.104  48.990  38.820  1.00  0.00     0.212 HD
ENDBRANCH   6  14
BRANCH   6  16
HETATM   16  C   UNL     1      29.750  51.369  40.636  1.00  0.00     0.018 A 
HETATM   17  C   UNL     1      31.001  51.151  41.332  1.00  0.00     0.002 A 
HETATM   18  C   UNL     1      31.013  51.972  42.461  1.00  0.00     0.043 A 
HETATM   19  C   UNL     1      32.130  50.332  41.106  1.00  0.00     0.014 A 
HETATM   20  C   UNL     1      32.064  51.988  43.386  1.00  0.00     0.030 A 
HETATM   21  N   UNL     1      29.852  52.702  42.442  1.00  0.00    -0.365 N 
HETATM   22  C   UNL     1      33.154  51.149  43.147  1.00  0.00     0.002 A 
HETATM   23  C   UNL     1      33.193  50.337  42.019  1.00  0.00     0.001 A 
HETATM   24  H   UNL     1      29.598  53.393  43.134  1.00  0.00     0.165 HD
HETATM   25  C   UNL     1      29.104  52.373  41.346  1.00  0.00     0.100 A 
ENDBRANCH   6  16
TORSDOF 2
ENDMDL
MODEL 7
REMARK VINA RESULT:      -7.8     13.513     15.207
REMARK  2 active torsions:
REMARK  status: ('A' for Active; 'I' for Inactive)
REMARK    1  A    between atoms: C_6  and  O_7 
REMARK    2  A    between atoms: C_6  and  C_8 
ROOT
HETATM    1  C   UNL     1      31.025  54.194  40.880  1.00  0.00     0.048 C 
HETATM    2  C   UNL     1      30.941  52.726  40.573  1.00  0.00    -0.059 A 
HETATM    3  C   UNL     1      31.774  51.810  41.222  1.00  0.00     0.037 A 
HETATM    4  C   UNL     1      31.641  50.475  40.895  1.00  0.00     0.046 A 
HETATM    5  C   UNL     1      30.711  50.004  39.958  1.00  0.00     0.023 A 
HETATM    6  C   UNL     1      30.854  48.497  39.842  1.00  0.00     0.199 A 
HETATM    7  C   UNL     1      32.079  48.229  40.788  1.00  0.00     0.266 A 
HETATM    8  O   UNL     1      32.681  47.176  40.943  1.00  0.00    -0.269 OA
HETATM    9  N   UNL     1      32.416  49.436  41.390  1.00  0.00    -0.323 N 
HETATM   10  C   UNL     1      29.898  50.908  39.275  1.00  0.00    -0.049 A 
HETATM   11  C   UNL     1      28.885  50.484  38.253  1.00  0.00     0.049 C 
HETATM   12  C   UNL     1      30.011  52.270  39.614  1.00  0.00     0.014 A 
HETATM   13  H   UNL     1      33.192  49.532  42.027  1.00  0.00     0.169 HD
ENDROOT
BRANCH   6  14
HETATM   14  O   UNL     1      31.127  48.159  38.491  1.00  0.00    -0.371 OA
HETATM   15  H   UNL     1      31.604  47.315  38.526  1.00  0.00     0.212 HD
ENDBRANCH   6  14
BRANCH   6  16
HETATM   16  C   UNL     1      29.608  47.818  40.385  1.00  0.00     0.018 A 
HETATM   17  C   UNL     1      29.128  46.508  39.999  1.00  0.00     0.002 A 
HETATM   18  C   UNL     1      27.933  46.270  40.681  1.00  0.00     0.043 A 
HETATM   19  C   UNL     1      29.599  45.496  39.131  1.00  0.00     0.014 A 
HETATM   20  C   UNL     1      27.175  45.105  40.515  1.00  0.00     0.030 A 
HETATM   21  N   UNL     1      27.708  47.354  41.491  1.00  0.00    -0.365 N 
HETATM   22  C   UNL     1      27.655  44.136  39.632  1.00  0.00     0.002 A 
HETATM   23  C   UNL     1      28.855  44.322  38.955  1.00  0.00     0.001 A 
HETATM   24  H   UNL     1      26.918  47.449  42.114  1.00  0.00     0.165 HD
HETATM   25  C   UNL     1      28.711  48.270  41.344  1.00  0.00     0.100 A 
ENDBRANCH   6  16
TORSDOF 2
ENDMDL
MODEL 8
REMARK VINA RESULT:      -7.5     14.158     16.045
REMARK  2 active torsions:
REMARK  status: ('A' for Active; 'I' for Inactive)
REMARK    1  A    between atoms: C_6  and  O_7 
REMARK    2  A    between atoms: C_6  and  C_8 
ROOT
HETATM    1  C   UNL     1      35.893  47.450  65.688  1.00  0.00     0.048 C 
HETATM    2  C   UNL     1      36.936  46.510  65.155  1.00  0.00    -0.059 A 
HETATM    3  C   UNL     1      38.283  46.885  65.110  1.00  0.00     0.037 A 
HETATM    4  C   UNL     1      39.190  45.971  64.612  1.00  0.00     0.046 A 
HETATM    5  C   UNL     1      38.824  44.694  64.164  1.00  0.00     0.023 A 
HETATM    6  C   UNL     1      40.068  43.973  63.676  1.00  0.00     0.199 A 
HETATM    7  C   UNL     1      41.157  45.094  63.832  1.00  0.00     0.266 A 
HETATM    8  O   UNL     1      42.318  45.059  63.449  1.00  0.00    -0.269 OA
HETATM    9  N   UNL     1      40.549  46.187  64.438  1.00  0.00    -0.323 N 
HETATM   10  C   UNL     1      37.481  44.317  64.168  1.00  0.00    -0.049 A 
HETATM   11  C   UNL     1      37.009  42.974  63.696  1.00  0.00     0.049 C 
HETATM   12  C   UNL     1      36.549  45.234  64.691  1.00  0.00     0.014 A 
HETATM   13  H   UNL     1      41.037  47.050  64.626  1.00  0.00     0.169 HD
ENDROOT
BRANCH   6  14
HETATM   14  O   UNL     1      39.878  43.585  62.324  1.00  0.00    -0.371 OA
HETATM   15  H   UNL     1      39.495  42.695  62.361  1.00  0.00     0.212 HD
ENDBRANCH   6  14
BRANCH   6  16
HETATM   16  C   UNL     1      40.378  42.802  64.592  1.00  0.00     0.018 A 
HETATM   17  C   UNL     1      40.186  41.405  64.268  1.00  0.00     0.002 A 
HETATM   18  C   UNL     1      40.539  40.650  65.388  1.00  0.00     0.043 A 
HETATM   19  C   UNL     1      39.745  40.706  63.120  1.00  0.00     0.014 A 
HETATM   20  C   UNL     1      40.439  39.254  65.435  1.00  0.00     0.030 A 
HETATM   21  N   UNL     1      40.978  41.530  66.345  1.00  0.00    -0.365 N 
HETATM   22  C   UNL     1      39.977  38.596  64.293  1.00  0.00     0.002 A 
HETATM   23  C   UNL     1      39.643  39.309  63.147  1.00  0.00     0.001 A 
HETATM   24  H   UNL     1      41.313  41.261  67.259  1.00  0.00     0.165 HD
HETATM   25  C   UNL     1      40.913  42.811  65.875  1.00  0.00     0.100 A 
ENDBRANCH   6  16
TORSDOF 2
ENDMDL
MODEL 9
REMARK VINA RESULT:      -7.4      7.317     10.128
REMARK  2 active torsions:
REMARK  status: ('A' for Active; 'I' for Inactive)
REMARK    1  A    between atoms: C_6  and  O_7 
REMARK    2  A    between atoms: C_6  and  C_8 
ROOT
HETATM    1  C   UNL     1      16.572  51.337  46.310  1.00  0.00     0.048 C 
HETATM    2  C   UNL     1      17.767  50.654  46.912  1.00  0.00    -0.059 A 
HETATM    3  C   UNL     1      18.284  49.484  46.347  1.00  0.00     0.037 A 
HETATM    4  C   UNL     1      19.387  48.910  46.948  1.00  0.00     0.046 A 
HETATM    5  C   UNL     1      20.010  49.451  48.081  1.00  0.00     0.023 A 
HETATM    6  C   UNL     1      21.173  48.557  48.473  1.00  0.00     0.199 A 
HETATM    7  C   UNL     1      21.026  47.386  47.436  1.00  0.00     0.266 A 
HETATM    8  O   UNL     1      21.649  46.335  47.411  1.00  0.00    -0.269 OA
HETATM    9  N   UNL     1      19.996  47.724  46.565  1.00  0.00    -0.323 N 
HETATM   10  C   UNL     1      19.486  50.597  48.679  1.00  0.00    -0.049 A 
HETATM   11  C   UNL     1      20.089  51.231  49.897  1.00  0.00     0.049 C 
HETATM   12  C   UNL     1      18.373  51.202  48.064  1.00  0.00     0.014 A 
HETATM   13  H   UNL     1      19.690  47.119  45.819  1.00  0.00     0.169 HD
ENDROOT
BRANCH   6  14
HETATM   14  O   UNL     1      20.993  48.122  49.812  1.00  0.00    -0.371 OA
HETATM   15  H   UNL     1      21.129  47.161  49.793  1.00  0.00     0.212 HD
ENDBRANCH   6  14
BRANCH   6  16
HETATM   16  C   UNL     1      22.484  49.293  48.257  1.00  0.00     0.018 A 
HETATM   17  C   UNL     1      23.781  48.858  48.729  1.00  0.00     0.002 A 
HETATM   18  C   UNL     1      24.717  49.831  48.373  1.00  0.00     0.043 A 
HETATM   19  C   UNL     1      24.251  47.721  49.426  1.00  0.00     0.014 A 
HETATM   20  C   UNL     1      26.074  49.747  48.707  1.00  0.00     0.030 A 
HETATM   21  N   UNL     1      24.045  50.798  47.670  1.00  0.00    -0.365 N 
HETATM   22  C   UNL     1      26.502  48.624  49.417  1.00  0.00     0.002 A 
HETATM   23  C   UNL     1      25.607  47.618  49.765  1.00  0.00     0.001 A 
HETATM   24  H   UNL     1      24.477  51.621  47.273  1.00  0.00     0.165 HD
HETATM   25  C   UNL     1      22.721  50.477  47.570  1.00  0.00     0.100 A 
ENDBRANCH   6  16
TORSDOF 2
ENDMDL
MODEL 10
REMARK VINA RESULT:      -7.2     13.936     15.491
REMARK  2 active torsions:
REMARK  status: ('A' for Active; 'I' for Inactive)
REMARK    1  A    between atoms: C_6  and  O_7 
REMARK    2  A    between atoms: C_6  and  C_8 
ROOT
HETATM    1  C   UNL     1      26.346  48.231  40.876  1.00  0.00     0.048 C 
HETATM    2  C   UNL     1      27.583  49.060  40.681  1.00  0.00    -0.059 A 
HETATM    3  C   UNL     1      27.697  50.325  41.267  1.00  0.00     0.037 A 
HETATM    4  C   UNL     1      28.864  51.032  41.050  1.00  0.00     0.046 A 
HETATM    5  C   UNL     1      29.930  50.538  40.287  1.00  0.00     0.023 A 
HETATM    6  C   UNL     1      31.032  51.581  40.253  1.00  0.00     0.199 A 
HETATM    7  C   UNL     1      30.359  52.767  41.033  1.00  0.00     0.266 A 
HETATM    8  O   UNL     1      30.789  53.903  41.171  1.00  0.00    -0.269 OA
HETATM    9  N   UNL     1      29.129  52.318  41.500  1.00  0.00    -0.323 N 
HETATM   10  C   UNL     1      29.818  49.294  39.666  1.00  0.00    -0.049 A 
HETATM   11  C   UNL     1      30.910  48.700  38.826  1.00  0.00     0.049 C 
HETATM   12  C   UNL     1      28.641  48.555  39.895  1.00  0.00     0.014 A 
HETATM   13  H   UNL     1      28.492  52.906  42.014  1.00  0.00     0.169 HD
ENDROOT
BRANCH   6  14
HETATM   14  O   UNL     1      31.315  51.912  38.902  1.00  0.00    -0.371 OA
HETATM   15  H   UNL     1      30.580  52.476  38.613  1.00  0.00     0.212 HD
ENDBRANCH   6  14
BRANCH   6  16
HETATM   16  C   UNL     1      32.247  51.073  41.008  1.00  0.00     0.018 A 
HETATM   17  C   UNL     1      33.615  51.127  40.537  1.00  0.00     0.002 A 
HETATM   18  C   UNL     1      34.424  50.514  41.495  1.00  0.00     0.043 A 
HETATM   19  C   UNL     1      34.244  51.645  39.382  1.00  0.00     0.014 A 
HETATM   20  C   UNL     1      35.808  50.359  41.343  1.00  0.00     0.030 A 
HETATM   21  N   UNL     1      33.609  50.142  42.534  1.00  0.00    -0.365 N 
HETATM   22  C   UNL     1      36.395  50.860  40.180  1.00  0.00     0.002 A 
HETATM   23  C   UNL     1      35.628  51.503  39.215  1.00  0.00     0.001 A 
HETATM   24  H   UNL     1      33.929  49.687  43.377  1.00  0.00     0.165 HD
HETATM   25  C   UNL     1      32.316  50.493  42.269  1.00  0.00     0.100 A 
ENDBRANCH   6  16
TORSDOF 2
ENDMDL
