MODEL 1
REMARK VINA RESULT:     -10.9      0.000      0.000
REMARK  9 active torsions:
REMARK  status: ('A' for Active; 'I' for Inactive)
REMARK       I    between atoms: C_2  and  N_3 
REMARK    1  A    between atoms: N_3  and  C_4 
REMARK    2  A    between atoms: C_7  and  O_8 
REMARK    3  A    between atoms: O_8  and  C_9 
REMARK    4  A    between atoms: C_9  and  C_10 
REMARK    5  A    between atoms: C_11  and  O_12 
REMARK    6  A    between atoms: C_16  and  C_17 
REMARK    7  A    between atoms: C_31  and  O_32 
REMARK    8  A    between atoms: O_32  and  C_33 
REMARK    9  A    between atoms: C_33  and  C_34 
ROOT
HETATM    1  C   UNL     1      23.609  49.064  48.530  1.00  0.00     0.269 C 
HETATM    2  N   UNL     1      24.602  50.199  48.477  1.00  0.00    -0.061 N 
HETATM    3  H   UNL     1      24.612  50.648  49.399  1.00  0.00     0.278 HD
HETATM    4  H   UNL     1      24.253  50.899  47.812  1.00  0.00     0.278 HD
HETATM    5  C   UNL     1      26.002  49.763  48.124  1.00  0.00     0.238 C 
HETATM    6  C   UNL     1      26.575  48.817  49.197  1.00  0.00     0.069 C 
HETATM    7  C   UNL     1      25.559  47.801  49.599  1.00  0.00    -0.019 A 
HETATM    8  C   UNL     1      24.215  47.953  49.313  1.00  0.00     0.052 A 
HETATM    9  N   UNL     1      23.546  46.866  49.817  1.00  0.00    -0.356 N 
HETATM   10  H   UNL     1      22.549  46.692  49.766  1.00  0.00     0.166 HD
HETATM   11  C   UNL     1      24.445  46.009  50.415  1.00  0.00     0.043 A 
HETATM   12  C   UNL     1      25.719  46.568  50.288  1.00  0.00     0.002 A 
HETATM   13  C   UNL     1      24.223  44.786  51.051  1.00  0.00     0.033 A 
HETATM   14  C   UNL     1      25.336  44.115  51.563  1.00  0.00     0.039 A 
HETATM   15  C   UNL     1      26.626  44.635  51.445  1.00  0.00     0.070 A 
HETATM   16  C   UNL     1      26.828  45.867  50.813  1.00  0.00     0.051 A 
ENDROOT
BRANCH   1  17
HETATM   17  C   UNL     1      22.265  49.537  49.039  1.00  0.00    -0.021 A 
HETATM   18  C   UNL     1      22.134  50.612  49.928  1.00  0.00     0.012 A 
HETATM   19  C   UNL     1      20.871  51.030  50.364  1.00  0.00     0.038 A 
HETATM   20  C   UNL     1      19.712  50.370  49.943  1.00  0.00     0.076 A 
HETATM   21  C   UNL     1      19.825  49.263  49.088  1.00  0.00    -0.000 A 
HETATM   22  C   UNL     1      21.099  48.872  48.629  1.00  0.00     0.021 A 
BRANCH  20  23
HETATM   23  O   UNL     1      18.441  50.722  50.304  1.00  0.00    -0.355 OA
HETATM   24  C   UNL     1      17.980  52.020  49.949  1.00  0.00     0.210 C 
ENDBRANCH  20  23
BRANCH  21  25
HETATM   25  C   UNL     1      18.612  48.470  48.639  1.00  0.00     0.217 C 
BRANCH  25  26
HETATM   26  O   UNL     1      18.396  48.761  47.255  1.00  0.00    -0.347 OA
BRANCH  26  27
HETATM   27  C   UNL     1      17.688  49.891  46.961  1.00  0.00     0.069 A 
HETATM   28  C   UNL     1      16.334  49.836  47.292  1.00  0.00     0.039 A 
HETATM   29  C   UNL     1      15.487  50.920  47.034  1.00  0.00     0.032 A 
HETATM   30  C   UNL     1      15.982  52.075  46.431  1.00  0.00     0.034 A 
HETATM   31  C   UNL     1      17.342  52.126  46.098  1.00  0.00     0.032 A 
HETATM   32  C   UNL     1      18.191  51.042  46.359  1.00  0.00     0.039 A 
BRANCH  30  33
HETATM   33  N   UNL     1      15.198  53.208  46.130  1.00  0.00    -0.328 N 
HETATM   34  C   UNL     1      14.494  54.001  47.018  1.00  0.00     0.218 C 
HETATM   35  C   UNL     1      13.759  55.136  46.344  1.00  0.00     0.117 C 
HETATM   36  O   UNL     1      14.422  53.855  48.233  1.00  0.00    -0.274 OA
HETATM   37  H   UNL     1      15.146  53.461  45.151  1.00  0.00     0.169 HD
ENDBRANCH  30  33
ENDBRANCH  26  27
ENDBRANCH  25  26
ENDBRANCH  21  25
ENDBRANCH   1  17
BRANCH  15  38
HETATM   38  O   UNL     1      27.601  43.847  51.995  1.00  0.00    -0.347 OA
BRANCH  38  39
HETATM   39  C   UNL     1      27.354  43.298  53.287  1.00  0.00     0.214 C 
BRANCH  39  40
HETATM   40  C   UNL     1      28.469  43.725  54.210  1.00  0.00    -0.034 A 
HETATM   41  C   UNL     1      29.567  42.888  54.450  1.00  0.00     0.009 A 
HETATM   42  C   UNL     1      30.595  43.298  55.302  1.00  0.00     0.001 A 
HETATM   43  C   UNL     1      30.534  44.544  55.923  1.00  0.00     0.000 A 
HETATM   44  C   UNL     1      29.444  45.381  55.697  1.00  0.00     0.001 A 
HETATM   45  C   UNL     1      28.415  44.974  54.847  1.00  0.00     0.009 A 
ENDBRANCH  39  40
ENDBRANCH  38  39
ENDBRANCH  15  38
TORSDOF 9
ENDMDL
MODEL 2
REMARK VINA RESULT:     -10.3      2.767      4.730
REMARK  9 active torsions:
REMARK  status: ('A' for Active; 'I' for Inactive)
REMARK       I    between atoms: C_2  and  N_3 
REMARK    1  A    between atoms: N_3  and  C_4 
REMARK    2  A    between atoms: C_7  and  O_8 
REMARK    3  A    between atoms: O_8  and  C_9 
REMARK    4  A    between atoms: C_9  and  C_10 
REMARK    5  A    between atoms: C_11  and  O_12 
REMARK    6  A    between atoms: C_16  and  C_17 
REMARK    7  A    between atoms: C_31  and  O_32 
REMARK    8  A    between atoms: O_32  and  C_33 
REMARK    9  A    between atoms: C_33  and  C_34 
ROOT
HETATM    1  C   UNL     1      23.543  48.974  48.616  1.00  0.00     0.269 C 
HETATM    2  N   UNL     1      24.517  50.126  48.589  1.00  0.00    -0.061 N 
HETATM    3  H   UNL     1      24.525  50.551  49.522  1.00  0.00     0.278 HD
HETATM    4  H   UNL     1      24.153  50.838  47.945  1.00  0.00     0.278 HD
HETATM    5  C   UNL     1      25.922  49.723  48.217  1.00  0.00     0.238 C 
HETATM    6  C   UNL     1      26.517  48.759  49.261  1.00  0.00     0.069 C 
HETATM    7  C   UNL     1      25.521  47.715  49.640  1.00  0.00    -0.019 A 
HETATM    8  C   UNL     1      24.172  47.852  49.366  1.00  0.00     0.052 A 
HETATM    9  N   UNL     1      23.525  46.741  49.844  1.00  0.00    -0.356 N 
HETATM   10  H   UNL     1      22.530  46.552  49.793  1.00  0.00     0.166 HD
HETATM   11  C   UNL     1      24.441  45.884  50.414  1.00  0.00     0.043 A 
HETATM   12  C   UNL     1      25.705  46.468  50.296  1.00  0.00     0.002 A 
HETATM   13  C   UNL     1      24.242  44.641  51.018  1.00  0.00     0.033 A 
HETATM   14  C   UNL     1      25.370  43.975  51.506  1.00  0.00     0.039 A 
HETATM   15  C   UNL     1      26.650  44.520  51.396  1.00  0.00     0.070 A 
HETATM   16  C   UNL     1      26.828  45.772  50.795  1.00  0.00     0.051 A 
ENDROOT
BRANCH   1  17
HETATM   17  C   UNL     1      22.195  49.410  49.144  1.00  0.00    -0.021 A 
HETATM   18  C   UNL     1      22.002  50.638  49.790  1.00  0.00     0.012 A 
HETATM   19  C   UNL     1      20.734  51.014  50.251  1.00  0.00     0.038 A 
HETATM   20  C   UNL     1      19.636  50.162  50.101  1.00  0.00     0.076 A 
HETATM   21  C   UNL     1      19.817  48.908  49.497  1.00  0.00    -0.000 A 
HETATM   22  C   UNL     1      21.091  48.555  49.006  1.00  0.00     0.021 A 
BRANCH  20  23
HETATM   23  O   UNL     1      18.363  50.456  50.504  1.00  0.00    -0.355 OA
HETATM   24  C   UNL     1      17.651  51.461  49.793  1.00  0.00     0.210 C 
ENDBRANCH  20  23
BRANCH  21  25
HETATM   25  C   UNL     1      18.678  47.916  49.353  1.00  0.00     0.217 C 
BRANCH  25  26
HETATM   26  O   UNL     1      18.192  48.011  48.010  1.00  0.00    -0.347 OA
BRANCH  26  27
HETATM   27  C   UNL     1      18.515  46.991  47.160  1.00  0.00     0.069 A 
HETATM   28  C   UNL     1      18.000  45.746  47.518  1.00  0.00     0.039 A 
HETATM   29  C   UNL     1      18.263  44.610  46.744  1.00  0.00     0.032 A 
HETATM   30  C   UNL     1      19.057  44.703  45.602  1.00  0.00     0.034 A 
HETATM   31  C   UNL     1      19.575  45.955  45.247  1.00  0.00     0.032 A 
HETATM   32  C   UNL     1      19.308  47.093  46.020  1.00  0.00     0.039 A 
BRANCH  30  33
HETATM   33  N   UNL     1      19.377  43.609  44.770  1.00  0.00    -0.328 N 
HETATM   34  C   UNL     1      19.898  42.387  45.154  1.00  0.00     0.218 C 
HETATM   35  C   UNL     1      20.122  41.447  43.994  1.00  0.00     0.117 C 
HETATM   36  O   UNL     1      20.180  42.037  46.296  1.00  0.00    -0.274 OA
HETATM   37  H   UNL     1      19.209  43.743  43.781  1.00  0.00     0.169 HD
ENDBRANCH  30  33
ENDBRANCH  26  27
ENDBRANCH  25  26
ENDBRANCH  21  25
ENDBRANCH   1  17
BRANCH  15  38
HETATM   38  O   UNL     1      27.641  43.734  51.919  1.00  0.00    -0.347 OA
BRANCH  38  39
HETATM   39  C   UNL     1      27.417  43.159  53.204  1.00  0.00     0.214 C 
BRANCH  39  40
HETATM   40  C   UNL     1      28.492  43.651  54.143  1.00  0.00    -0.034 A 
HETATM   41  C   UNL     1      28.390  44.904  54.762  1.00  0.00     0.009 A 
HETATM   42  C   UNL     1      29.389  45.346  55.632  1.00  0.00     0.001 A 
HETATM   43  C   UNL     1      30.498  44.543  55.889  1.00  0.00     0.000 A 
HETATM   44  C   UNL     1      30.614  43.298  55.273  1.00  0.00     0.001 A 
HETATM   45  C   UNL     1      29.618  42.855  54.403  1.00  0.00     0.009 A 
ENDBRANCH  39  40
ENDBRANCH  38  39
ENDBRANCH  15  38
TORSDOF 9
ENDMDL
MODEL 3
REMARK VINA RESULT:     -10.2      2.410      4.056
REMARK  9 active torsions:
REMARK  status: ('A' for Active; 'I' for Inactive)
REMARK       I    between atoms: C_2  and  N_3 
REMARK    1  A    between atoms: N_3  and  C_4 
REMARK    2  A    between atoms: C_7  and  O_8 
REMARK    3  A    between atoms: O_8  and  C_9 
REMARK    4  A    between atoms: C_9  and  C_10 
REMARK    5  A    between atoms: C_11  and  O_12 
REMARK    6  A    between atoms: C_16  and  C_17 
REMARK    7  A    between atoms: C_31  and  O_32 
REMARK    8  A    between atoms: O_32  and  C_33 
REMARK    9  A    between atoms: C_33  and  C_34 
ROOT
HETATM    1  C   UNL     1      23.205  43.842  48.866  1.00  0.00     0.269 C 
HETATM    2  N   UNL     1      23.977  43.166  47.760  1.00  0.00    -0.061 N 
HETATM    3  H   UNL     1      24.488  43.891  47.247  1.00  0.00     0.278 HD
HETATM    4  H   UNL     1      23.303  42.759  47.101  1.00  0.00     0.278 HD
HETATM    5  C   UNL     1      24.953  42.125  48.251  1.00  0.00     0.238 C 
HETATM    6  C   UNL     1      26.046  42.763  49.131  1.00  0.00     0.069 C 
HETATM    7  C   UNL     1      25.447  43.732  50.093  1.00  0.00    -0.019 A 
HETATM    8  C   UNL     1      24.168  44.233  49.932  1.00  0.00     0.052 A 
HETATM    9  N   UNL     1      23.915  45.098  50.966  1.00  0.00    -0.356 N 
HETATM   10  H   UNL     1      23.062  45.623  51.121  1.00  0.00     0.166 HD
HETATM   11  C   UNL     1      25.013  45.155  51.797  1.00  0.00     0.043 A 
HETATM   12  C   UNL     1      25.989  44.302  51.277  1.00  0.00     0.002 A 
HETATM   13  C   UNL     1      25.208  45.892  52.967  1.00  0.00     0.033 A 
HETATM   14  C   UNL     1      26.432  45.745  53.625  1.00  0.00     0.039 A 
HETATM   15  C   UNL     1      27.427  44.893  53.143  1.00  0.00     0.070 A 
HETATM   16  C   UNL     1      27.217  44.169  51.963  1.00  0.00     0.051 A 
ENDROOT
BRANCH   1  17
HETATM   17  C   UNL     1      22.362  44.977  48.330  1.00  0.00    -0.021 A 
HETATM   18  C   UNL     1      21.135  44.763  47.687  1.00  0.00     0.012 A 
HETATM   19  C   UNL     1      20.375  45.842  47.219  1.00  0.00     0.038 A 
HETATM   20  C   UNL     1      20.832  47.155  47.358  1.00  0.00     0.076 A 
HETATM   21  C   UNL     1      22.079  47.388  47.959  1.00  0.00    -0.000 A 
HETATM   22  C   UNL     1      22.820  46.297  48.457  1.00  0.00     0.021 A 
BRANCH  20  23
HETATM   23  O   UNL     1      20.148  48.265  46.947  1.00  0.00    -0.355 OA
HETATM   24  C   UNL     1      18.734  48.275  47.101  1.00  0.00     0.210 C 
ENDBRANCH  20  23
BRANCH  21  25
HETATM   25  C   UNL     1      22.657  48.785  48.090  1.00  0.00     0.217 C 
BRANCH  25  26
HETATM   26  O   UNL     1      22.259  49.296  49.366  1.00  0.00    -0.347 OA
BRANCH  26  27
HETATM   27  C   UNL     1      21.142  50.083  49.397  1.00  0.00     0.069 A 
HETATM   28  C   UNL     1      20.133  49.633  50.247  1.00  0.00     0.039 A 
HETATM   29  C   UNL     1      18.928  50.335  50.367  1.00  0.00     0.032 A 
HETATM   30  C   UNL     1      18.712  51.497  49.628  1.00  0.00     0.034 A 
HETATM   31  C   UNL     1      19.727  51.945  48.773  1.00  0.00     0.032 A 
HETATM   32  C   UNL     1      20.935  51.243  48.656  1.00  0.00     0.039 A 
BRANCH  30  33
HETATM   33  N   UNL     1      17.527  52.261  49.683  1.00  0.00    -0.328 N 
HETATM   34  C   UNL     1      16.281  51.912  49.196  1.00  0.00     0.218 C 
HETATM   35  C   UNL     1      15.235  52.977  49.426  1.00  0.00     0.117 C 
HETATM   36  O   UNL     1      15.983  50.869  48.623  1.00  0.00    -0.274 OA
HETATM   37  H   UNL     1      17.607  53.168  50.125  1.00  0.00     0.169 HD
ENDBRANCH  30  33
ENDBRANCH  26  27
ENDBRANCH  25  26
ENDBRANCH  21  25
ENDBRANCH   1  17
BRANCH  15  38
HETATM   38  O   UNL     1      28.560  44.863  53.911  1.00  0.00    -0.347 OA
BRANCH  38  39
HETATM   39  C   UNL     1      28.641  45.776  55.002  1.00  0.00     0.214 C 
BRANCH  39  40
HETATM   40  C   UNL     1      29.629  45.233  56.007  1.00  0.00    -0.034 A 
HETATM   41  C   UNL     1      30.425  44.120  55.707  1.00  0.00     0.009 A 
HETATM   42  C   UNL     1      31.338  43.631  56.643  1.00  0.00     0.001 A 
HETATM   43  C   UNL     1      31.462  44.247  57.887  1.00  0.00     0.000 A 
HETATM   44  C   UNL     1      30.670  45.350  58.199  1.00  0.00     0.001 A 
HETATM   45  C   UNL     1      29.757  45.840  57.266  1.00  0.00     0.009 A 
ENDBRANCH  39  40
ENDBRANCH  38  39
ENDBRANCH  15  38
TORSDOF 9
ENDMDL
MODEL 4
REMARK VINA RESULT:     -10.1      2.562     13.030
REMARK  9 active torsions:
REMARK  status: ('A' for Active; 'I' for Inactive)
REMARK       I    between atoms: C_2  and  N_3 
REMARK    1  A    between atoms: N_3  and  C_4 
REMARK    2  A    between atoms: C_7  and  O_8 
REMARK    3  A    between atoms: O_8  and  C_9 
REMARK    4  A    between atoms: C_9  and  C_10 
REMARK    5  A    between atoms: C_11  and  O_12 
REMARK    6  A    between atoms: C_16  and  C_17 
REMARK    7  A    between atoms: C_31  and  O_32 
REMARK    8  A    between atoms: O_32  and  C_33 
REMARK    9  A    between atoms: C_33  and  C_34 
ROOT
HETATM    1  C   UNL     1      23.607  48.308  49.499  1.00  0.00     0.269 C 
HETATM    2  N   UNL     1      24.582  48.929  48.529  1.00  0.00    -0.061 N 
HETATM    3  H   UNL     1      24.471  48.454  47.627  1.00  0.00     0.278 HD
HETATM    4  H   UNL     1      25.533  48.725  48.855  1.00  0.00     0.278 HD
HETATM    5  C   UNL     1      24.380  50.412  48.335  1.00  0.00     0.238 C 
HETATM    6  C   UNL     1      23.000  50.708  47.716  1.00  0.00     0.069 C 
HETATM    7  C   UNL     1      21.941  49.895  48.382  1.00  0.00    -0.019 A 
HETATM    8  C   UNL     1      22.241  48.791  49.158  1.00  0.00     0.052 A 
HETATM    9  N   UNL     1      21.062  48.260  49.617  1.00  0.00    -0.356 N 
HETATM   10  H   UNL     1      20.957  47.444  50.210  1.00  0.00     0.166 HD
HETATM   11  C   UNL     1      20.006  49.014  49.154  1.00  0.00     0.043 A 
HETATM   12  C   UNL     1      20.528  50.053  48.380  1.00  0.00     0.002 A 
HETATM   13  C   UNL     1      18.635  48.855  49.368  1.00  0.00     0.033 A 
HETATM   14  C   UNL     1      17.779  49.789  48.780  1.00  0.00     0.039 A 
HETATM   15  C   UNL     1      18.263  50.847  48.009  1.00  0.00     0.070 A 
HETATM   16  C   UNL     1      19.640  50.985  47.797  1.00  0.00     0.051 A 
ENDROOT
BRANCH   1  17
HETATM   17  C   UNL     1      23.755  46.803  49.534  1.00  0.00    -0.021 A 
HETATM   18  C   UNL     1      23.121  45.965  48.607  1.00  0.00     0.012 A 
HETATM   19  C   UNL     1      23.296  44.576  48.662  1.00  0.00     0.038 A 
HETATM   20  C   UNL     1      24.086  43.992  49.657  1.00  0.00     0.076 A 
HETATM   21  C   UNL     1      24.693  44.811  50.621  1.00  0.00    -0.000 A 
HETATM   22  C   UNL     1      24.537  46.210  50.536  1.00  0.00     0.021 A 
BRANCH  20  23
HETATM   23  O   UNL     1      24.324  42.650  49.773  1.00  0.00    -0.355 OA
HETATM   24  C   UNL     1      24.950  41.985  48.683  1.00  0.00     0.210 C 
ENDBRANCH  20  23
BRANCH  21  25
HETATM   25  C   UNL     1      25.516  44.236  51.758  1.00  0.00     0.217 C 
BRANCH  25  26
HETATM   26  O   UNL     1      26.892  44.309  51.373  1.00  0.00    -0.347 OA
BRANCH  26  27
HETATM   27  C   UNL     1      27.820  43.962  52.314  1.00  0.00     0.069 A 
HETATM   28  C   UNL     1      27.610  44.518  53.575  1.00  0.00     0.039 A 
HETATM   29  C   UNL     1      28.491  44.257  54.631  1.00  0.00     0.032 A 
HETATM   30  C   UNL     1      29.604  43.440  54.436  1.00  0.00     0.034 A 
HETATM   31  C   UNL     1      29.813  42.886  53.167  1.00  0.00     0.032 A 
HETATM   32  C   UNL     1      28.928  43.144  52.111  1.00  0.00     0.039 A 
BRANCH  30  33
HETATM   33  N   UNL     1      30.544  43.131  55.441  1.00  0.00    -0.328 N 
HETATM   34  C   UNL     1      31.055  43.984  56.402  1.00  0.00     0.218 C 
HETATM   35  C   UNL     1      32.050  43.314  57.321  1.00  0.00     0.117 C 
HETATM   36  O   UNL     1      30.781  45.171  56.550  1.00  0.00    -0.274 OA
HETATM   37  H   UNL     1      30.883  42.178  55.450  1.00  0.00     0.169 HD
ENDBRANCH  30  33
ENDBRANCH  26  27
ENDBRANCH  25  26
ENDBRANCH  21  25
ENDBRANCH   1  17
BRANCH  15  38
HETATM   38  O   UNL     1      17.290  51.672  47.513  1.00  0.00    -0.347 OA
BRANCH  38  39
HETATM   39  C   UNL     1      15.934  51.328  47.783  1.00  0.00     0.214 C 
BRANCH  39  40
HETATM   40  C   UNL     1      15.297  52.461  48.551  1.00  0.00    -0.034 A 
HETATM   41  C   UNL     1      15.260  52.452  49.951  1.00  0.00     0.009 A 
HETATM   42  C   UNL     1      14.672  53.510  50.650  1.00  0.00     0.001 A 
HETATM   43  C   UNL     1      14.114  54.582  49.956  1.00  0.00     0.000 A 
HETATM   44  C   UNL     1      14.139  54.597  48.563  1.00  0.00     0.001 A 
HETATM   45  C   UNL     1      14.724  53.542  47.863  1.00  0.00     0.009 A 
ENDBRANCH  39  40
ENDBRANCH  38  39
ENDBRANCH  15  38
TORSDOF 9
ENDMDL
MODEL 5
REMARK VINA RESULT:     -10.0      1.577      2.397
REMARK  9 active torsions:
REMARK  status: ('A' for Active; 'I' for Inactive)
REMARK       I    between atoms: C_2  and  N_3 
REMARK    1  A    between atoms: N_3  and  C_4 
REMARK    2  A    between atoms: C_7  and  O_8 
REMARK    3  A    between atoms: O_8  and  C_9 
REMARK    4  A    between atoms: C_9  and  C_10 
REMARK    5  A    between atoms: C_11  and  O_12 
REMARK    6  A    between atoms: C_16  and  C_17 
REMARK    7  A    between atoms: C_31  and  O_32 
REMARK    8  A    between atoms: O_32  and  C_33 
REMARK    9  A    between atoms: C_33  and  C_34 
ROOT
HETATM    1  C   UNL     1      22.573  47.764  48.214  1.00  0.00     0.269 C 
HETATM    2  N   UNL     1      23.172  49.099  48.584  1.00  0.00    -0.061 N 
HETATM    3  H   UNL     1      22.800  49.364  49.502  1.00  0.00     0.278 HD
HETATM    4  H   UNL     1      22.832  49.799  47.915  1.00  0.00     0.278 HD
HETATM    5  C   UNL     1      24.679  49.090  48.644  1.00  0.00     0.238 C 
HETATM    6  C   UNL     1      25.185  48.137  49.745  1.00  0.00     0.069 C 
HETATM    7  C   UNL     1      24.435  46.848  49.709  1.00  0.00    -0.019 A 
HETATM    8  C   UNL     1      23.235  46.714  49.036  1.00  0.00     0.052 A 
HETATM    9  N   UNL     1      22.797  45.424  49.197  1.00  0.00    -0.356 N 
HETATM   10  H   UNL     1      21.945  45.023  48.822  1.00  0.00     0.166 HD
HETATM   11  C   UNL     1      23.705  44.722  49.960  1.00  0.00     0.043 A 
HETATM   12  C   UNL     1      24.749  45.590  50.291  1.00  0.00     0.002 A 
HETATM   13  C   UNL     1      23.680  43.388  50.373  1.00  0.00     0.033 A 
HETATM   14  C   UNL     1      24.756  42.930  51.138  1.00  0.00     0.039 A 
HETATM   15  C   UNL     1      25.822  43.764  51.479  1.00  0.00     0.070 A 
HETATM   16  C   UNL     1      25.826  45.101  51.064  1.00  0.00     0.051 A 
ENDROOT
BRANCH   1  17
HETATM   17  C   UNL     1      21.064  47.793  48.323  1.00  0.00    -0.021 A 
HETATM   18  C   UNL     1      20.231  47.190  47.372  1.00  0.00     0.012 A 
HETATM   19  C   UNL     1      18.838  47.224  47.517  1.00  0.00     0.038 A 
HETATM   20  C   UNL     1      18.245  47.881  48.599  1.00  0.00     0.076 A 
HETATM   21  C   UNL     1      19.061  48.530  49.539  1.00  0.00    -0.000 A 
HETATM   22  C   UNL     1      20.463  48.460  49.401  1.00  0.00     0.021 A 
BRANCH  20  23
HETATM   23  O   UNL     1      16.899  47.948  48.827  1.00  0.00    -0.355 OA
HETATM   24  C   UNL     1      16.067  48.441  47.784  1.00  0.00     0.210 C 
ENDBRANCH  20  23
BRANCH  21  25
HETATM   25  C   UNL     1      18.480  49.307  50.705  1.00  0.00     0.217 C 
BRANCH  25  26
HETATM   26  O   UNL     1      18.715  50.697  50.455  1.00  0.00    -0.347 OA
BRANCH  26  27
HETATM   27  C   UNL     1      18.005  51.273  49.440  1.00  0.00     0.069 A 
HETATM   28  C   UNL     1      16.682  51.582  49.753  1.00  0.00     0.039 A 
HETATM   29  C   UNL     1      15.836  52.165  48.803  1.00  0.00     0.032 A 
HETATM   30  C   UNL     1      16.302  52.439  47.518  1.00  0.00     0.034 A 
HETATM   31  C   UNL     1      17.631  52.125  47.206  1.00  0.00     0.032 A 
HETATM   32  C   UNL     1      18.479  51.545  48.159  1.00  0.00     0.039 A 
BRANCH  30  33
HETATM   33  N   UNL     1      15.517  53.017  46.498  1.00  0.00    -0.328 N 
HETATM   34  C   UNL     1      14.771  52.358  45.537  1.00  0.00     0.218 C 
HETATM   35  C   UNL     1      14.052  53.298  44.598  1.00  0.00     0.117 C 
HETATM   36  O   UNL     1      14.664  51.144  45.398  1.00  0.00    -0.274 OA
HETATM   37  H   UNL     1      15.506  54.029  46.470  1.00  0.00     0.169 HD
ENDBRANCH  30  33
ENDBRANCH  26  27
ENDBRANCH  25  26
ENDBRANCH  21  25
ENDBRANCH   1  17
BRANCH  15  38
HETATM   38  O   UNL     1      26.794  43.154  52.226  1.00  0.00    -0.347 OA
BRANCH  38  39
HETATM   39  C   UNL     1      28.150  43.482  51.936  1.00  0.00     0.214 C 
BRANCH  39  40
HETATM   40  C   UNL     1      28.867  43.748  53.237  1.00  0.00    -0.034 A 
HETATM   41  C   UNL     1      28.427  44.751  54.111  1.00  0.00     0.009 A 
HETATM   42  C   UNL     1      29.095  44.983  55.315  1.00  0.00     0.001 A 
HETATM   43  C   UNL     1      30.210  44.219  55.655  1.00  0.00     0.000 A 
HETATM   44  C   UNL     1      30.661  43.224  54.790  1.00  0.00     0.001 A 
HETATM   45  C   UNL     1      29.996  42.990  53.587  1.00  0.00     0.009 A 
ENDBRANCH  39  40
ENDBRANCH  38  39
ENDBRANCH  15  38
TORSDOF 9
ENDMDL
MODEL 6
REMARK VINA RESULT:      -9.9      2.804     12.815
REMARK  9 active torsions:
REMARK  status: ('A' for Active; 'I' for Inactive)
REMARK       I    between atoms: C_2  and  N_3 
REMARK    1  A    between atoms: N_3  and  C_4 
REMARK    2  A    between atoms: C_7  and  O_8 
REMARK    3  A    between atoms: O_8  and  C_9 
REMARK    4  A    between atoms: C_9  and  C_10 
REMARK    5  A    between atoms: C_11  and  O_12 
REMARK    6  A    between atoms: C_16  and  C_17 
REMARK    7  A    between atoms: C_31  and  O_32 
REMARK    8  A    between atoms: O_32  and  C_33 
REMARK    9  A    between atoms: C_33  and  C_34 
ROOT
HETATM    1  C   UNL     1      21.671  47.702  48.229  1.00  0.00     0.269 C 
HETATM    2  N   UNL     1      21.193  46.385  48.790  1.00  0.00    -0.061 N 
HETATM    3  H   UNL     1      21.367  46.394  49.800  1.00  0.00     0.278 HD
HETATM    4  H   UNL     1      21.778  45.639  48.398  1.00  0.00     0.278 HD
HETATM    5  C   UNL     1      19.730  46.117  48.542  1.00  0.00     0.238 C 
HETATM    6  C   UNL     1      18.847  47.164  49.248  1.00  0.00     0.069 C 
HETATM    7  C   UNL     1      19.395  48.536  49.045  1.00  0.00    -0.019 A 
HETATM    8  C   UNL     1      20.691  48.754  48.615  1.00  0.00     0.052 A 
HETATM    9  N   UNL     1      20.893  50.108  48.537  1.00  0.00    -0.356 N 
HETATM   10  H   UNL     1      21.745  50.578  48.252  1.00  0.00     0.166 HD
HETATM   11  C   UNL     1      19.739  50.768  48.903  1.00  0.00     0.043 A 
HETATM   12  C   UNL     1      18.779  49.805  49.222  1.00  0.00     0.002 A 
HETATM   13  C   UNL     1      19.478  52.138  48.969  1.00  0.00     0.033 A 
HETATM   14  C   UNL     1      18.197  52.531  49.365  1.00  0.00     0.039 A 
HETATM   15  C   UNL     1      17.207  51.599  49.681  1.00  0.00     0.070 A 
HETATM   16  C   UNL     1      17.490  50.229  49.618  1.00  0.00     0.051 A 
ENDROOT
BRANCH   1  17
HETATM   17  C   UNL     1      23.098  47.986  48.642  1.00  0.00    -0.021 A 
HETATM   18  C   UNL     1      23.795  49.120  48.205  1.00  0.00     0.012 A 
HETATM   19  C   UNL     1      25.111  49.357  48.623  1.00  0.00     0.038 A 
HETATM   20  C   UNL     1      25.768  48.457  49.466  1.00  0.00     0.076 A 
HETATM   21  C   UNL     1      25.103  47.292  49.880  1.00  0.00    -0.000 A 
HETATM   22  C   UNL     1      23.767  47.081  49.481  1.00  0.00     0.021 A 
BRANCH  20  23
HETATM   23  O   UNL     1      27.042  48.619  49.936  1.00  0.00    -0.355 OA
HETATM   24  C   UNL     1      27.957  49.368  49.146  1.00  0.00     0.210 C 
ENDBRANCH  20  23
BRANCH  21  25
HETATM   25  C   UNL     1      25.778  46.249  50.750  1.00  0.00     0.217 C 
BRANCH  25  26
HETATM   26  O   UNL     1      25.168  46.307  52.043  1.00  0.00    -0.347 OA
BRANCH  26  27
HETATM   27  C   UNL     1      26.000  46.245  53.125  1.00  0.00     0.069 A 
HETATM   28  C   UNL     1      26.030  47.399  53.907  1.00  0.00     0.039 A 
HETATM   29  C   UNL     1      26.849  47.479  55.039  1.00  0.00     0.032 A 
HETATM   30  C   UNL     1      27.660  46.405  55.400  1.00  0.00     0.034 A 
HETATM   31  C   UNL     1      27.630  45.248  54.611  1.00  0.00     0.032 A 
HETATM   32  C   UNL     1      26.807  45.167  53.480  1.00  0.00     0.039 A 
BRANCH  30  33
HETATM   33  N   UNL     1      28.520  46.403  56.519  1.00  0.00    -0.328 N 
HETATM   34  C   UNL     1      29.722  45.732  56.653  1.00  0.00     0.218 C 
HETATM   35  C   UNL     1      30.379  45.955  57.995  1.00  0.00     0.117 C 
HETATM   36  O   UNL     1      30.256  45.011  55.817  1.00  0.00    -0.274 OA
HETATM   37  H   UNL     1      28.213  46.953  57.311  1.00  0.00     0.169 HD
ENDBRANCH  30  33
ENDBRANCH  26  27
ENDBRANCH  25  26
ENDBRANCH  21  25
ENDBRANCH   1  17
BRANCH  15  38
HETATM   38  O   UNL     1      16.009  52.153  50.043  1.00  0.00    -0.347 OA
BRANCH  38  39
HETATM   39  C   UNL     1      15.266  52.834  49.034  1.00  0.00     0.214 C 
BRANCH  39  40
HETATM   40  C   UNL     1      14.594  54.031  49.661  1.00  0.00    -0.034 A 
HETATM   41  C   UNL     1      15.341  55.136  50.088  1.00  0.00     0.009 A 
HETATM   42  C   UNL     1      14.706  56.240  50.661  1.00  0.00     0.001 A 
HETATM   43  C   UNL     1      13.322  56.248  50.816  1.00  0.00     0.000 A 
HETATM   44  C   UNL     1      12.569  55.151  50.402  1.00  0.00     0.001 A 
HETATM   45  C   UNL     1      13.201  54.047  49.829  1.00  0.00     0.009 A 
ENDBRANCH  39  40
ENDBRANCH  38  39
ENDBRANCH  15  38
TORSDOF 9
ENDMDL
MODEL 7
REMARK VINA RESULT:      -9.7      2.528     13.055
REMARK  9 active torsions:
REMARK  status: ('A' for Active; 'I' for Inactive)
REMARK       I    between atoms: C_2  and  N_3 
REMARK    1  A    between atoms: N_3  and  C_4 
REMARK    2  A    between atoms: C_7  and  O_8 
REMARK    3  A    between atoms: O_8  and  C_9 
REMARK    4  A    between atoms: C_9  and  C_10 
REMARK    5  A    between atoms: C_11  and  O_12 
REMARK    6  A    between atoms: C_16  and  C_17 
REMARK    7  A    between atoms: C_31  and  O_32 
REMARK    8  A    between atoms: O_32  and  C_33 
REMARK    9  A    between atoms: C_33  and  C_34 
ROOT
HETATM    1  C   UNL     1      22.915  46.910  48.407  1.00  0.00     0.269 C 
HETATM    2  N   UNL     1      22.352  45.551  48.071  1.00  0.00    -0.061 N 
HETATM    3  H   UNL     1      22.021  45.125  48.943  1.00  0.00     0.278 HD
HETATM    4  H   UNL     1      23.120  44.962  47.728  1.00  0.00     0.278 HD
HETATM    5  C   UNL     1      21.216  45.595  47.079  1.00  0.00     0.238 C 
HETATM    6  C   UNL     1      20.011  46.366  47.651  1.00  0.00     0.069 C 
HETATM    7  C   UNL     1      20.459  47.620  48.324  1.00  0.00    -0.019 A 
HETATM    8  C   UNL     1      21.777  47.828  48.687  1.00  0.00     0.052 A 
HETATM    9  N   UNL     1      21.865  49.059  49.286  1.00  0.00    -0.356 N 
HETATM   10  H   UNL     1      22.703  49.491  49.660  1.00  0.00     0.166 HD
HETATM   11  C   UNL     1      20.621  49.651  49.305  1.00  0.00     0.043 A 
HETATM   12  C   UNL     1      19.719  48.772  48.701  1.00  0.00     0.002 A 
HETATM   13  C   UNL     1      20.235  50.896  49.806  1.00  0.00     0.033 A 
HETATM   14  C   UNL     1      18.889  51.253  49.677  1.00  0.00     0.039 A 
HETATM   15  C   UNL     1      17.960  50.407  49.070  1.00  0.00     0.070 A 
HETATM   16  C   UNL     1      18.365  49.158  48.582  1.00  0.00     0.051 A 
ENDROOT
BRANCH   1  17
HETATM   17  C   UNL     1      23.939  46.817  49.517  1.00  0.00    -0.021 A 
HETATM   18  C   UNL     1      24.801  47.876  49.834  1.00  0.00     0.012 A 
HETATM   19  C   UNL     1      25.725  47.758  50.880  1.00  0.00     0.038 A 
HETATM   20  C   UNL     1      25.827  46.573  51.616  1.00  0.00     0.076 A 
HETATM   21  C   UNL     1      25.004  45.486  51.285  1.00  0.00    -0.000 A 
HETATM   22  C   UNL     1      24.054  45.628  50.252  1.00  0.00     0.021 A 
BRANCH  20  23
HETATM   23  O   UNL     1      26.686  46.379  52.662  1.00  0.00    -0.355 OA
HETATM   24  C   UNL     1      26.294  46.849  53.946  1.00  0.00     0.210 C 
ENDBRANCH  20  23
BRANCH  21  25
HETATM   25  C   UNL     1      25.104  44.156  52.008  1.00  0.00     0.217 C 
BRANCH  25  26
HETATM   26  O   UNL     1      26.256  43.475  51.499  1.00  0.00    -0.347 OA
BRANCH  26  27
HETATM   27  C   UNL     1      27.316  43.332  52.349  1.00  0.00     0.069 A 
HETATM   28  C   UNL     1      26.977  43.236  53.698  1.00  0.00     0.039 A 
HETATM   29  C   UNL     1      27.965  43.099  54.679  1.00  0.00     0.032 A 
HETATM   30  C   UNL     1      29.313  43.067  54.324  1.00  0.00     0.034 A 
HETATM   31  C   UNL     1      29.650  43.168  52.968  1.00  0.00     0.032 A 
HETATM   32  C   UNL     1      28.660  43.301  51.985  1.00  0.00     0.039 A 
BRANCH  30  33
HETATM   33  N   UNL     1      30.372  42.939  55.247  1.00  0.00    -0.328 N 
HETATM   34  C   UNL     1      30.842  43.902  56.122  1.00  0.00     0.218 C 
HETATM   35  C   UNL     1      31.996  43.419  56.969  1.00  0.00     0.117 C 
HETATM   36  O   UNL     1      30.421  45.047  56.248  1.00  0.00    -0.274 OA
HETATM   37  H   UNL     1      30.838  42.041  55.262  1.00  0.00     0.169 HD
ENDBRANCH  30  33
ENDBRANCH  26  27
ENDBRANCH  25  26
ENDBRANCH  21  25
ENDBRANCH   1  17
BRANCH  15  38
HETATM   38  O   UNL     1      16.689  50.912  49.021  1.00  0.00    -0.347 OA
BRANCH  38  39
HETATM   39  C   UNL     1      16.486  52.116  48.285  1.00  0.00     0.214 C 
BRANCH  39  40
HETATM   40  C   UNL     1      15.340  52.872  48.911  1.00  0.00    -0.034 A 
HETATM   41  C   UNL     1      14.541  53.733  48.147  1.00  0.00     0.009 A 
HETATM   42  C   UNL     1      13.480  54.423  48.737  1.00  0.00     0.001 A 
HETATM   43  C   UNL     1      13.210  54.262  50.095  1.00  0.00     0.000 A 
HETATM   44  C   UNL     1      14.003  53.415  50.866  1.00  0.00     0.001 A 
HETATM   45  C   UNL     1      15.064  52.725  50.279  1.00  0.00     0.009 A 
ENDBRANCH  39  40
ENDBRANCH  38  39
ENDBRANCH  15  38
TORSDOF 9
ENDMDL
MODEL 8
REMARK VINA RESULT:      -9.7      2.477      3.873
REMARK  9 active torsions:
REMARK  status: ('A' for Active; 'I' for Inactive)
REMARK       I    between atoms: C_2  and  N_3 
REMARK    1  A    between atoms: N_3  and  C_4 
REMARK    2  A    between atoms: C_7  and  O_8 
REMARK    3  A    between atoms: O_8  and  C_9 
REMARK    4  A    between atoms: C_9  and  C_10 
REMARK    5  A    between atoms: C_11  and  O_12 
REMARK    6  A    between atoms: C_16  and  C_17 
REMARK    7  A    between atoms: C_31  and  O_32 
REMARK    8  A    between atoms: O_32  and  C_33 
REMARK    9  A    between atoms: C_33  and  C_34 
ROOT
HETATM    1  C   UNL     1      22.123  43.680  48.650  1.00  0.00     0.269 C 
HETATM    2  N   UNL     1      22.491  42.648  47.613  1.00  0.00    -0.061 N 
HETATM    3  H   UNL     1      23.043  43.117  46.887  1.00  0.00     0.278 HD
HETATM    4  H   UNL     1      21.628  42.323  47.164  1.00  0.00     0.278 HD
HETATM    5  C   UNL     1      23.285  41.490  48.167  1.00  0.00     0.238 C 
HETATM    6  C   UNL     1      24.644  41.963  48.719  1.00  0.00     0.069 C 
HETATM    7  C   UNL     1      24.478  43.206  49.528  1.00  0.00    -0.019 A 
HETATM    8  C   UNL     1      23.339  43.985  49.454  1.00  0.00     0.052 A 
HETATM    9  N   UNL     1      23.495  45.051  50.303  1.00  0.00    -0.356 N 
HETATM   10  H   UNL     1      22.828  45.798  50.466  1.00  0.00     0.166 HD
HETATM   11  C   UNL     1      24.718  44.963  50.932  1.00  0.00     0.043 A 
HETATM   12  C   UNL     1      25.356  43.810  50.469  1.00  0.00     0.002 A 
HETATM   13  C   UNL     1      25.299  45.814  51.875  1.00  0.00     0.033 A 
HETATM   14  C   UNL     1      26.563  45.469  52.362  1.00  0.00     0.039 A 
HETATM   15  C   UNL     1      27.226  44.319  51.932  1.00  0.00     0.070 A 
HETATM   16  C   UNL     1      26.632  43.483  50.979  1.00  0.00     0.051 A 
ENDROOT
BRANCH   1  17
HETATM   17  C   UNL     1      21.469  44.886  48.012  1.00  0.00    -0.021 A 
HETATM   18  C   UNL     1      21.837  45.358  46.746  1.00  0.00     0.012 A 
HETATM   19  C   UNL     1      21.196  46.468  46.182  1.00  0.00     0.038 A 
HETATM   20  C   UNL     1      20.191  47.147  46.879  1.00  0.00     0.076 A 
HETATM   21  C   UNL     1      19.839  46.716  48.167  1.00  0.00    -0.000 A 
HETATM   22  C   UNL     1      20.467  45.577  48.711  1.00  0.00     0.021 A 
BRANCH  20  23
HETATM   23  O   UNL     1      19.502  48.225  46.397  1.00  0.00    -0.355 OA
HETATM   24  C   UNL     1      18.598  48.014  45.319  1.00  0.00     0.210 C 
ENDBRANCH  20  23
BRANCH  21  25
HETATM   25  C   UNL     1      18.796  47.441  48.997  1.00  0.00     0.217 C 
BRANCH  25  26
HETATM   26  O   UNL     1      19.432  48.581  49.585  1.00  0.00    -0.347 OA
BRANCH  26  27
HETATM   27  C   UNL     1      18.750  49.764  49.537  1.00  0.00     0.069 A 
HETATM   28  C   UNL     1      17.514  49.702  48.895  1.00  0.00     0.039 A 
HETATM   29  C   UNL     1      16.715  50.844  48.761  1.00  0.00     0.032 A 
HETATM   30  C   UNL     1      17.149  52.070  49.262  1.00  0.00     0.034 A 
HETATM   31  C   UNL     1      18.392  52.130  49.904  1.00  0.00     0.032 A 
HETATM   32  C   UNL     1      19.190  50.986  50.040  1.00  0.00     0.039 A 
BRANCH  30  33
HETATM   33  N   UNL     1      16.412  53.269  49.165  1.00  0.00    -0.328 N 
HETATM   34  C   UNL     1      15.237  53.588  49.822  1.00  0.00     0.218 C 
HETATM   35  C   UNL     1      14.720  54.964  49.477  1.00  0.00     0.117 C 
HETATM   36  O   UNL     1      14.622  52.877  50.610  1.00  0.00    -0.274 OA
HETATM   37  H   UNL     1      16.788  53.969  48.537  1.00  0.00     0.169 HD
ENDBRANCH  30  33
ENDBRANCH  26  27
ENDBRANCH  25  26
ENDBRANCH  21  25
ENDBRANCH   1  17
BRANCH  15  38
HETATM   38  O   UNL     1      28.451  44.128  52.514  1.00  0.00    -0.347 OA
BRANCH  38  39
HETATM   39  C   UNL     1      28.539  43.168  53.564  1.00  0.00     0.214 C 
BRANCH  39  40
HETATM   40  C   UNL     1      29.327  43.773  54.700  1.00  0.00    -0.034 A 
HETATM   41  C   UNL     1      29.002  45.037  55.210  1.00  0.00     0.009 A 
HETATM   42  C   UNL     1      29.736  45.583  56.265  1.00  0.00     0.001 A 
HETATM   43  C   UNL     1      30.801  44.875  56.817  1.00  0.00     0.000 A 
HETATM   44  C   UNL     1      31.138  43.621  56.313  1.00  0.00     0.001 A 
HETATM   45  C   UNL     1      30.407  43.072  55.259  1.00  0.00     0.009 A 
ENDBRANCH  39  40
ENDBRANCH  38  39
ENDBRANCH  15  38
TORSDOF 9
ENDMDL
MODEL 9
REMARK VINA RESULT:      -9.6      6.792      8.998
REMARK  9 active torsions:
REMARK  status: ('A' for Active; 'I' for Inactive)
REMARK       I    between atoms: C_2  and  N_3 
REMARK    1  A    between atoms: N_3  and  C_4 
REMARK    2  A    between atoms: C_7  and  O_8 
REMARK    3  A    between atoms: O_8  and  C_9 
REMARK    4  A    between atoms: C_9  and  C_10 
REMARK    5  A    between atoms: C_11  and  O_12 
REMARK    6  A    between atoms: C_16  and  C_17 
REMARK    7  A    between atoms: C_31  and  O_32 
REMARK    8  A    between atoms: O_32  and  C_33 
REMARK    9  A    between atoms: C_33  and  C_34 
ROOT
HETATM    1  C   UNL     1      25.963  39.867  49.072  1.00  0.00     0.269 C 
HETATM    2  N   UNL     1      27.013  39.129  48.279  1.00  0.00    -0.061 N 
HETATM    3  H   UNL     1      27.555  39.824  47.755  1.00  0.00     0.278 HD
HETATM    4  H   UNL     1      26.537  38.543  47.585  1.00  0.00     0.278 HD
HETATM    5  C   UNL     1      27.951  38.310  49.130  1.00  0.00     0.238 C 
HETATM    6  C   UNL     1      28.766  39.210  50.080  1.00  0.00     0.069 C 
HETATM    7  C   UNL     1      27.889  40.235  50.716  1.00  0.00    -0.019 A 
HETATM    8  C   UNL     1      26.634  40.538  50.219  1.00  0.00     0.052 A 
HETATM    9  N   UNL     1      26.088  41.516  51.011  1.00  0.00    -0.356 N 
HETATM   10  H   UNL     1      25.176  41.947  50.899  1.00  0.00     0.166 HD
HETATM   11  C   UNL     1      26.971  41.840  52.018  1.00  0.00     0.043 A 
HETATM   12  C   UNL     1      28.109  41.046  51.862  1.00  0.00     0.002 A 
HETATM   13  C   UNL     1      26.841  42.770  53.052  1.00  0.00     0.033 A 
HETATM   14  C   UNL     1      27.903  42.882  53.954  1.00  0.00     0.039 A 
HETATM   15  C   UNL     1      29.052  42.099  53.837  1.00  0.00     0.070 A 
HETATM   16  C   UNL     1      29.168  41.178  52.788  1.00  0.00     0.051 A 
ENDROOT
BRANCH   1  17
HETATM   17  C   UNL     1      25.156  40.789  48.186  1.00  0.00    -0.021 A 
HETATM   18  C   UNL     1      25.091  40.629  46.796  1.00  0.00     0.012 A 
HETATM   19  C   UNL     1      24.319  41.493  46.010  1.00  0.00     0.038 A 
HETATM   20  C   UNL     1      23.614  42.552  46.591  1.00  0.00     0.076 A 
HETATM   21  C   UNL     1      23.700  42.756  47.976  1.00  0.00    -0.000 A 
HETATM   22  C   UNL     1      24.454  41.859  48.761  1.00  0.00     0.021 A 
BRANCH  20  23
HETATM   23  O   UNL     1      22.823  43.430  45.903  1.00  0.00    -0.355 OA
HETATM   24  C   UNL     1      21.602  42.945  45.357  1.00  0.00     0.210 C 
ENDBRANCH  20  23
BRANCH  21  25
HETATM   25  C   UNL     1      23.004  43.918  48.660  1.00  0.00     0.217 C 
BRANCH  25  26
HETATM   26  O   UNL     1      23.852  45.064  48.531  1.00  0.00    -0.347 OA
BRANCH  26  27
HETATM   27  C   UNL     1      24.542  45.453  49.644  1.00  0.00     0.069 A 
HETATM   28  C   UNL     1      24.163  44.810  50.822  1.00  0.00     0.039 A 
HETATM   29  C   UNL     1      24.778  45.121  52.040  1.00  0.00     0.032 A 
HETATM   30  C   UNL     1      25.777  46.091  52.098  1.00  0.00     0.034 A 
HETATM   31  C   UNL     1      26.153  46.738  50.914  1.00  0.00     0.032 A 
HETATM   32  C   UNL     1      25.540  46.423  49.694  1.00  0.00     0.039 A 
BRANCH  30  33
HETATM   33  N   UNL     1      26.443  46.471  53.283  1.00  0.00    -0.328 N 
HETATM   34  C   UNL     1      26.111  47.506  54.137  1.00  0.00     0.218 C 
HETATM   35  C   UNL     1      27.050  47.629  55.314  1.00  0.00     0.117 C 
HETATM   36  O   UNL     1      25.172  48.286  54.013  1.00  0.00    -0.274 OA
HETATM   37  H   UNL     1      27.259  45.923  53.525  1.00  0.00     0.169 HD
ENDBRANCH  30  33
ENDBRANCH  26  27
ENDBRANCH  25  26
ENDBRANCH  21  25
ENDBRANCH   1  17
BRANCH  15  38
HETATM   38  O   UNL     1      29.991  42.331  54.806  1.00  0.00    -0.347 OA
BRANCH  38  39
HETATM   39  C   UNL     1      30.768  43.522  54.698  1.00  0.00     0.214 C 
BRANCH  39  40
HETATM   40  C   UNL     1      30.665  44.278  56.000  1.00  0.00    -0.034 A 
HETATM   41  C   UNL     1      29.803  45.375  56.131  1.00  0.00     0.009 A 
HETATM   42  C   UNL     1      29.713  46.063  57.343  1.00  0.00     0.001 A 
HETATM   43  C   UNL     1      30.486  45.665  58.432  1.00  0.00     0.000 A 
HETATM   44  C   UNL     1      31.352  44.581  58.311  1.00  0.00     0.001 A 
HETATM   45  C   UNL     1      31.444  43.892  57.102  1.00  0.00     0.009 A 
ENDBRANCH  39  40
ENDBRANCH  38  39
ENDBRANCH  15  38
TORSDOF 9
ENDMDL
MODEL 10
REMARK VINA RESULT:      -9.6      3.145      5.501
REMARK  9 active torsions:
REMARK  status: ('A' for Active; 'I' for Inactive)
REMARK       I    between atoms: C_2  and  N_3 
REMARK    1  A    between atoms: N_3  and  C_4 
REMARK    2  A    between atoms: C_7  and  O_8 
REMARK    3  A    between atoms: O_8  and  C_9 
REMARK    4  A    between atoms: C_9  and  C_10 
REMARK    5  A    between atoms: C_11  and  O_12 
REMARK    6  A    between atoms: C_16  and  C_17 
REMARK    7  A    between atoms: C_31  and  O_32 
REMARK    8  A    between atoms: O_32  and  C_33 
REMARK    9  A    between atoms: C_33  and  C_34 
ROOT
HETATM    1  C   UNL     1      24.911  44.819  49.205  1.00  0.00     0.269 C 
HETATM    2  N   UNL     1      24.175  45.938  49.900  1.00  0.00    -0.061 N 
HETATM    3  H   UNL     1      23.445  45.517  50.484  1.00  0.00     0.278 HD
HETATM    4  H   UNL     1      23.694  46.497  49.186  1.00  0.00     0.278 HD
HETATM    5  C   UNL     1      25.061  46.803  50.762  1.00  0.00     0.238 C 
HETATM    6  C   UNL     1      25.675  45.989  51.917  1.00  0.00     0.069 C 
HETATM    7  C   UNL     1      26.174  44.672  51.425  1.00  0.00    -0.019 A 
HETATM    8  C   UNL     1      25.786  44.148  50.205  1.00  0.00     0.052 A 
HETATM    9  N   UNL     1      26.403  42.934  50.047  1.00  0.00    -0.356 N 
HETATM   10  H   UNL     1      26.315  42.308  49.254  1.00  0.00     0.166 HD
HETATM   11  C   UNL     1      27.193  42.672  51.146  1.00  0.00     0.043 A 
HETATM   12  C   UNL     1      27.074  43.750  52.026  1.00  0.00     0.002 A 
HETATM   13  C   UNL     1      28.003  41.567  51.419  1.00  0.00     0.033 A 
HETATM   14  C   UNL     1      28.715  41.572  52.622  1.00  0.00     0.039 A 
HETATM   15  C   UNL     1      28.630  42.636  53.521  1.00  0.00     0.070 A 
HETATM   16  C   UNL     1      27.806  43.731  53.234  1.00  0.00     0.051 A 
ENDROOT
BRANCH   1  17
HETATM   17  C   UNL     1      23.952  43.898  48.486  1.00  0.00    -0.021 A 
HETATM   18  C   UNL     1      24.232  42.542  48.269  1.00  0.00     0.012 A 
HETATM   19  C   UNL     1      23.310  41.716  47.613  1.00  0.00     0.038 A 
HETATM   20  C   UNL     1      22.101  42.230  47.136  1.00  0.00     0.076 A 
HETATM   21  C   UNL     1      21.821  43.595  47.303  1.00  0.00    -0.000 A 
HETATM   22  C   UNL     1      22.741  44.409  47.995  1.00  0.00     0.021 A 
BRANCH  20  23
HETATM   23  O   UNL     1      21.139  41.493  46.502  1.00  0.00    -0.355 OA
HETATM   24  C   UNL     1      21.361  41.129  45.145  1.00  0.00     0.210 C 
ENDBRANCH  20  23
BRANCH  21  25
HETATM   25  C   UNL     1      20.552  44.225  46.760  1.00  0.00     0.217 C 
BRANCH  25  26
HETATM   26  O   UNL     1      19.655  44.401  47.861  1.00  0.00    -0.347 OA
BRANCH  26  27
HETATM   27  C   UNL     1      19.145  45.655  48.051  1.00  0.00     0.069 A 
HETATM   28  C   UNL     1      20.100  46.666  48.144  1.00  0.00     0.039 A 
HETATM   29  C   UNL     1      19.719  47.997  48.353  1.00  0.00     0.032 A 
HETATM   30  C   UNL     1      18.373  48.333  48.482  1.00  0.00     0.034 A 
HETATM   31  C   UNL     1      17.416  47.314  48.391  1.00  0.00     0.032 A 
HETATM   32  C   UNL     1      17.798  45.982  48.178  1.00  0.00     0.039 A 
BRANCH  30  33
HETATM   33  N   UNL     1      17.903  49.646  48.700  1.00  0.00    -0.328 N 
HETATM   34  C   UNL     1      17.990  50.385  49.866  1.00  0.00     0.218 C 
HETATM   35  C   UNL     1      17.376  51.759  49.743  1.00  0.00     0.117 C 
HETATM   36  O   UNL     1      18.493  50.026  50.925  1.00  0.00    -0.274 OA
HETATM   37  H   UNL     1      17.446  50.087  47.912  1.00  0.00     0.169 HD
ENDBRANCH  30  33
ENDBRANCH  26  27
ENDBRANCH  25  26
ENDBRANCH  21  25
ENDBRANCH   1  17
BRANCH  15  38
HETATM   38  O   UNL     1      29.396  42.483  54.645  1.00  0.00    -0.347 OA
BRANCH  38  39
HETATM   39  C   UNL     1      30.621  43.209  54.712  1.00  0.00     0.214 C 
BRANCH  39  40
HETATM   40  C   UNL     1      30.603  44.063  55.956  1.00  0.00    -0.034 A 
HETATM   41  C   UNL     1      31.425  43.761  57.050  1.00  0.00     0.009 A 
HETATM   42  C   UNL     1      31.403  44.563  58.194  1.00  0.00     0.001 A 
HETATM   43  C   UNL     1      30.559  45.669  58.256  1.00  0.00     0.000 A 
HETATM   44  C   UNL     1      29.732  45.975  57.177  1.00  0.00     0.001 A 
HETATM   45  C   UNL     1      29.751  45.176  56.034  1.00  0.00     0.009 A 
ENDBRANCH  39  40
ENDBRANCH  38  39
ENDBRANCH  15  38
TORSDOF 9
ENDMDL
