MODEL 1
REMARK VINA RESULT:      -8.0      0.000      0.000
REMARK  5 active torsions:
REMARK  status: ('A' for Active; 'I' for Inactive)
REMARK    1  A    between atoms: C_2  and  C_3 
REMARK    2  A    between atoms: C_3  and  O_4 
REMARK    3  A    between atoms: C_3  and  C_5 
REMARK    4  A    between atoms: N_8  and  C_10 
REMARK    5  A    between atoms: C_10  and  C_11 
ROOT
HETATM    1  C   UNL     1      28.237  42.128  53.703  1.00  0.00     0.022 C 
HETATM    2  C   UNL     1      28.047  41.099  52.577  1.00  0.00     0.035 C 
HETATM    3  C   UNL     1      27.475  41.689  51.296  1.00  0.00     0.235 C 
HETATM    4  N   UNL     1      26.183  42.403  51.588  1.00  0.00    -0.066 N 
HETATM    5  H   UNL     1      25.502  41.674  51.862  1.00  0.00     0.280 HD
HETATM    6  C   UNL     1      26.279  43.435  52.667  1.00  0.00     0.235 C 
HETATM    7  C   UNL     1      26.892  42.844  53.930  1.00  0.00     0.035 C 
ENDROOT
BRANCH   1   8
HETATM    8  C   UNL     1      29.394  43.138  53.488  1.00  0.00     0.155 C 
BRANCH   8   9
HETATM    9  C   UNL     1      29.740  43.949  54.722  1.00  0.00    -0.029 A 
HETATM   10  C   UNL     1      29.113  45.175  55.004  1.00  0.00     0.011 A 
HETATM   11  C   UNL     1      29.454  45.905  56.146  1.00  0.00     0.024 A 
HETATM   12  C   UNL     1      30.420  45.414  57.019  1.00  0.00     0.034 A 
HETATM   13  C   UNL     1      31.051  44.200  56.758  1.00  0.00     0.024 A 
HETATM   14 CL   UNL     1      30.836  46.311  58.426  1.00  0.00    -0.084 Cl
HETATM   15  C   UNL     1      30.715  43.473  55.612  1.00  0.00     0.011 A 
ENDBRANCH   8   9
BRANCH   8  16
HETATM   16  O   UNL     1      30.556  42.482  52.987  1.00  0.00    -0.391 OA
HETATM   17  H   UNL     1      31.285  43.130  53.059  1.00  0.00     0.210 HD
ENDBRANCH   8  16
ENDBRANCH   1   8
BRANCH   4  18
HETATM   18  C   UNL     1      25.561  42.970  50.321  1.00  0.00     0.295 C 
BRANCH  18  19
HETATM   19  C   UNL     1      25.950  44.400  50.111  1.00  0.00     0.081 A 
HETATM   20  N   UNL     1      27.179  44.689  49.650  1.00  0.00    -0.178 NA
HETATM   21  N   UNL     1      27.184  46.039  49.576  1.00  0.00    -0.289 N 
HETATM   22  H   UNL     1      28.015  46.511  49.229  1.00  0.00     0.188 HD
HETATM   23  C   UNL     1      26.017  46.601  50.005  1.00  0.00     0.111 A 
HETATM   24  C   UNL     1      25.190  45.564  50.357  1.00  0.00     0.049 A 
ENDBRANCH  18  19
ENDBRANCH   4  18
TORSDOF 5
ENDMDL
MODEL 2
REMARK VINA RESULT:      -7.9      2.782      3.677
REMARK  5 active torsions:
REMARK  status: ('A' for Active; 'I' for Inactive)
REMARK    1  A    between atoms: C_2  and  C_3 
REMARK    2  A    between atoms: C_3  and  O_4 
REMARK    3  A    between atoms: C_3  and  C_5 
REMARK    4  A    between atoms: N_8  and  C_10 
REMARK    5  A    between atoms: C_10  and  C_11 
ROOT
HETATM    1  C   UNL     1      26.350  45.332  53.427  1.00  0.00     0.022 C 
HETATM    2  C   UNL     1      25.011  44.773  52.917  1.00  0.00     0.035 C 
HETATM    3  C   UNL     1      24.774  45.006  51.432  1.00  0.00     0.235 C 
HETATM    4  N   UNL     1      24.896  46.472  51.113  1.00  0.00    -0.066 N 
HETATM    5  H   UNL     1      24.098  46.939  51.577  1.00  0.00     0.280 HD
HETATM    6  C   UNL     1      26.178  47.097  51.564  1.00  0.00     0.235 C 
HETATM    7  C   UNL     1      26.425  46.821  53.042  1.00  0.00     0.035 C 
ENDROOT
BRANCH   1   8
HETATM    8  C   UNL     1      27.610  44.555  52.962  1.00  0.00     0.155 C 
BRANCH   8   9
HETATM    9  C   UNL     1      28.663  44.391  54.041  1.00  0.00    -0.029 A 
HETATM   10  C   UNL     1      28.824  45.334  55.071  1.00  0.00     0.011 A 
HETATM   11  C   UNL     1      29.806  45.160  56.050  1.00  0.00     0.024 A 
HETATM   12  C   UNL     1      30.632  44.041  56.013  1.00  0.00     0.034 A 
HETATM   13  C   UNL     1      30.486  43.094  55.002  1.00  0.00     0.024 A 
HETATM   14 CL   UNL     1      31.837  43.827  57.221  1.00  0.00    -0.084 Cl
HETATM   15  C   UNL     1      29.508  43.271  54.019  1.00  0.00     0.011 A 
ENDBRANCH   8   9
BRANCH   8  16
HETATM   16  O   UNL     1      27.255  43.285  52.422  1.00  0.00    -0.391 OA
HETATM   17  H   UNL     1      27.733  42.620  52.956  1.00  0.00     0.210 HD
ENDBRANCH   8  16
ENDBRANCH   1   8
BRANCH   4  18
HETATM   18  C   UNL     1      24.622  46.746  49.642  1.00  0.00     0.295 C 
BRANCH  18  19
HETATM   19  C   UNL     1      23.496  47.716  49.466  1.00  0.00     0.081 A 
HETATM   20  N   UNL     1      23.611  48.958  49.966  1.00  0.00    -0.178 NA
HETATM   21  N   UNL     1      22.443  49.549  49.625  1.00  0.00    -0.289 N 
HETATM   22  H   UNL     1      22.290  50.521  49.879  1.00  0.00     0.188 HD
HETATM   23  C   UNL     1      21.595  48.711  48.962  1.00  0.00     0.111 A 
HETATM   24  C   UNL     1      22.249  47.511  48.837  1.00  0.00     0.049 A 
ENDBRANCH  18  19
ENDBRANCH   4  18
TORSDOF 5
ENDMDL
MODEL 3
REMARK VINA RESULT:      -7.9      2.103      3.075
REMARK  5 active torsions:
REMARK  status: ('A' for Active; 'I' for Inactive)
REMARK    1  A    between atoms: C_2  and  C_3 
REMARK    2  A    between atoms: C_3  and  O_4 
REMARK    3  A    between atoms: C_3  and  C_5 
REMARK    4  A    between atoms: N_8  and  C_10 
REMARK    5  A    between atoms: C_10  and  C_11 
ROOT
HETATM    1  C   UNL     1      26.395  45.092  53.654  1.00  0.00     0.022 C 
HETATM    2  C   UNL     1      25.137  44.531  52.971  1.00  0.00     0.035 C 
HETATM    3  C   UNL     1      24.931  45.036  51.551  1.00  0.00     0.235 C 
HETATM    4  N   UNL     1      24.922  46.541  51.534  1.00  0.00    -0.066 N 
HETATM    5  H   UNL     1      24.066  46.833  52.036  1.00  0.00     0.280 HD
HETATM    6  C   UNL     1      26.120  47.173  52.169  1.00  0.00     0.235 C 
HETATM    7  C   UNL     1      26.339  46.628  53.575  1.00  0.00     0.035 C 
ENDROOT
BRANCH   1   8
HETATM    8  C   UNL     1      27.740  44.538  53.116  1.00  0.00     0.155 C 
BRANCH   8   9
HETATM    9  C   UNL     1      28.801  44.354  54.184  1.00  0.00    -0.029 A 
HETATM   10  C   UNL     1      28.994  45.298  55.208  1.00  0.00     0.011 A 
HETATM   11  C   UNL     1      29.982  45.106  56.178  1.00  0.00     0.024 A 
HETATM   12  C   UNL     1      30.782  43.968  56.137  1.00  0.00     0.034 A 
HETATM   13  C   UNL     1      30.604  43.020  55.131  1.00  0.00     0.024 A 
HETATM   14 CL   UNL     1      31.995  43.731  57.333  1.00  0.00    -0.084 Cl
HETATM   15  C   UNL     1      29.620  43.215  54.158  1.00  0.00     0.011 A 
ENDBRANCH   8   9
BRANCH   8  16
HETATM   16  O   UNL     1      27.541  43.320  52.403  1.00  0.00    -0.391 OA
HETATM   17  H   UNL     1      26.611  43.331  52.102  1.00  0.00     0.210 HD
ENDBRANCH   8  16
ENDBRANCH   1   8
BRANCH   4  18
HETATM   18  C   UNL     1      24.677  47.081  50.133  1.00  0.00     0.295 C 
BRANCH  18  19
HETATM   19  C   UNL     1      25.901  47.736  49.576  1.00  0.00     0.081 A 
HETATM   20  N   UNL     1      26.990  46.989  49.321  1.00  0.00    -0.178 NA
HETATM   21  N   UNL     1      27.882  47.880  48.832  1.00  0.00    -0.289 N 
HETATM   22  H   UNL     1      28.799  47.552  48.541  1.00  0.00     0.188 HD
HETATM   23  C   UNL     1      27.399  49.156  48.803  1.00  0.00     0.111 A 
HETATM   24  C   UNL     1      26.112  49.098  49.276  1.00  0.00     0.049 A 
ENDBRANCH  18  19
ENDBRANCH   4  18
TORSDOF 5
ENDMDL
MODEL 4
REMARK VINA RESULT:      -7.9      1.645      2.320
REMARK  5 active torsions:
REMARK  status: ('A' for Active; 'I' for Inactive)
REMARK    1  A    between atoms: C_2  and  C_3 
REMARK    2  A    between atoms: C_3  and  O_4 
REMARK    3  A    between atoms: C_3  and  C_5 
REMARK    4  A    between atoms: N_8  and  C_10 
REMARK    5  A    between atoms: C_10  and  C_11 
ROOT
HETATM    1  C   UNL     1      28.050  42.449  53.519  1.00  0.00     0.022 C 
HETATM    2  C   UNL     1      27.440  42.012  52.177  1.00  0.00     0.035 C 
HETATM    3  C   UNL     1      26.638  43.103  51.483  1.00  0.00     0.235 C 
HETATM    4  N   UNL     1      25.573  43.629  52.406  1.00  0.00    -0.066 N 
HETATM    5  H   UNL     1      24.896  42.858  52.539  1.00  0.00     0.280 HD
HETATM    6  C   UNL     1      26.081  44.090  53.736  1.00  0.00     0.235 C 
HETATM    7  C   UNL     1      26.917  43.005  54.402  1.00  0.00     0.035 C 
ENDROOT
BRANCH   1   8
HETATM    8  C   UNL     1      29.235  43.445  53.413  1.00  0.00     0.155 C 
BRANCH   8   9
HETATM    9  C   UNL     1      29.775  43.902  54.755  1.00  0.00    -0.029 A 
HETATM   10  C   UNL     1      30.704  43.136  55.480  1.00  0.00     0.011 A 
HETATM   11  C   UNL     1      31.182  43.579  56.717  1.00  0.00     0.024 A 
HETATM   12  C   UNL     1      30.741  44.792  57.237  1.00  0.00     0.034 A 
HETATM   13  C   UNL     1      29.822  45.565  56.533  1.00  0.00     0.024 A 
HETATM   14 CL   UNL     1      31.333  45.336  58.757  1.00  0.00    -0.084 Cl
HETATM   15  C   UNL     1      29.339  45.120  55.299  1.00  0.00     0.011 A 
ENDBRANCH   8   9
BRANCH   8  16
HETATM   16  O   UNL     1      30.285  42.903  52.617  1.00  0.00    -0.391 OA
HETATM   17  H   UNL     1      30.457  43.560  51.912  1.00  0.00     0.210 HD
ENDBRANCH   8  16
ENDBRANCH   1   8
BRANCH   4  18
HETATM   18  C   UNL     1      24.724  44.694  51.728  1.00  0.00     0.295 C 
BRANCH  18  19
HETATM   19  C   UNL     1      24.075  44.169  50.485  1.00  0.00     0.081 A 
HETATM   20  N   UNL     1      23.121  43.228  50.587  1.00  0.00    -0.178 NA
HETATM   21  N   UNL     1      22.760  42.998  49.304  1.00  0.00    -0.289 N 
HETATM   22  H   UNL     1      22.024  42.324  49.112  1.00  0.00     0.188 HD
HETATM   23  C   UNL     1      23.477  43.737  48.409  1.00  0.00     0.111 A 
HETATM   24  C   UNL     1      24.339  44.513  49.142  1.00  0.00     0.049 A 
ENDBRANCH  18  19
ENDBRANCH   4  18
TORSDOF 5
ENDMDL
MODEL 5
REMARK VINA RESULT:      -7.8      2.534      3.959
REMARK  5 active torsions:
REMARK  status: ('A' for Active; 'I' for Inactive)
REMARK    1  A    between atoms: C_2  and  C_3 
REMARK    2  A    between atoms: C_3  and  O_4 
REMARK    3  A    between atoms: C_3  and  C_5 
REMARK    4  A    between atoms: N_8  and  C_10 
REMARK    5  A    between atoms: C_10  and  C_11 
ROOT
HETATM    1  C   UNL     1      27.968  42.584  53.289  1.00  0.00     0.022 C 
HETATM    2  C   UNL     1      28.105  41.059  53.140  1.00  0.00     0.035 C 
HETATM    3  C   UNL     1      28.486  40.611  51.737  1.00  0.00     0.235 C 
HETATM    4  N   UNL     1      27.507  41.160  50.735  1.00  0.00    -0.066 N 
HETATM    5  H   UNL     1      26.605  40.687  50.919  1.00  0.00     0.280 HD
HETATM    6  C   UNL     1      27.322  42.643  50.801  1.00  0.00     0.235 C 
HETATM    7  C   UNL     1      26.981  43.084  52.219  1.00  0.00     0.035 C 
ENDROOT
BRANCH   1   8
HETATM    8  C   UNL     1      29.304  43.373  53.252  1.00  0.00     0.155 C 
BRANCH   8   9
HETATM    9  C   UNL     1      29.622  44.104  54.541  1.00  0.00    -0.029 A 
HETATM   10  C   UNL     1      28.917  45.254  54.936  1.00  0.00     0.011 A 
HETATM   11  C   UNL     1      29.234  45.912  56.127  1.00  0.00     0.024 A 
HETATM   12  C   UNL     1      30.254  45.424  56.939  1.00  0.00     0.034 A 
HETATM   13  C   UNL     1      30.963  44.285  56.566  1.00  0.00     0.024 A 
HETATM   14 CL   UNL     1      30.640  46.232  58.406  1.00  0.00    -0.084 Cl
HETATM   15  C   UNL     1      30.650  43.630  55.371  1.00  0.00     0.011 A 
ENDBRANCH   8   9
BRANCH   8  16
HETATM   16  O   UNL     1      30.387  42.522  52.886  1.00  0.00    -0.391 OA
HETATM   17  H   UNL     1      30.152  41.629  53.208  1.00  0.00     0.210 HD
ENDBRANCH   8  16
ENDBRANCH   1   8
BRANCH   4  18
HETATM   18  C   UNL     1      27.835  40.697  49.323  1.00  0.00     0.295 C 
BRANCH  18  19
HETATM   19  C   UNL     1      27.851  39.203  49.227  1.00  0.00     0.081 A 
HETATM   20  N   UNL     1      28.991  38.577  48.888  1.00  0.00    -0.178 NA
HETATM   21  N   UNL     1      28.654  37.268  48.904  1.00  0.00    -0.289 N 
HETATM   22  H   UNL     1      29.365  36.572  48.695  1.00  0.00     0.188 HD
HETATM   23  C   UNL     1      27.340  37.059  49.209  1.00  0.00     0.111 A 
HETATM   24  C   UNL     1      26.789  38.297  49.429  1.00  0.00     0.049 A 
ENDBRANCH  18  19
ENDBRANCH   4  18
TORSDOF 5
ENDMDL
MODEL 6
REMARK VINA RESULT:      -7.7      1.724      2.506
REMARK  5 active torsions:
REMARK  status: ('A' for Active; 'I' for Inactive)
REMARK    1  A    between atoms: C_2  and  C_3 
REMARK    2  A    between atoms: C_3  and  O_4 
REMARK    3  A    between atoms: C_3  and  C_5 
REMARK    4  A    between atoms: N_8  and  C_10 
REMARK    5  A    between atoms: C_10  and  C_11 
ROOT
HETATM    1  C   UNL     1      28.186  42.275  53.494  1.00  0.00     0.022 C 
HETATM    2  C   UNL     1      28.231  40.989  52.653  1.00  0.00     0.035 C 
HETATM    3  C   UNL     1      28.090  41.227  51.157  1.00  0.00     0.235 C 
HETATM    4  N   UNL     1      26.833  42.005  50.874  1.00  0.00    -0.066 N 
HETATM    5  H   UNL     1      26.044  41.379  51.109  1.00  0.00     0.280 HD
HETATM    6  C   UNL     1      26.712  43.282  51.642  1.00  0.00     0.235 C 
HETATM    7  C   UNL     1      26.897  43.037  53.134  1.00  0.00     0.035 C 
ENDROOT
BRANCH   1   8
HETATM    8  C   UNL     1      29.438  43.183  53.380  1.00  0.00     0.155 C 
BRANCH   8   9
HETATM    9  C   UNL     1      29.759  43.949  54.649  1.00  0.00    -0.029 A 
HETATM   10  C   UNL     1      29.111  45.153  54.973  1.00  0.00     0.011 A 
HETATM   11  C   UNL     1      29.429  45.842  56.146  1.00  0.00     0.024 A 
HETATM   12  C   UNL     1      30.394  45.331  57.010  1.00  0.00     0.034 A 
HETATM   13  C   UNL     1      31.045  44.138  56.708  1.00  0.00     0.024 A 
HETATM   14 CL   UNL     1      30.781  46.177  58.456  1.00  0.00    -0.084 Cl
HETATM   15  C   UNL     1      30.732  43.452  55.531  1.00  0.00     0.011 A 
ENDBRANCH   8   9
BRANCH   8  16
HETATM   16  O   UNL     1      30.574  42.433  52.956  1.00  0.00    -0.391 OA
HETATM   17  H   UNL     1      30.625  42.543  51.985  1.00  0.00     0.210 HD
ENDBRANCH   8  16
ENDBRANCH   1   8
BRANCH   4  18
HETATM   18  C   UNL     1      26.638  42.225  49.381  1.00  0.00     0.295 C 
BRANCH  18  19
HETATM   19  C   UNL     1      25.294  41.750  48.927  1.00  0.00     0.081 A 
HETATM   20  N   UNL     1      25.190  40.566  48.300  1.00  0.00    -0.178 NA
HETATM   21  N   UNL     1      23.867  40.453  48.046  1.00  0.00    -0.289 N 
HETATM   22  H   UNL     1      23.523  39.616  47.583  1.00  0.00     0.188 HD
HETATM   23  C   UNL     1      23.150  41.536  48.463  1.00  0.00     0.111 A 
HETATM   24  C   UNL     1      24.046  42.398  49.045  1.00  0.00     0.049 A 
ENDBRANCH  18  19
ENDBRANCH   4  18
TORSDOF 5
ENDMDL
MODEL 7
REMARK VINA RESULT:      -7.5      3.190      4.437
REMARK  5 active torsions:
REMARK  status: ('A' for Active; 'I' for Inactive)
REMARK    1  A    between atoms: C_2  and  C_3 
REMARK    2  A    between atoms: C_3  and  O_4 
REMARK    3  A    between atoms: C_3  and  C_5 
REMARK    4  A    between atoms: N_8  and  C_10 
REMARK    5  A    between atoms: C_10  and  C_11 
ROOT
HETATM    1  C   UNL     1      25.672  44.630  52.108  1.00  0.00     0.022 C 
HETATM    2  C   UNL     1      24.537  44.273  51.134  1.00  0.00     0.035 C 
HETATM    3  C   UNL     1      24.446  45.199  49.930  1.00  0.00     0.235 C 
HETATM    4  N   UNL     1      24.329  46.629  50.385  1.00  0.00    -0.066 N 
HETATM    5  H   UNL     1      23.406  46.714  50.844  1.00  0.00     0.280 HD
HETATM    6  C   UNL     1      25.405  47.066  51.328  1.00  0.00     0.235 C 
HETATM    7  C   UNL     1      25.514  46.108  52.508  1.00  0.00     0.035 C 
ENDROOT
BRANCH   1   8
HETATM    8  C   UNL     1      27.104  44.326  51.592  1.00  0.00     0.155 C 
BRANCH   8   9
HETATM    9  C   UNL     1      28.106  44.044  52.695  1.00  0.00    -0.029 A 
HETATM   10  C   UNL     1      29.168  43.139  52.519  1.00  0.00     0.011 A 
HETATM   11  C   UNL     1      30.075  42.894  53.553  1.00  0.00     0.024 A 
HETATM   12  C   UNL     1      29.933  43.553  54.771  1.00  0.00     0.034 A 
HETATM   13  C   UNL     1      28.889  44.455  54.964  1.00  0.00     0.024 A 
HETATM   14 CL   UNL     1      31.052  43.253  56.041  1.00  0.00    -0.084 Cl
HETATM   15  C   UNL     1      27.978  44.696  53.931  1.00  0.00     0.011 A 
ENDBRANCH   8   9
BRANCH   8  16
HETATM   16  O   UNL     1      27.090  43.256  50.652  1.00  0.00    -0.391 OA
HETATM   17  H   UNL     1      27.194  43.668  49.771  1.00  0.00     0.210 HD
ENDBRANCH   8  16
ENDBRANCH   1   8
BRANCH   4  18
HETATM   18  C   UNL     1      24.194  47.580  49.205  1.00  0.00     0.295 C 
BRANCH  18  19
HETATM   19  C   UNL     1      22.975  48.438  49.329  1.00  0.00     0.081 A 
HETATM   20  N   UNL     1      23.090  49.677  49.837  1.00  0.00    -0.178 NA
HETATM   21  N   UNL     1      21.826  50.158  49.797  1.00  0.00    -0.289 N 
HETATM   22  H   UNL     1      21.649  51.107  50.116  1.00  0.00     0.188 HD
HETATM   23  C   UNL     1      20.927  49.253  49.314  1.00  0.00     0.111 A 
HETATM   24  C   UNL     1      21.640  48.124  48.996  1.00  0.00     0.049 A 
ENDBRANCH  18  19
ENDBRANCH   4  18
TORSDOF 5
ENDMDL
MODEL 8
REMARK VINA RESULT:      -7.3      2.420      3.934
REMARK  5 active torsions:
REMARK  status: ('A' for Active; 'I' for Inactive)
REMARK    1  A    between atoms: C_2  and  C_3 
REMARK    2  A    between atoms: C_3  and  O_4 
REMARK    3  A    between atoms: C_3  and  C_5 
REMARK    4  A    between atoms: N_8  and  C_10 
REMARK    5  A    between atoms: C_10  and  C_11 
ROOT
HETATM    1  C   UNL     1      25.775  44.680  52.038  1.00  0.00     0.022 C 
HETATM    2  C   UNL     1      24.512  44.432  51.196  1.00  0.00     0.035 C 
HETATM    3  C   UNL     1      24.578  43.171  50.347  1.00  0.00     0.235 C 
HETATM    4  N   UNL     1      25.804  43.199  49.475  1.00  0.00    -0.066 N 
HETATM    5  H   UNL     1      25.658  43.961  48.791  1.00  0.00     0.280 HD
HETATM    6  C   UNL     1      27.084  43.424  50.215  1.00  0.00     0.235 C 
HETATM    7  C   UNL     1      26.991  44.665  51.094  1.00  0.00     0.035 C 
ENDROOT
BRANCH   1   8
HETATM    8  C   UNL     1      25.969  43.716  53.238  1.00  0.00     0.155 C 
BRANCH   8   9
HETATM    9  C   UNL     1      27.300  43.877  53.946  1.00  0.00    -0.029 A 
HETATM   10  C   UNL     1      27.646  45.064  54.616  1.00  0.00     0.011 A 
HETATM   11  C   UNL     1      28.881  45.187  55.257  1.00  0.00     0.024 A 
HETATM   12  C   UNL     1      29.781  44.125  55.239  1.00  0.00     0.034 A 
HETATM   13  C   UNL     1      29.456  42.941  54.583  1.00  0.00     0.024 A 
HETATM   14 CL   UNL     1      31.299  44.277  56.032  1.00  0.00    -0.084 Cl
HETATM   15  C   UNL     1      28.222  42.819  53.936  1.00  0.00     0.011 A 
ENDBRANCH   8   9
BRANCH   8  16
HETATM   16  O   UNL     1      24.896  43.839  54.168  1.00  0.00    -0.391 OA
HETATM   17  H   UNL     1      24.474  42.958  54.213  1.00  0.00     0.210 HD
ENDBRANCH   8  16
ENDBRANCH   1   8
BRANCH   4  18
HETATM   18  C   UNL     1      25.879  41.970  48.580  1.00  0.00     0.295 C 
BRANCH  18  19
HETATM   19  C   UNL     1      27.040  41.098  48.943  1.00  0.00     0.081 A 
HETATM   20  N   UNL     1      28.142  41.114  48.174  1.00  0.00    -0.178 NA
HETATM   21  N   UNL     1      28.970  40.236  48.784  1.00  0.00    -0.289 N 
HETATM   22  H   UNL     1      29.897  40.081  48.396  1.00  0.00     0.188 HD
HETATM   23  C   UNL     1      28.412  39.653  49.884  1.00  0.00     0.111 A 
HETATM   24  C   UNL     1      27.158  40.193  50.020  1.00  0.00     0.049 A 
ENDBRANCH  18  19
ENDBRANCH   4  18
TORSDOF 5
ENDMDL
MODEL 9
REMARK VINA RESULT:      -7.1      8.967     11.741
REMARK  5 active torsions:
REMARK  status: ('A' for Active; 'I' for Inactive)
REMARK    1  A    between atoms: C_2  and  C_3 
REMARK    2  A    between atoms: C_3  and  O_4 
REMARK    3  A    between atoms: C_3  and  C_5 
REMARK    4  A    between atoms: N_8  and  C_10 
REMARK    5  A    between atoms: C_10  and  C_11 
ROOT
HETATM    1  C   UNL     1      21.063  50.694  49.530  1.00  0.00     0.022 C 
HETATM    2  C   UNL     1      19.974  50.530  50.603  1.00  0.00     0.035 C 
HETATM    3  C   UNL     1      18.622  50.110  50.047  1.00  0.00     0.235 C 
HETATM    4  N   UNL     1      18.179  51.075  48.981  1.00  0.00    -0.066 N 
HETATM    5  H   UNL     1      17.992  51.973  49.460  1.00  0.00     0.280 HD
HETATM    6  C   UNL     1      19.176  51.286  47.886  1.00  0.00     0.235 C 
HETATM    7  C   UNL     1      20.537  51.665  48.457  1.00  0.00     0.035 C 
ENDROOT
BRANCH   1   8
HETATM    8  C   UNL     1      21.577  49.371  48.903  1.00  0.00     0.155 C 
BRANCH   8   9
HETATM    9  C   UNL     1      23.088  49.240  48.898  1.00  0.00    -0.029 A 
HETATM   10  C   UNL     1      23.907  50.123  48.174  1.00  0.00     0.011 A 
HETATM   11  C   UNL     1      25.296  49.977  48.182  1.00  0.00     0.024 A 
HETATM   12  C   UNL     1      25.881  48.950  48.917  1.00  0.00     0.034 A 
HETATM   13  C   UNL     1      25.087  48.065  49.642  1.00  0.00     0.024 A 
HETATM   14 CL   UNL     1      27.591  48.774  48.929  1.00  0.00    -0.084 Cl
HETATM   15  C   UNL     1      23.696  48.208  49.629  1.00  0.00     0.011 A 
ENDBRANCH   8   9
BRANCH   8  16
HETATM   16  O   UNL     1      20.986  48.242  49.541  1.00  0.00    -0.391 OA
HETATM   17  H   UNL     1      21.104  47.490  48.926  1.00  0.00     0.210 HD
ENDBRANCH   8  16
ENDBRANCH   1   8
BRANCH   4  18
HETATM   18  C   UNL     1      16.808  50.708  48.431  1.00  0.00     0.295 C 
BRANCH  18  19
HETATM   19  C   UNL     1      15.926  51.911  48.312  1.00  0.00     0.081 A 
HETATM   20  N   UNL     1      15.705  52.449  47.100  1.00  0.00    -0.178 NA
HETATM   21  N   UNL     1      14.878  53.488  47.358  1.00  0.00    -0.289 N 
HETATM   22  H   UNL     1      14.544  54.056  46.583  1.00  0.00     0.188 HD
HETATM   23  C   UNL     1      14.604  53.634  48.686  1.00  0.00     0.111 A 
HETATM   24  C   UNL     1      15.265  52.623  49.336  1.00  0.00     0.049 A 
ENDBRANCH  18  19
ENDBRANCH   4  18
TORSDOF 5
ENDMDL
MODEL 10
REMARK VINA RESULT:      -7.1     14.030     16.097
REMARK  5 active torsions:
REMARK  status: ('A' for Active; 'I' for Inactive)
REMARK    1  A    between atoms: C_2  and  C_3 
REMARK    2  A    between atoms: C_3  and  O_4 
REMARK    3  A    between atoms: C_3  and  C_5 
REMARK    4  A    between atoms: N_8  and  C_10 
REMARK    5  A    between atoms: C_10  and  C_11 
ROOT
HETATM    1  C   UNL     1      28.773  52.758  39.646  1.00  0.00     0.022 C 
HETATM    2  C   UNL     1      29.818  53.819  40.033  1.00  0.00     0.035 C 
HETATM    3  C   UNL     1      30.963  53.275  40.874  1.00  0.00     0.235 C 
HETATM    4  N   UNL     1      30.424  52.586  42.098  1.00  0.00    -0.066 N 
HETATM    5  H   UNL     1      30.002  53.325  42.686  1.00  0.00     0.280 HD
HETATM    6  C   UNL     1      29.407  51.526  41.812  1.00  0.00     0.235 C 
HETATM    7  C   UNL     1      28.287  52.071  40.935  1.00  0.00     0.035 C 
ENDROOT
BRANCH   1   8
HETATM    8  C   UNL     1      29.242  51.726  38.588  1.00  0.00     0.155 C 
BRANCH   8   9
HETATM    9  C   UNL     1      28.315  50.535  38.437  1.00  0.00    -0.029 A 
HETATM   10  C   UNL     1      26.965  50.687  38.073  1.00  0.00     0.011 A 
HETATM   11  C   UNL     1      26.131  49.574  37.947  1.00  0.00     0.024 A 
HETATM   12  C   UNL     1      26.637  48.298  38.178  1.00  0.00     0.034 A 
HETATM   13  C   UNL     1      27.971  48.127  38.538  1.00  0.00     0.024 A 
HETATM   14 CL   UNL     1      25.610  46.928  38.018  1.00  0.00    -0.084 Cl
HETATM   15  C   UNL     1      28.805  49.241  38.671  1.00  0.00     0.011 A 
ENDBRANCH   8   9
BRANCH   8  16
HETATM   16  O   UNL     1      29.452  52.350  37.324  1.00  0.00    -0.391 OA
HETATM   17  H   UNL     1      28.615  52.247  36.829  1.00  0.00     0.210 HD
ENDBRANCH   8  16
ENDBRANCH   1   8
BRANCH   4  18
HETATM   18  C   UNL     1      31.546  52.065  42.984  1.00  0.00     0.295 C 
BRANCH  18  19
HETATM   19  C   UNL     1      32.021  50.719  42.534  1.00  0.00     0.081 A 
HETATM   20  N   UNL     1      31.720  49.635  43.268  1.00  0.00    -0.178 NA
HETATM   21  N   UNL     1      32.285  48.617  42.581  1.00  0.00    -0.289 N 
HETATM   22  H   UNL     1      32.181  47.668  42.931  1.00  0.00     0.188 HD
HETATM   23  C   UNL     1      32.953  49.031  41.466  1.00  0.00     0.111 A 
HETATM   24  C   UNL     1      32.798  50.394  41.402  1.00  0.00     0.049 A 
ENDBRANCH  18  19
ENDBRANCH   4  18
TORSDOF 5
ENDMDL
