MODEL 1
REMARK VINA RESULT:      -7.8      0.000      0.000
REMARK  7 active torsions:
REMARK  status: ('A' for Active; 'I' for Inactive)
REMARK    1  A    between atoms: C_4  and  C_5 
REMARK    2  A    between atoms: C_10  and  C_11 
REMARK       I    between atoms: C_11  and  N_12 
REMARK    3  A    between atoms: N_12  and  C_13 
REMARK    4  A    between atoms: C_13  and  C_14 
REMARK    5  A    between atoms: C_14  and  C_15 
REMARK    6  A    between atoms: C_15  and  N_16 
REMARK    7  A    between atoms: C_26  and  C_27 
ROOT
HETATM    1  C   UNL     1      17.762  48.207  48.670  1.00  0.00     0.125 C 
HETATM    2  N   UNL     1      19.085  47.575  48.689  1.00  0.00    -0.365 N 
HETATM    3  C   UNL     1      20.218  48.301  48.525  1.00  0.00     0.141 A 
HETATM    4  N   UNL     1      20.185  49.672  48.524  1.00  0.00    -0.238 N 
HETATM    5  N   UNL     1      21.384  50.239  48.299  1.00  0.00    -0.163 NA
HETATM    6  C   UNL     1      22.240  49.192  48.244  1.00  0.00     0.165 A 
HETATM    7  C   UNL     1      21.538  47.969  48.358  1.00  0.00     0.092 A 
HETATM    8 BR   UNL     1      22.266  46.245  48.316  1.00  0.00    -0.044 Br
HETATM    9  C   UNL     1      18.965  50.454  48.657  1.00  0.00     0.221 C 
HETATM   10  C   UNL     1      17.866  49.600  49.317  1.00  0.00     0.067 C 
HETATM   11  H   UNL     1      19.080  46.573  48.489  1.00  0.00     0.162 HD
ENDROOT
BRANCH   6  12
HETATM   12  C   UNL     1      23.681  49.437  48.114  1.00  0.00     0.273 C 
HETATM   13  N   UNL     1      24.443  48.721  49.015  1.00  0.00    -0.355 N 
HETATM   14  H   UNL     1      23.909  48.168  49.690  1.00  0.00     0.162 HD
HETATM   15  O   UNL     1      24.212  50.143  47.255  1.00  0.00    -0.266 OA
BRANCH  13  16
HETATM   16  C   UNL     1      25.876  48.835  49.127  1.00  0.00     0.124 C 
BRANCH  16  17
HETATM   17  C   UNL     1      26.529  47.630  49.802  1.00  0.00     0.047 C 
BRANCH  17  18
HETATM   18  C   UNL     1      25.615  46.457  50.162  1.00  0.00     0.236 C 
BRANCH  18  19
HETATM   19  N   UNL     1      25.760  45.977  51.581  1.00  0.00    -0.067 N 
HETATM   20  H   UNL     1      24.835  45.592  51.869  1.00  0.00     0.280 HD
HETATM   21  C   UNL     1      26.825  44.918  51.795  1.00  0.00     0.261 C 
HETATM   22  C   UNL     1      26.878  44.519  53.274  1.00  0.00     0.195 C 
HETATM   23  O   UNL     1      27.118  45.658  54.107  1.00  0.00    -0.388 OA
HETATM   24  C   UNL     1      26.070  46.626  53.979  1.00  0.00     0.195 C 
HETATM   25  C   UNL     1      25.986  47.147  52.541  1.00  0.00     0.261 C 
ENDBRANCH  18  19
ENDBRANCH  17  18
ENDBRANCH  16  17
ENDBRANCH  13  16
ENDBRANCH   6  12
BRANCH   9  26
HETATM   26  C   UNL     1      19.189  51.713  49.466  1.00  0.00     0.409 C 
HETATM   27  F   UNL     1      18.058  52.136  50.077  1.00  0.00    -0.169 F 
HETATM   28  F   UNL     1      20.143  51.568  50.412  1.00  0.00    -0.169 F 
HETATM   29  F   UNL     1      19.602  52.722  48.659  1.00  0.00    -0.169 F 
ENDBRANCH   9  26
BRANCH   1  30
HETATM   30  C   UNL     1      17.105  48.268  47.309  1.00  0.00     0.005 A 
HETATM   31  S   UNL     1      15.617  49.113  47.126  1.00  0.00    -0.104 SA
HETATM   32  C   UNL     1      15.543  48.763  45.456  1.00  0.00     0.050 A 
HETATM   33  C   UNL     1      16.615  48.009  45.039  1.00  0.00     0.008 A 
HETATM   34  C   UNL     1      17.513  47.719  46.107  1.00  0.00     0.017 A 
ENDBRANCH   1  30
TORSDOF 7
ENDMDL
MODEL 2
REMARK VINA RESULT:      -7.7     12.662     14.870
REMARK  7 active torsions:
REMARK  status: ('A' for Active; 'I' for Inactive)
REMARK    1  A    between atoms: C_4  and  C_5 
REMARK    2  A    between atoms: C_10  and  C_11 
REMARK       I    between atoms: C_11  and  N_12 
REMARK    3  A    between atoms: N_12  and  C_13 
REMARK    4  A    between atoms: C_13  and  C_14 
REMARK    5  A    between atoms: C_14  and  C_15 
REMARK    6  A    between atoms: C_15  and  N_16 
REMARK    7  A    between atoms: C_26  and  C_27 
ROOT
HETATM    1  C   UNL     1      30.040  49.594  41.961  1.00  0.00     0.125 C 
HETATM    2  N   UNL     1      31.492  49.791  42.012  1.00  0.00    -0.365 N 
HETATM    3  C   UNL     1      32.114  50.678  41.197  1.00  0.00     0.141 A 
HETATM    4  N   UNL     1      31.395  51.558  40.429  1.00  0.00    -0.238 N 
HETATM    5  N   UNL     1      32.161  52.333  39.640  1.00  0.00    -0.163 NA
HETATM    6  C   UNL     1      33.428  52.003  39.981  1.00  0.00     0.165 A 
HETATM    7  C   UNL     1      33.431  50.956  40.932  1.00  0.00     0.092 A 
HETATM    8 BR   UNL     1      34.929  50.134  41.697  1.00  0.00    -0.044 Br
HETATM    9  C   UNL     1      29.941  51.597  40.389  1.00  0.00     0.221 C 
HETATM   10  C   UNL     1      29.365  50.944  41.659  1.00  0.00     0.067 C 
HETATM   11  H   UNL     1      32.012  49.013  42.422  1.00  0.00     0.162 HD
ENDROOT
BRANCH   6  12
HETATM   12  C   UNL     1      34.554  52.736  39.389  1.00  0.00     0.273 C 
HETATM   13  N   UNL     1      34.443  54.106  39.514  1.00  0.00    -0.355 N 
HETATM   14  H   UNL     1      33.572  54.432  39.941  1.00  0.00     0.162 HD
HETATM   15  O   UNL     1      35.556  52.223  38.888  1.00  0.00    -0.266 OA
BRANCH  13  16
HETATM   16  C   UNL     1      35.390  55.043  38.963  1.00  0.00     0.124 C 
BRANCH  16  17
HETATM   17  C   UNL     1      36.226  55.755  40.025  1.00  0.00     0.047 C 
BRANCH  17  18
HETATM   18  C   UNL     1      37.371  54.959  40.655  1.00  0.00     0.236 C 
BRANCH  18  19
HETATM   19  N   UNL     1      37.144  54.591  42.096  1.00  0.00    -0.067 N 
HETATM   20  H   UNL     1      36.285  55.094  42.408  1.00  0.00     0.280 HD
HETATM   21  C   UNL     1      36.969  53.106  42.358  1.00  0.00     0.261 C 
HETATM   22  C   UNL     1      36.751  52.861  43.856  1.00  0.00     0.195 C 
HETATM   23  O   UNL     1      37.834  53.391  44.628  1.00  0.00    -0.388 OA
HETATM   24  C   UNL     1      37.951  54.808  44.455  1.00  0.00     0.195 C 
HETATM   25  C   UNL     1      38.247  55.154  42.993  1.00  0.00     0.261 C 
ENDBRANCH  18  19
ENDBRANCH  17  18
ENDBRANCH  16  17
ENDBRANCH  13  16
ENDBRANCH   6  12
BRANCH   9  26
HETATM   26  C   UNL     1      29.421  53.013  40.261  1.00  0.00     0.409 C 
HETATM   27  F   UNL     1      30.276  53.920  40.786  1.00  0.00    -0.169 F 
HETATM   28  F   UNL     1      29.172  53.369  38.981  1.00  0.00    -0.169 F 
HETATM   29  F   UNL     1      28.248  53.144  40.930  1.00  0.00    -0.169 F 
ENDBRANCH   9  26
BRANCH   1  30
HETATM   30  C   UNL     1      29.576  48.510  41.013  1.00  0.00     0.005 A 
HETATM   31  S   UNL     1      27.896  48.167  40.879  1.00  0.00    -0.104 SA
HETATM   32  C   UNL     1      28.167  46.948  39.714  1.00  0.00     0.050 A 
HETATM   33  C   UNL     1      29.505  46.789  39.436  1.00  0.00     0.008 A 
HETATM   34  C   UNL     1      30.318  47.684  40.188  1.00  0.00     0.017 A 
ENDBRANCH   1  30
TORSDOF 7
ENDMDL
MODEL 3
REMARK VINA RESULT:      -7.6      3.114      4.195
REMARK  7 active torsions:
REMARK  status: ('A' for Active; 'I' for Inactive)
REMARK    1  A    between atoms: C_4  and  C_5 
REMARK    2  A    between atoms: C_10  and  C_11 
REMARK       I    between atoms: C_11  and  N_12 
REMARK    3  A    between atoms: N_12  and  C_13 
REMARK    4  A    between atoms: C_13  and  C_14 
REMARK    5  A    between atoms: C_14  and  C_15 
REMARK    6  A    between atoms: C_15  and  N_16 
REMARK    7  A    between atoms: C_26  and  C_27 
ROOT
HETATM    1  C   UNL     1      20.354  49.688  47.235  1.00  0.00     0.125 C 
HETATM    2  N   UNL     1      21.805  49.837  47.388  1.00  0.00    -0.365 N 
HETATM    3  C   UNL     1      22.530  48.969  48.135  1.00  0.00     0.141 A 
HETATM    4  N   UNL     1      21.971  47.815  48.620  1.00  0.00    -0.238 N 
HETATM    5  N   UNL     1      22.809  47.091  49.384  1.00  0.00    -0.163 NA
HETATM    6  C   UNL     1      23.984  47.759  49.312  1.00  0.00     0.165 A 
HETATM    7  C   UNL     1      23.834  48.948  48.559  1.00  0.00     0.092 A 
HETATM    8 BR   UNL     1      25.156  50.222  48.194  1.00  0.00    -0.044 Br
HETATM    9  C   UNL     1      20.579  47.442  48.418  1.00  0.00     0.221 C 
HETATM   10  C   UNL     1      20.010  48.187  47.197  1.00  0.00     0.067 C 
HETATM   11  H   UNL     1      22.156  50.777  47.201  1.00  0.00     0.162 HD
ENDROOT
BRANCH   6  12
HETATM   12  C   UNL     1      25.180  47.196  49.948  1.00  0.00     0.273 C 
HETATM   13  N   UNL     1      25.428  45.887  49.589  1.00  0.00    -0.355 N 
HETATM   14  H   UNL     1      24.721  45.463  48.983  1.00  0.00     0.162 HD
HETATM   15  O   UNL     1      25.959  47.812  50.678  1.00  0.00    -0.266 OA
BRANCH  13  16
HETATM   16  C   UNL     1      26.508  45.096  50.125  1.00  0.00     0.124 C 
BRANCH  16  17
HETATM   17  C   UNL     1      26.054  44.075  51.166  1.00  0.00     0.047 C 
BRANCH  17  18
HETATM   18  C   UNL     1      25.574  44.623  52.512  1.00  0.00     0.236 C 
BRANCH  18  19
HETATM   19  N   UNL     1      26.599  45.451  53.239  1.00  0.00    -0.067 N 
HETATM   20  H   UNL     1      27.288  45.777  52.529  1.00  0.00     0.280 HD
HETATM   21  C   UNL     1      26.044  46.654  53.979  1.00  0.00     0.261 C 
HETATM   22  C   UNL     1      27.179  47.408  54.680  1.00  0.00     0.195 C 
HETATM   23  O   UNL     1      27.896  46.547  55.572  1.00  0.00    -0.388 OA
HETATM   24  C   UNL     1      28.499  45.455  54.869  1.00  0.00     0.195 C 
HETATM   25  C   UNL     1      27.431  44.590  54.191  1.00  0.00     0.261 C 
ENDBRANCH  18  19
ENDBRANCH  17  18
ENDBRANCH  16  17
ENDBRANCH  13  16
ENDBRANCH   6  12
BRANCH   9  26
HETATM   26  C   UNL     1      20.420  45.948  48.225  1.00  0.00     0.409 C 
HETATM   27  F   UNL     1      19.257  45.634  47.609  1.00  0.00    -0.169 F 
HETATM   28  F   UNL     1      21.428  45.399  47.513  1.00  0.00    -0.169 F 
HETATM   29  F   UNL     1      20.413  45.318  49.426  1.00  0.00    -0.169 F 
ENDBRANCH   9  26
BRANCH   1  30
HETATM   30  C   UNL     1      19.525  50.428  48.261  1.00  0.00     0.005 A 
HETATM   31  S   UNL     1      17.888  49.966  48.518  1.00  0.00    -0.104 SA
HETATM   32  C   UNL     1      17.667  51.158  49.721  1.00  0.00     0.050 A 
HETATM   33  C   UNL     1      18.805  51.905  49.921  1.00  0.00     0.008 A 
HETATM   34  C   UNL     1      19.874  51.489  49.077  1.00  0.00     0.017 A 
ENDBRANCH   1  30
TORSDOF 7
ENDMDL
MODEL 4
REMARK VINA RESULT:      -7.6      2.663      3.776
REMARK  7 active torsions:
REMARK  status: ('A' for Active; 'I' for Inactive)
REMARK    1  A    between atoms: C_4  and  C_5 
REMARK    2  A    between atoms: C_10  and  C_11 
REMARK       I    between atoms: C_11  and  N_12 
REMARK    3  A    between atoms: N_12  and  C_13 
REMARK    4  A    between atoms: C_13  and  C_14 
REMARK    5  A    between atoms: C_14  and  C_15 
REMARK    6  A    between atoms: C_15  and  N_16 
REMARK    7  A    between atoms: C_26  and  C_27 
ROOT
HETATM    1  C   UNL     1      16.192  49.881  48.178  1.00  0.00     0.125 C 
HETATM    2  N   UNL     1      16.714  48.514  48.080  1.00  0.00    -0.365 N 
HETATM    3  C   UNL     1      18.045  48.269  48.003  1.00  0.00     0.141 A 
HETATM    4  N   UNL     1      18.961  49.270  48.203  1.00  0.00    -0.238 N 
HETATM    5  N   UNL     1      20.236  48.873  48.041  1.00  0.00    -0.163 NA
HETATM    6  C   UNL     1      20.143  47.541  47.818  1.00  0.00     0.165 A 
HETATM    7  C   UNL     1      18.787  47.140  47.765  1.00  0.00     0.092 A 
HETATM    8 BR   UNL     1      18.136  45.412  47.458  1.00  0.00    -0.044 Br
HETATM    9  C   UNL     1      18.603  50.655  48.471  1.00  0.00     0.221 C 
HETATM   10  C   UNL     1      17.166  50.726  49.020  1.00  0.00     0.067 C 
HETATM   11  H   UNL     1      16.042  47.826  47.737  1.00  0.00     0.162 HD
ENDROOT
BRANCH   6  12
HETATM   12  C   UNL     1      21.364  46.737  47.699  1.00  0.00     0.273 C 
HETATM   13  N   UNL     1      21.713  46.092  48.869  1.00  0.00    -0.355 N 
HETATM   14  H   UNL     1      21.119  46.305  49.674  1.00  0.00     0.162 HD
HETATM   15  O   UNL     1      22.007  46.562  46.662  1.00  0.00    -0.266 OA
BRANCH  13  16
HETATM   16  C   UNL     1      22.902  45.291  49.022  1.00  0.00     0.124 C 
BRANCH  16  17
HETATM   17  C   UNL     1      24.177  46.120  49.168  1.00  0.00     0.047 C 
BRANCH  17  18
HETATM   18  C   UNL     1      24.115  47.329  50.105  1.00  0.00     0.236 C 
BRANCH  18  19
HETATM   19  N   UNL     1      24.706  48.586  49.526  1.00  0.00    -0.067 N 
HETATM   20  H   UNL     1      24.640  49.321  50.262  1.00  0.00     0.280 HD
HETATM   21  C   UNL     1      26.150  48.467  49.074  1.00  0.00     0.261 C 
HETATM   22  C   UNL     1      26.632  49.804  48.502  1.00  0.00     0.195 C 
HETATM   23  O   UNL     1      25.795  50.236  47.424  1.00  0.00    -0.388 OA
HETATM   24  C   UNL     1      24.446  50.437  47.862  1.00  0.00     0.195 C 
HETATM   25  C   UNL     1      23.844  49.129  48.385  1.00  0.00     0.261 C 
ENDBRANCH  18  19
ENDBRANCH  17  18
ENDBRANCH  16  17
ENDBRANCH  13  16
ENDBRANCH   6  12
BRANCH   9  26
HETATM   26  C   UNL     1      19.557  51.303  49.452  1.00  0.00     0.409 C 
HETATM   27  F   UNL     1      20.686  51.742  48.850  1.00  0.00    -0.169 F 
HETATM   28  F   UNL     1      19.006  52.344  50.113  1.00  0.00    -0.169 F 
HETATM   29  F   UNL     1      19.937  50.407  50.397  1.00  0.00    -0.169 F 
ENDBRANCH   9  26
BRANCH   1  30
HETATM   30  C   UNL     1      15.879  50.539  46.853  1.00  0.00     0.005 A 
HETATM   31  S   UNL     1      15.769  49.573  45.434  1.00  0.00    -0.104 SA
HETATM   32  C   UNL     1      15.409  50.926  44.456  1.00  0.00     0.050 A 
HETATM   33  C   UNL     1      15.384  52.095  45.181  1.00  0.00     0.008 A 
HETATM   34  C   UNL     1      15.660  51.874  46.561  1.00  0.00     0.017 A 
ENDBRANCH   1  30
TORSDOF 7
ENDMDL
MODEL 5
REMARK VINA RESULT:      -7.6      6.389      8.615
REMARK  7 active torsions:
REMARK  status: ('A' for Active; 'I' for Inactive)
REMARK    1  A    between atoms: C_4  and  C_5 
REMARK    2  A    between atoms: C_10  and  C_11 
REMARK       I    between atoms: C_11  and  N_12 
REMARK    3  A    between atoms: N_12  and  C_13 
REMARK    4  A    between atoms: C_13  and  C_14 
REMARK    5  A    between atoms: C_14  and  C_15 
REMARK    6  A    between atoms: C_15  and  N_16 
REMARK    7  A    between atoms: C_26  and  C_27 
ROOT
HETATM    1  C   UNL     1      24.601  47.304  50.550  1.00  0.00     0.125 C 
HETATM    2  N   UNL     1      23.745  46.391  49.785  1.00  0.00    -0.365 N 
HETATM    3  C   UNL     1      24.178  45.162  49.412  1.00  0.00     0.141 A 
HETATM    4  N   UNL     1      25.356  44.651  49.893  1.00  0.00    -0.238 N 
HETATM    5  N   UNL     1      25.666  43.444  49.385  1.00  0.00    -0.163 NA
HETATM    6  C   UNL     1      24.599  43.124  48.617  1.00  0.00     0.165 A 
HETATM    7  C   UNL     1      23.665  44.186  48.595  1.00  0.00     0.092 A 
HETATM    8 BR   UNL     1      22.043  44.241  47.662  1.00  0.00    -0.044 Br
HETATM    9  C   UNL     1      26.245  45.372  50.791  1.00  0.00     0.221 C 
HETATM   10  C   UNL     1      25.464  46.479  51.522  1.00  0.00     0.067 C 
HETATM   11  H   UNL     1      22.984  46.847  49.279  1.00  0.00     0.162 HD
ENDROOT
BRANCH   6  12
HETATM   12  C   UNL     1      24.534  41.805  47.977  1.00  0.00     0.273 C 
HETATM   13  N   UNL     1      25.514  41.608  47.025  1.00  0.00    -0.355 N 
HETATM   14  H   UNL     1      26.112  42.419  46.846  1.00  0.00     0.162 HD
HETATM   15  O   UNL     1      23.750  40.903  48.276  1.00  0.00    -0.266 OA
BRANCH  13  16
HETATM   16  C   UNL     1      25.624  40.420  46.216  1.00  0.00     0.124 C 
BRANCH  16  17
HETATM   17  C   UNL     1      26.960  40.306  45.485  1.00  0.00     0.047 C 
BRANCH  17  18
HETATM   18  C   UNL     1      27.991  39.337  46.070  1.00  0.00     0.236 C 
BRANCH  18  19
HETATM   19  N   UNL     1      27.862  39.126  47.555  1.00  0.00    -0.067 N 
HETATM   20  H   UNL     1      26.860  39.282  47.800  1.00  0.00     0.280 HD
HETATM   21  C   UNL     1      28.282  37.753  48.046  1.00  0.00     0.261 C 
HETATM   22  C   UNL     1      28.110  37.664  49.566  1.00  0.00     0.195 C 
HETATM   23  O   UNL     1      28.854  38.693  50.230  1.00  0.00    -0.388 OA
HETATM   24  C   UNL     1      28.403  39.995  49.839  1.00  0.00     0.195 C 
HETATM   25  C   UNL     1      28.605  40.210  48.336  1.00  0.00     0.261 C 
ENDBRANCH  18  19
ENDBRANCH  17  18
ENDBRANCH  16  17
ENDBRANCH  13  16
ENDBRANCH   6  12
BRANCH   9  26
HETATM   26  C   UNL     1      26.891  44.449  51.803  1.00  0.00     0.409 C 
HETATM   27  F   UNL     1      27.316  45.113  52.902  1.00  0.00    -0.169 F 
HETATM   28  F   UNL     1      26.070  43.456  52.209  1.00  0.00    -0.169 F 
HETATM   29  F   UNL     1      27.980  43.847  51.261  1.00  0.00    -0.169 F 
ENDBRANCH   9  26
BRANCH   1  30
HETATM   30  C   UNL     1      25.440  48.242  49.711  1.00  0.00     0.005 A 
HETATM   31  S   UNL     1      24.665  49.318  48.615  1.00  0.00    -0.104 SA
HETATM   32  C   UNL     1      26.154  49.982  48.106  1.00  0.00     0.050 A 
HETATM   33  C   UNL     1      27.225  49.395  48.740  1.00  0.00     0.008 A 
HETATM   34  C   UNL     1      26.815  48.389  49.661  1.00  0.00     0.017 A 
ENDBRANCH   1  30
TORSDOF 7
ENDMDL
MODEL 6
REMARK VINA RESULT:      -7.6      3.178      4.205
REMARK  7 active torsions:
REMARK  status: ('A' for Active; 'I' for Inactive)
REMARK    1  A    between atoms: C_4  and  C_5 
REMARK    2  A    between atoms: C_10  and  C_11 
REMARK       I    between atoms: C_11  and  N_12 
REMARK    3  A    between atoms: N_12  and  C_13 
REMARK    4  A    between atoms: C_13  and  C_14 
REMARK    5  A    between atoms: C_14  and  C_15 
REMARK    6  A    between atoms: C_15  and  N_16 
REMARK    7  A    between atoms: C_26  and  C_27 
ROOT
HETATM    1  C   UNL     1      19.637  49.840  50.396  1.00  0.00     0.125 C 
HETATM    2  N   UNL     1      19.572  48.440  49.965  1.00  0.00    -0.365 N 
HETATM    3  C   UNL     1      20.306  47.988  48.919  1.00  0.00     0.141 A 
HETATM    4  N   UNL     1      21.275  48.769  48.344  1.00  0.00    -0.238 N 
HETATM    5  N   UNL     1      21.875  48.192  47.287  1.00  0.00    -0.163 NA
HETATM    6  C   UNL     1      21.334  46.953  47.235  1.00  0.00     0.165 A 
HETATM    7  C   UNL     1      20.334  46.804  48.226  1.00  0.00     0.092 A 
HETATM    8 BR   UNL     1      19.282  45.290  48.545  1.00  0.00    -0.044 Br
HETATM    9  C   UNL     1      21.574  50.130  48.765  1.00  0.00     0.221 C 
HETATM   10  C   UNL     1      21.076  50.353  50.205  1.00  0.00     0.067 C 
HETATM   11  H   UNL     1      18.727  47.946  50.256  1.00  0.00     0.162 HD
ENDROOT
BRANCH   6  12
HETATM   12  C   UNL     1      21.833  45.983  46.254  1.00  0.00     0.273 C 
HETATM   13  N   UNL     1      22.420  44.874  46.829  1.00  0.00    -0.355 N 
HETATM   14  H   UNL     1      22.487  44.900  47.849  1.00  0.00     0.162 HD
HETATM   15  O   UNL     1      21.698  46.068  45.032  1.00  0.00    -0.266 OA
BRANCH  13  16
HETATM   16  C   UNL     1      23.038  43.810  46.077  1.00  0.00     0.124 C 
BRANCH  16  17
HETATM   17  C   UNL     1      23.562  42.673  46.953  1.00  0.00     0.047 C 
BRANCH  17  18
HETATM   18  C   UNL     1      23.333  42.798  48.461  1.00  0.00     0.236 C 
BRANCH  18  19
HETATM   19  N   UNL     1      24.578  43.106  49.249  1.00  0.00    -0.067 N 
HETATM   20  H   UNL     1      24.354  42.936  50.253  1.00  0.00     0.280 HD
HETATM   21  C   UNL     1      25.797  42.286  48.868  1.00  0.00     0.261 C 
HETATM   22  C   UNL     1      26.995  42.695  49.732  1.00  0.00     0.195 C 
HETATM   23  O   UNL     1      27.264  44.096  49.611  1.00  0.00    -0.388 OA
HETATM   24  C   UNL     1      26.150  44.880  50.053  1.00  0.00     0.195 C 
HETATM   25  C   UNL     1      24.913  44.598  49.194  1.00  0.00     0.261 C 
ENDBRANCH  18  19
ENDBRANCH  17  18
ENDBRANCH  16  17
ENDBRANCH  13  16
ENDBRANCH   6  12
BRANCH   9  26
HETATM   26  C   UNL     1      23.055  50.431  48.683  1.00  0.00     0.409 C 
HETATM   27  F   UNL     1      23.810  49.407  49.142  1.00  0.00    -0.169 F 
HETATM   28  F   UNL     1      23.466  50.720  47.429  1.00  0.00    -0.169 F 
HETATM   29  F   UNL     1      23.357  51.514  49.443  1.00  0.00    -0.169 F 
ENDBRANCH   9  26
BRANCH   1  30
HETATM   30  C   UNL     1      18.624  50.756  49.745  1.00  0.00     0.005 A 
HETATM   31  S   UNL     1      17.364  50.078  48.789  1.00  0.00    -0.104 SA
HETATM   32  C   UNL     1      16.700  51.615  48.451  1.00  0.00     0.050 A 
HETATM   33  C   UNL     1      17.421  52.629  49.036  1.00  0.00     0.008 A 
HETATM   34  C   UNL     1      18.533  52.136  49.778  1.00  0.00     0.017 A 
ENDBRANCH   1  30
TORSDOF 7
ENDMDL
MODEL 7
REMARK VINA RESULT:      -7.5      3.189      4.188
REMARK  7 active torsions:
REMARK  status: ('A' for Active; 'I' for Inactive)
REMARK    1  A    between atoms: C_4  and  C_5 
REMARK    2  A    between atoms: C_10  and  C_11 
REMARK       I    between atoms: C_11  and  N_12 
REMARK    3  A    between atoms: N_12  and  C_13 
REMARK    4  A    between atoms: C_13  and  C_14 
REMARK    5  A    between atoms: C_14  and  C_15 
REMARK    6  A    between atoms: C_15  and  N_16 
REMARK    7  A    between atoms: C_26  and  C_27 
ROOT
HETATM    1  C   UNL     1      18.806  50.601  46.978  1.00  0.00     0.125 C 
HETATM    2  N   UNL     1      20.261  50.653  47.160  1.00  0.00    -0.365 N 
HETATM    3  C   UNL     1      20.926  49.672  47.816  1.00  0.00     0.141 A 
HETATM    4  N   UNL     1      20.298  48.506  48.170  1.00  0.00    -0.238 N 
HETATM    5  N   UNL     1      21.085  47.659  48.860  1.00  0.00    -0.163 NA
HETATM    6  C   UNL     1      22.295  48.265  48.871  1.00  0.00     0.165 A 
HETATM    7  C   UNL     1      22.221  49.534  48.248  1.00  0.00     0.092 A 
HETATM    8 BR   UNL     1      23.615  50.765  48.032  1.00  0.00    -0.044 Br
HETATM    9  C   UNL     1      18.891  48.234  47.917  1.00  0.00     0.221 C 
HETATM   10  C   UNL     1      18.382  49.135  46.777  1.00  0.00     0.067 C 
HETATM   11  H   UNL     1      20.665  51.587  47.077  1.00  0.00     0.162 HD
ENDROOT
BRANCH   6  12
HETATM   12  C   UNL     1      23.449  47.573  49.454  1.00  0.00     0.273 C 
HETATM   13  N   UNL     1      23.572  46.263  49.037  1.00  0.00    -0.355 N 
HETATM   14  H   UNL     1      22.818  45.930  48.432  1.00  0.00     0.162 HD
HETATM   15  O   UNL     1      24.295  48.087  50.188  1.00  0.00    -0.266 OA
BRANCH  13  16
HETATM   16  C   UNL     1      24.588  45.358  49.513  1.00  0.00     0.124 C 
BRANCH  16  17
HETATM   17  C   UNL     1      24.086  44.393  50.585  1.00  0.00     0.047 C 
BRANCH  17  18
HETATM   18  C   UNL     1      25.008  44.143  51.780  1.00  0.00     0.236 C 
BRANCH  18  19
HETATM   19  N   UNL     1      25.642  42.778  51.793  1.00  0.00    -0.067 N 
HETATM   20  H   UNL     1      25.229  42.256  52.596  1.00  0.00     0.280 HD
HETATM   21  C   UNL     1      25.446  41.968  50.525  1.00  0.00     0.261 C 
HETATM   22  C   UNL     1      26.139  40.607  50.660  1.00  0.00     0.195 C 
HETATM   23  O   UNL     1      27.531  40.765  50.954  1.00  0.00    -0.388 OA
HETATM   24  C   UNL     1      27.726  41.451  52.196  1.00  0.00     0.195 C 
HETATM   25  C   UNL     1      27.130  42.861  52.136  1.00  0.00     0.261 C 
ENDBRANCH  18  19
ENDBRANCH  17  18
ENDBRANCH  16  17
ENDBRANCH  13  16
ENDBRANCH   6  12
BRANCH   9  26
HETATM   26  C   UNL     1      18.655  46.780  47.564  1.00  0.00     0.409 C 
HETATM   27  F   UNL     1      18.760  45.970  48.642  1.00  0.00    -0.169 F 
HETATM   28  F   UNL     1      17.447  46.565  46.999  1.00  0.00    -0.169 F 
HETATM   29  F   UNL     1      19.579  46.360  46.664  1.00  0.00    -0.169 F 
ENDBRANCH   9  26
BRANCH   1  30
HETATM   30  C   UNL     1      18.003  51.273  48.070  1.00  0.00     0.005 A 
HETATM   31  S   UNL     1      16.311  50.983  48.175  1.00  0.00    -0.104 SA
HETATM   32  C   UNL     1      16.151  51.996  49.541  1.00  0.00     0.050 A 
HETATM   33  C   UNL     1      17.351  52.559  49.909  1.00  0.00     0.008 A 
HETATM   34  C   UNL     1      18.419  52.147  49.059  1.00  0.00     0.017 A 
ENDBRANCH   1  30
TORSDOF 7
ENDMDL
MODEL 8
REMARK VINA RESULT:      -7.5     12.224     15.108
REMARK  7 active torsions:
REMARK  status: ('A' for Active; 'I' for Inactive)
REMARK    1  A    between atoms: C_4  and  C_5 
REMARK    2  A    between atoms: C_10  and  C_11 
REMARK       I    between atoms: C_11  and  N_12 
REMARK    3  A    between atoms: N_12  and  C_13 
REMARK    4  A    between atoms: C_13  and  C_14 
REMARK    5  A    between atoms: C_14  and  C_15 
REMARK    6  A    between atoms: C_15  and  N_16 
REMARK    7  A    between atoms: C_26  and  C_27 
ROOT
HETATM    1  C   UNL     1      33.894  51.464  41.770  1.00  0.00     0.125 C 
HETATM    2  N   UNL     1      32.636  52.147  41.447  1.00  0.00    -0.365 N 
HETATM    3  C   UNL     1      31.652  51.524  40.753  1.00  0.00     0.141 A 
HETATM    4  N   UNL     1      31.714  50.180  40.490  1.00  0.00    -0.238 N 
HETATM    5  N   UNL     1      30.685  49.730  39.748  1.00  0.00    -0.163 NA
HETATM    6  C   UNL     1      29.882  50.810  39.605  1.00  0.00     0.165 A 
HETATM    7  C   UNL     1      30.471  51.950  40.201  1.00  0.00     0.092 A 
HETATM    8 BR   UNL     1      29.768  53.684  40.250  1.00  0.00    -0.044 Br
HETATM    9  C   UNL     1      32.824  49.326  40.886  1.00  0.00     0.221 C 
HETATM   10  C   UNL     1      33.596  49.979  42.047  1.00  0.00     0.067 C 
HETATM   11  H   UNL     1      32.690  53.166  41.467  1.00  0.00     0.162 HD
ENDROOT
BRANCH   6  12
HETATM   12  C   UNL     1      28.587  50.668  38.929  1.00  0.00     0.273 C 
HETATM   13  N   UNL     1      27.582  50.213  39.759  1.00  0.00    -0.355 N 
HETATM   14  H   UNL     1      27.879  49.977  40.709  1.00  0.00     0.162 HD
HETATM   15  O   UNL     1      28.353  50.981  37.761  1.00  0.00    -0.266 OA
BRANCH  13  16
HETATM   16  C   UNL     1      26.238  49.937  39.317  1.00  0.00     0.124 C 
BRANCH  16  17
HETATM   17  C   UNL     1      25.884  48.451  39.344  1.00  0.00     0.047 C 
BRANCH  17  18
HETATM   18  C   UNL     1      26.637  47.577  40.350  1.00  0.00     0.236 C 
BRANCH  18  19
HETATM   19  N   UNL     1      27.294  46.367  39.742  1.00  0.00    -0.067 N 
HETATM   20  H   UNL     1      26.844  46.208  38.815  1.00  0.00     0.280 HD
HETATM   21  C   UNL     1      28.795  46.483  39.549  1.00  0.00     0.261 C 
HETATM   22  C   UNL     1      29.345  45.192  38.931  1.00  0.00     0.195 C 
HETATM   23  O   UNL     1      29.021  44.055  39.739  1.00  0.00    -0.388 OA
HETATM   24  C   UNL     1      27.603  43.886  39.854  1.00  0.00     0.195 C 
HETATM   25  C   UNL     1      26.965  45.101  40.534  1.00  0.00     0.261 C 
ENDBRANCH  18  19
ENDBRANCH  17  18
ENDBRANCH  16  17
ENDBRANCH  13  16
ENDBRANCH   6  12
BRANCH   9  26
HETATM   26  C   UNL     1      32.354  47.947  41.295  1.00  0.00     0.409 C 
HETATM   27  F   UNL     1      31.326  47.998  42.173  1.00  0.00    -0.169 F 
HETATM   28  F   UNL     1      31.966  47.190  40.246  1.00  0.00    -0.169 F 
HETATM   29  F   UNL     1      33.359  47.270  41.905  1.00  0.00    -0.169 F 
ENDBRANCH   9  26
BRANCH   1  30
HETATM   30  C   UNL     1      34.993  51.635  40.746  1.00  0.00     0.005 A 
HETATM   31  S   UNL     1      36.462  50.758  40.929  1.00  0.00    -0.104 SA
HETATM   32  C   UNL     1      37.120  51.427  39.501  1.00  0.00     0.050 A 
HETATM   33  C   UNL     1      36.254  52.309  38.898  1.00  0.00     0.008 A 
HETATM   34  C   UNL     1      35.030  52.433  39.617  1.00  0.00     0.017 A 
ENDBRANCH   1  30
TORSDOF 7
ENDMDL
MODEL 9
REMARK VINA RESULT:      -7.5     14.005     15.735
REMARK  7 active torsions:
REMARK  status: ('A' for Active; 'I' for Inactive)
REMARK    1  A    between atoms: C_4  and  C_5 
REMARK    2  A    between atoms: C_10  and  C_11 
REMARK       I    between atoms: C_11  and  N_12 
REMARK    3  A    between atoms: N_12  and  C_13 
REMARK    4  A    between atoms: C_13  and  C_14 
REMARK    5  A    between atoms: C_14  and  C_15 
REMARK    6  A    between atoms: C_15  and  N_16 
REMARK    7  A    between atoms: C_26  and  C_27 
ROOT
HETATM    1  C   UNL     1      31.859  50.836  38.662  1.00  0.00     0.125 C 
HETATM    2  N   UNL     1      33.241  51.297  38.830  1.00  0.00    -0.365 N 
HETATM    3  C   UNL     1      33.905  51.126  39.999  1.00  0.00     0.141 A 
HETATM    4  N   UNL     1      33.382  50.351  41.003  1.00  0.00    -0.238 N 
HETATM    5  N   UNL     1      34.141  50.326  42.114  1.00  0.00    -0.163 NA
HETATM    6  C   UNL     1      35.242  51.039  41.779  1.00  0.00     0.165 A 
HETATM    7  C   UNL     1      35.113  51.571  40.474  1.00  0.00     0.092 A 
HETATM    8 BR   UNL     1      36.351  52.643  39.567  1.00  0.00    -0.044 Br
HETATM    9  C   UNL     1      32.088  49.691  40.927  1.00  0.00     0.221 C 
HETATM   10  C   UNL     1      31.670  49.529  39.453  1.00  0.00     0.067 C 
HETATM   11  H   UNL     1      33.528  52.025  38.174  1.00  0.00     0.162 HD
ENDROOT
BRANCH   6  12
HETATM   12  C   UNL     1      36.359  51.139  42.726  1.00  0.00     0.273 C 
HETATM   13  N   UNL     1      36.161  52.086  43.710  1.00  0.00    -0.355 N 
HETATM   14  H   UNL     1      35.300  52.632  43.617  1.00  0.00     0.162 HD
HETATM   15  O   UNL     1      37.360  50.421  42.729  1.00  0.00    -0.266 OA
BRANCH  13  16
HETATM   16  C   UNL     1      37.135  52.413  44.720  1.00  0.00     0.124 C 
BRANCH  16  17
HETATM   17  C   UNL     1      37.706  53.823  44.579  1.00  0.00     0.047 C 
BRANCH  17  18
HETATM   18  C   UNL     1      37.405  54.810  45.709  1.00  0.00     0.236 C 
BRANCH  18  19
HETATM   19  N   UNL     1      38.461  54.856  46.782  1.00  0.00    -0.067 N 
HETATM   20  H   UNL     1      38.403  55.797  47.227  1.00  0.00     0.280 HD
HETATM   21  C   UNL     1      38.330  53.792  47.856  1.00  0.00     0.261 C 
HETATM   22  C   UNL     1      39.460  53.941  48.881  1.00  0.00     0.195 C 
HETATM   23  O   UNL     1      40.743  53.871  48.248  1.00  0.00    -0.388 OA
HETATM   24  C   UNL     1      40.910  54.927  47.294  1.00  0.00     0.195 C 
HETATM   25  C   UNL     1      39.866  54.820  46.178  1.00  0.00     0.261 C 
ENDBRANCH  18  19
ENDBRANCH  17  18
ENDBRANCH  16  17
ENDBRANCH  13  16
ENDBRANCH   6  12
BRANCH   9  26
HETATM   26  C   UNL     1      32.107  48.337  41.604  1.00  0.00     0.409 C 
HETATM   27  F   UNL     1      33.298  47.711  41.460  1.00  0.00    -0.169 F 
HETATM   28  F   UNL     1      31.831  48.405  42.925  1.00  0.00    -0.169 F 
HETATM   29  F   UNL     1      31.168  47.525  41.057  1.00  0.00    -0.169 F 
ENDBRANCH   9  26
BRANCH   1  30
HETATM   30  C   UNL     1      30.799  51.859  39.006  1.00  0.00     0.005 A 
HETATM   31  S   UNL     1      29.458  52.075  37.950  1.00  0.00    -0.104 SA
HETATM   32  C   UNL     1      28.776  53.281  38.949  1.00  0.00     0.050 A 
HETATM   33  C   UNL     1      29.551  53.531  40.058  1.00  0.00     0.008 A 
HETATM   34  C   UNL     1      30.720  52.716  40.089  1.00  0.00     0.017 A 
ENDBRANCH   1  30
TORSDOF 7
ENDMDL
MODEL 10
REMARK VINA RESULT:      -7.4      1.834      2.412
REMARK  7 active torsions:
REMARK  status: ('A' for Active; 'I' for Inactive)
REMARK    1  A    between atoms: C_4  and  C_5 
REMARK    2  A    between atoms: C_10  and  C_11 
REMARK       I    between atoms: C_11  and  N_12 
REMARK    3  A    between atoms: N_12  and  C_13 
REMARK    4  A    between atoms: C_13  and  C_14 
REMARK    5  A    between atoms: C_14  and  C_15 
REMARK    6  A    between atoms: C_15  and  N_16 
REMARK    7  A    between atoms: C_26  and  C_27 
ROOT
HETATM    1  C   UNL     1      15.909  49.615  48.156  1.00  0.00     0.125 C 
HETATM    2  N   UNL     1      16.838  48.488  48.282  1.00  0.00    -0.365 N 
HETATM    3  C   UNL     1      18.179  48.662  48.183  1.00  0.00     0.141 A 
HETATM    4  N   UNL     1      18.728  49.917  48.149  1.00  0.00    -0.238 N 
HETATM    5  N   UNL     1      20.065  49.915  47.997  1.00  0.00    -0.163 NA
HETATM    6  C   UNL     1      20.400  48.604  48.026  1.00  0.00     0.165 A 
HETATM    7  C   UNL     1      19.241  47.797  48.116  1.00  0.00     0.092 A 
HETATM    8 BR   UNL     1      19.174  45.927  48.164  1.00  0.00    -0.044 Br
HETATM    9  C   UNL     1      17.948  51.145  48.178  1.00  0.00     0.221 C 
HETATM   10  C   UNL     1      16.557  50.866  48.778  1.00  0.00     0.067 C 
HETATM   11  H   UNL     1      16.421  47.573  48.105  1.00  0.00     0.162 HD
ENDROOT
BRANCH   6  12
HETATM   12  C   UNL     1      21.814  48.214  47.992  1.00  0.00     0.273 C 
HETATM   13  N   UNL     1      22.573  48.814  48.977  1.00  0.00    -0.355 N 
HETATM   14  H   UNL     1      22.070  49.492  49.557  1.00  0.00     0.162 HD
HETATM   15  O   UNL     1      22.309  47.383  47.229  1.00  0.00    -0.266 OA
BRANCH  13  16
HETATM   16  C   UNL     1      23.996  48.638  49.116  1.00  0.00     0.124 C 
BRANCH  16  17
HETATM   17  C   UNL     1      24.379  47.540  50.106  1.00  0.00     0.047 C 
BRANCH  17  18
HETATM   18  C   UNL     1      25.872  47.269  50.299  1.00  0.00     0.236 C 
BRANCH  18  19
HETATM   19  N   UNL     1      26.176  45.973  51.002  1.00  0.00    -0.067 N 
HETATM   20  H   UNL     1      26.848  46.192  51.769  1.00  0.00     0.280 HD
HETATM   21  C   UNL     1      24.970  45.265  51.590  1.00  0.00     0.261 C 
HETATM   22  C   UNL     1      25.407  43.963  52.271  1.00  0.00     0.195 C 
HETATM   23  O   UNL     1      26.103  43.110  51.354  1.00  0.00    -0.388 OA
HETATM   24  C   UNL     1      27.292  43.737  50.861  1.00  0.00     0.195 C 
HETATM   25  C   UNL     1      26.952  45.018  50.093  1.00  0.00     0.261 C 
ENDBRANCH  18  19
ENDBRANCH  17  18
ENDBRANCH  16  17
ENDBRANCH  13  16
ENDBRANCH   6  12
BRANCH   9  26
HETATM   26  C   UNL     1      18.639  52.232  48.974  1.00  0.00     0.409 C 
HETATM   27  F   UNL     1      19.175  51.760  50.123  1.00  0.00    -0.169 F 
HETATM   28  F   UNL     1      19.620  52.849  48.280  1.00  0.00    -0.169 F 
HETATM   29  F   UNL     1      17.751  53.197  49.321  1.00  0.00    -0.169 F 
ENDBRANCH   9  26
BRANCH   1  30
HETATM   30  C   UNL     1      15.415  49.880  46.751  1.00  0.00     0.005 A 
HETATM   31  S   UNL     1      15.231  48.564  45.659  1.00  0.00    -0.104 SA
HETATM   32  C   UNL     1      14.676  49.588  44.409  1.00  0.00     0.050 A 
HETATM   33  C   UNL     1      14.641  50.906  44.800  1.00  0.00     0.008 A 
HETATM   34  C   UNL     1      15.071  51.076  46.148  1.00  0.00     0.017 A 
ENDBRANCH   1  30
TORSDOF 7
ENDMDL
