MODEL 1
REMARK VINA RESULT:      -9.0      0.000      0.000
REMARK  7 active torsions:
REMARK  status: ('A' for Active; 'I' for Inactive)
REMARK    1  A    between atoms: O_2  and  C_3 
REMARK    2  A    between atoms: C_4  and  N_5 
REMARK       I    between atoms: N_5  and  C_6 
REMARK       I    between atoms: C_6  and  N_7 
REMARK    3  A    between atoms: N_7  and  C_8 
REMARK    4  A    between atoms: C_8  and  C_9 
REMARK    5  A    between atoms: C_9  and  C_10 
REMARK    6  A    between atoms: C_10  and  N_11 
REMARK    7  A    between atoms: C_12  and  C_13 
ROOT
HETATM    1  N   UNL     1      23.590  47.533  48.973  1.00  0.00    -0.306 N 
HETATM    2  C   UNL     1      24.634  47.296  49.840  1.00  0.00     0.320 C 
HETATM    3  N   UNL     1      25.076  45.996  49.713  1.00  0.00    -0.343 N 
HETATM    4  O   UNL     1      25.102  48.052  50.681  1.00  0.00    -0.247 OA
HETATM    5  H   UNL     1      23.009  46.719  48.833  1.00  0.00     0.171 HD
HETATM    6  H   UNL     1      24.848  45.505  48.859  1.00  0.00     0.164 HD
ENDROOT
BRANCH   3   7
HETATM    7  C   UNL     1      25.942  45.369  50.684  1.00  0.00     0.126 C 
BRANCH   7   8
HETATM    8  C   UNL     1      25.262  45.027  52.005  1.00  0.00     0.040 C 
BRANCH   8   9
HETATM    9  C   UNL     1      26.236  44.609  53.107  1.00  0.00     0.131 C 
BRANCH   9  10
HETATM   10  N   UNL     1      26.615  45.777  53.926  1.00  0.00    -0.341 N 
HETATM   11  C   UNL     1      27.689  45.922  54.751  1.00  0.00     0.117 A 
HETATM   12  N   UNL     1      27.550  47.169  55.257  1.00  0.00    -0.350 N 
HETATM   13  H   UNL     1      28.208  47.588  55.902  1.00  0.00     0.166 HD
HETATM   14  C   UNL     1      26.431  47.805  54.796  1.00  0.00     0.107 A 
HETATM   15  C   UNL     1      25.829  46.930  53.955  1.00  0.00     0.109 A 
BRANCH  11  16
HETATM   16  C   UNL     1      28.858  45.006  55.105  1.00  0.00     0.008 A 
HETATM   17  C   UNL     1      29.136  43.819  54.425  1.00  0.00     0.015 A 
HETATM   18  C   UNL     1      30.225  43.019  54.793  1.00  0.00     0.001 A 
HETATM   19  C   UNL     1      31.053  43.396  55.844  1.00  0.00     0.000 A 
HETATM   20  C   UNL     1      30.794  44.576  56.530  1.00  0.00     0.001 A 
HETATM   21  C   UNL     1      29.705  45.375  56.166  1.00  0.00     0.015 A 
ENDBRANCH  11  16
ENDBRANCH   9  10
ENDBRANCH   8   9
ENDBRANCH   7   8
ENDBRANCH   3   7
BRANCH   1  22
HETATM   22  C   UNL     1      22.938  48.780  48.814  1.00  0.00     0.071 A 
HETATM   23  C   UNL     1      23.481  49.873  48.107  1.00  0.00     0.095 A 
HETATM   24  C   UNL     1      22.752  51.069  48.043  1.00  0.00     0.041 A 
HETATM   25  C   UNL     1      21.492  51.173  48.639  1.00  0.00     0.026 A 
HETATM   26  C   UNL     1      20.943  50.075  49.289  1.00  0.00     0.036 A 
HETATM   27  C   UNL     1      21.651  48.879  49.368  1.00  0.00     0.056 A 
HETATM   28 CL   UNL     1      19.383  50.192  50.004  1.00  0.00    -0.084 Cl
BRANCH  23  29
HETATM   29  O   UNL     1      24.662  49.665  47.442  1.00  0.00    -0.354 OA
HETATM   30  C   UNL     1      25.843  50.212  48.018  1.00  0.00     0.210 C 
ENDBRANCH  23  29
ENDBRANCH   1  22
TORSDOF 7
ENDMDL
MODEL 2
REMARK VINA RESULT:      -8.9      2.263      3.232
REMARK  7 active torsions:
REMARK  status: ('A' for Active; 'I' for Inactive)
REMARK    1  A    between atoms: O_2  and  C_3 
REMARK    2  A    between atoms: C_4  and  N_5 
REMARK       I    between atoms: N_5  and  C_6 
REMARK       I    between atoms: C_6  and  N_7 
REMARK    3  A    between atoms: N_7  and  C_8 
REMARK    4  A    between atoms: C_8  and  C_9 
REMARK    5  A    between atoms: C_9  and  C_10 
REMARK    6  A    between atoms: C_10  and  N_11 
REMARK    7  A    between atoms: C_12  and  C_13 
ROOT
HETATM    1  N   UNL     1      24.048  47.293  50.319  1.00  0.00    -0.306 N 
HETATM    2  C   UNL     1      23.966  45.982  49.902  1.00  0.00     0.320 C 
HETATM    3  N   UNL     1      23.981  45.132  50.989  1.00  0.00    -0.343 N 
HETATM    4  O   UNL     1      23.958  45.555  48.756  1.00  0.00    -0.247 OA
HETATM    5  H   UNL     1      24.610  47.401  51.152  1.00  0.00     0.171 HD
HETATM    6  H   UNL     1      23.733  45.519  51.889  1.00  0.00     0.164 HD
ENDROOT
BRANCH   3   7
HETATM    7  C   UNL     1      24.211  43.712  50.863  1.00  0.00     0.126 C 
BRANCH   7   8
HETATM    8  C   UNL     1      25.678  43.322  50.725  1.00  0.00     0.040 C 
BRANCH   8   9
HETATM    9  C   UNL     1      26.487  43.509  52.008  1.00  0.00     0.131 C 
BRANCH   9  10
HETATM   10  N   UNL     1      27.536  42.474  52.108  1.00  0.00    -0.341 N 
HETATM   11  C   UNL     1      28.624  42.444  52.929  1.00  0.00     0.117 A 
HETATM   12  N   UNL     1      29.250  41.290  52.603  1.00  0.00    -0.350 N 
HETATM   13  H   UNL     1      30.097  40.967  53.054  1.00  0.00     0.166 HD
HETATM   14  C   UNL     1      28.612  40.604  51.609  1.00  0.00     0.107 A 
HETATM   15  C   UNL     1      27.526  41.348  51.284  1.00  0.00     0.109 A 
BRANCH  11  16
HETATM   16  C   UNL     1      29.132  43.391  54.013  1.00  0.00     0.008 A 
HETATM   17  C   UNL     1      28.439  44.532  54.423  1.00  0.00     0.015 A 
HETATM   18  C   UNL     1      28.954  45.363  55.426  1.00  0.00     0.001 A 
HETATM   19  C   UNL     1      30.167  45.063  56.035  1.00  0.00     0.000 A 
HETATM   20  C   UNL     1      30.869  43.930  55.643  1.00  0.00     0.001 A 
HETATM   21  C   UNL     1      30.358  43.100  54.639  1.00  0.00     0.015 A 
ENDBRANCH  11  16
ENDBRANCH   9  10
ENDBRANCH   8   9
ENDBRANCH   7   8
ENDBRANCH   3   7
BRANCH   1  22
HETATM   22  C   UNL     1      24.009  48.418  49.462  1.00  0.00     0.071 A 
HETATM   23  C   UNL     1      25.136  48.945  48.795  1.00  0.00     0.095 A 
HETATM   24  C   UNL     1      24.978  50.085  47.993  1.00  0.00     0.041 A 
HETATM   25  C   UNL     1      23.721  50.674  47.825  1.00  0.00     0.026 A 
HETATM   26  C   UNL     1      22.609  50.117  48.444  1.00  0.00     0.036 A 
HETATM   27  C   UNL     1      22.744  48.989  49.248  1.00  0.00     0.056 A 
HETATM   28 CL   UNL     1      21.058  50.826  48.221  1.00  0.00    -0.084 Cl
BRANCH  23  29
HETATM   29  O   UNL     1      26.311  48.247  48.903  1.00  0.00    -0.354 OA
HETATM   30  C   UNL     1      27.495  48.996  49.155  1.00  0.00     0.210 C 
ENDBRANCH  23  29
ENDBRANCH   1  22
TORSDOF 7
ENDMDL
MODEL 3
REMARK VINA RESULT:      -8.7      3.352      9.258
REMARK  7 active torsions:
REMARK  status: ('A' for Active; 'I' for Inactive)
REMARK    1  A    between atoms: O_2  and  C_3 
REMARK    2  A    between atoms: C_4  and  N_5 
REMARK       I    between atoms: N_5  and  C_6 
REMARK       I    between atoms: C_6  and  N_7 
REMARK    3  A    between atoms: N_7  and  C_8 
REMARK    4  A    between atoms: C_8  and  C_9 
REMARK    5  A    between atoms: C_9  and  C_10 
REMARK    6  A    between atoms: C_10  and  N_11 
REMARK    7  A    between atoms: C_12  and  C_13 
ROOT
HETATM    1  N   UNL     1      26.892  43.896  52.728  1.00  0.00    -0.306 N 
HETATM    2  C   UNL     1      26.779  44.438  51.466  1.00  0.00     0.320 C 
HETATM    3  N   UNL     1      25.470  44.380  51.035  1.00  0.00    -0.343 N 
HETATM    4  O   UNL     1      27.673  44.855  50.742  1.00  0.00    -0.247 OA
HETATM    5  H   UNL     1      26.248  43.132  52.881  1.00  0.00     0.171 HD
HETATM    6  H   UNL     1      24.750  44.275  51.738  1.00  0.00     0.164 HD
ENDROOT
BRANCH   3   7
HETATM    7  C   UNL     1      25.094  44.590  49.657  1.00  0.00     0.126 C 
BRANCH   7   8
HETATM    8  C   UNL     1      24.259  45.843  49.417  1.00  0.00     0.040 C 
BRANCH   8   9
HETATM    9  C   UNL     1      24.601  46.999  50.356  1.00  0.00     0.131 C 
BRANCH   9  10
HETATM   10  N   UNL     1      25.323  48.059  49.624  1.00  0.00    -0.341 N 
HETATM   11  C   UNL     1      24.808  49.077  48.879  1.00  0.00     0.117 A 
HETATM   12  N   UNL     1      25.898  49.740  48.431  1.00  0.00    -0.350 N 
HETATM   13  H   UNL     1      25.849  50.570  47.852  1.00  0.00     0.166 HD
HETATM   14  C   UNL     1      27.070  49.176  48.849  1.00  0.00     0.107 A 
HETATM   15  C   UNL     1      26.717  48.107  49.603  1.00  0.00     0.109 A 
BRANCH  11  16
HETATM   16  C   UNL     1      23.380  49.508  48.556  1.00  0.00     0.008 A 
HETATM   17  C   UNL     1      22.412  48.638  48.047  1.00  0.00     0.015 A 
HETATM   18  C   UNL     1      21.115  49.090  47.771  1.00  0.00     0.001 A 
HETATM   19  C   UNL     1      20.767  50.415  48.003  1.00  0.00     0.000 A 
HETATM   20  C   UNL     1      21.714  51.294  48.513  1.00  0.00     0.001 A 
HETATM   21  C   UNL     1      23.012  50.846  48.786  1.00  0.00     0.015 A 
ENDBRANCH  11  16
ENDBRANCH   9  10
ENDBRANCH   8   9
ENDBRANCH   7   8
ENDBRANCH   3   7
BRANCH   1  22
HETATM   22  C   UNL     1      28.089  43.842  53.481  1.00  0.00     0.071 A 
HETATM   23  C   UNL     1      29.132  42.921  53.244  1.00  0.00     0.095 A 
HETATM   24  C   UNL     1      30.260  42.945  54.078  1.00  0.00     0.041 A 
HETATM   25  C   UNL     1      30.371  43.885  55.106  1.00  0.00     0.026 A 
HETATM   26  C   UNL     1      29.362  44.821  55.298  1.00  0.00     0.036 A 
HETATM   27  C   UNL     1      28.232  44.812  54.485  1.00  0.00     0.056 A 
HETATM   28 CL   UNL     1      29.506  45.994  56.548  1.00  0.00    -0.084 Cl
BRANCH  23  29
HETATM   29  O   UNL     1      29.015  42.110  52.145  1.00  0.00    -0.354 OA
HETATM   30  C   UNL     1      28.701  40.741  52.372  1.00  0.00     0.210 C 
ENDBRANCH  23  29
ENDBRANCH   1  22
TORSDOF 7
ENDMDL
MODEL 4
REMARK VINA RESULT:      -8.6      2.420      3.199
REMARK  7 active torsions:
REMARK  status: ('A' for Active; 'I' for Inactive)
REMARK    1  A    between atoms: O_2  and  C_3 
REMARK    2  A    between atoms: C_4  and  N_5 
REMARK       I    between atoms: N_5  and  C_6 
REMARK       I    between atoms: C_6  and  N_7 
REMARK    3  A    between atoms: N_7  and  C_8 
REMARK    4  A    between atoms: C_8  and  C_9 
REMARK    5  A    between atoms: C_9  and  C_10 
REMARK    6  A    between atoms: C_10  and  N_11 
REMARK    7  A    between atoms: C_12  and  C_13 
ROOT
HETATM    1  N   UNL     1      24.685  44.725  51.055  1.00  0.00    -0.306 N 
HETATM    2  C   UNL     1      25.924  44.156  50.858  1.00  0.00     0.320 C 
HETATM    3  N   UNL     1      26.247  43.334  51.918  1.00  0.00    -0.343 N 
HETATM    4  O   UNL     1      26.712  44.361  49.944  1.00  0.00    -0.247 OA
HETATM    5  H   UNL     1      24.491  44.907  52.029  1.00  0.00     0.171 HD
HETATM    6  H   UNL     1      25.490  43.000  52.499  1.00  0.00     0.164 HD
ENDROOT
BRANCH   3   7
HETATM    7  C   UNL     1      27.586  42.844  52.143  1.00  0.00     0.126 C 
BRANCH   7   8
HETATM    8  C   UNL     1      28.090  43.024  53.570  1.00  0.00     0.040 C 
BRANCH   8   9
HETATM    9  C   UNL     1      27.098  43.739  54.487  1.00  0.00     0.131 C 
BRANCH   9  10
HETATM   10  N   UNL     1      27.426  45.176  54.578  1.00  0.00    -0.341 N 
HETATM   11  C   UNL     1      28.424  45.775  55.287  1.00  0.00     0.117 A 
HETATM   12  N   UNL     1      28.266  47.093  55.026  1.00  0.00    -0.350 N 
HETATM   13  H   UNL     1      28.872  47.813  55.400  1.00  0.00     0.166 HD
HETATM   14  C   UNL     1      27.210  47.346  54.198  1.00  0.00     0.107 A 
HETATM   15  C   UNL     1      26.667  46.138  53.911  1.00  0.00     0.109 A 
BRANCH  11  16
HETATM   16  C   UNL     1      29.534  45.230  56.182  1.00  0.00     0.008 A 
HETATM   17  C   UNL     1      30.402  44.207  55.792  1.00  0.00     0.015 A 
HETATM   18  C   UNL     1      31.405  43.749  56.655  1.00  0.00     0.001 A 
HETATM   19  C   UNL     1      31.557  44.309  57.918  1.00  0.00     0.000 A 
HETATM   20  C   UNL     1      30.705  45.330  58.323  1.00  0.00     0.001 A 
HETATM   21  C   UNL     1      29.700  45.787  57.463  1.00  0.00     0.015 A 
ENDBRANCH  11  16
ENDBRANCH   9  10
ENDBRANCH   8   9
ENDBRANCH   7   8
ENDBRANCH   3   7
BRANCH   1  22
HETATM   22  C   UNL     1      24.033  45.581  50.135  1.00  0.00     0.071 A 
HETATM   23  C   UNL     1      24.231  46.977  50.075  1.00  0.00     0.095 A 
HETATM   24  C   UNL     1      23.504  47.726  49.139  1.00  0.00     0.041 A 
HETATM   25  C   UNL     1      22.622  47.102  48.252  1.00  0.00     0.026 A 
HETATM   26  C   UNL     1      22.472  45.721  48.284  1.00  0.00     0.036 A 
HETATM   27  C   UNL     1      23.180  44.960  49.209  1.00  0.00     0.056 A 
HETATM   28 CL   UNL     1      21.404  44.948  47.180  1.00  0.00    -0.084 Cl
BRANCH  23  29
HETATM   29  O   UNL     1      25.201  47.508  50.887  1.00  0.00    -0.354 OA
HETATM   30  C   UNL     1      26.420  47.910  50.273  1.00  0.00     0.210 C 
ENDBRANCH  23  29
ENDBRANCH   1  22
TORSDOF 7
ENDMDL
MODEL 5
REMARK VINA RESULT:      -8.5      3.349      8.372
REMARK  7 active torsions:
REMARK  status: ('A' for Active; 'I' for Inactive)
REMARK    1  A    between atoms: O_2  and  C_3 
REMARK    2  A    between atoms: C_4  and  N_5 
REMARK       I    between atoms: N_5  and  C_6 
REMARK       I    between atoms: C_6  and  N_7 
REMARK    3  A    between atoms: N_7  and  C_8 
REMARK    4  A    between atoms: C_8  and  C_9 
REMARK    5  A    between atoms: C_9  and  C_10 
REMARK    6  A    between atoms: C_10  and  N_11 
REMARK    7  A    between atoms: C_12  and  C_13 
ROOT
HETATM    1  N   UNL     1      25.723  43.836  52.424  1.00  0.00    -0.306 N 
HETATM    2  C   UNL     1      25.624  44.165  51.090  1.00  0.00     0.320 C 
HETATM    3  N   UNL     1      24.301  44.313  50.730  1.00  0.00    -0.343 N 
HETATM    4  O   UNL     1      26.525  44.252  50.266  1.00  0.00    -0.247 OA
HETATM    5  H   UNL     1      24.952  43.265  52.742  1.00  0.00     0.171 HD
HETATM    6  H   UNL     1      23.631  44.486  51.467  1.00  0.00     0.164 HD
ENDROOT
BRANCH   3   7
HETATM    7  C   UNL     1      23.869  44.357  49.353  1.00  0.00     0.126 C 
BRANCH   7   8
HETATM    8  C   UNL     1      22.523  45.040  49.137  1.00  0.00     0.040 C 
BRANCH   8   9
HETATM    9  C   UNL     1      22.547  46.119  48.055  1.00  0.00     0.131 C 
BRANCH   9  10
HETATM   10  N   UNL     1      22.159  47.425  48.624  1.00  0.00    -0.341 N 
HETATM   11  C   UNL     1      22.964  48.436  49.057  1.00  0.00     0.117 A 
HETATM   12  N   UNL     1      22.099  49.384  49.485  1.00  0.00    -0.350 N 
HETATM   13  H   UNL     1      22.391  50.279  49.858  1.00  0.00     0.166 HD
HETATM   14  C   UNL     1      20.792  49.009  49.351  1.00  0.00     0.107 A 
HETATM   15  C   UNL     1      20.818  47.767  48.810  1.00  0.00     0.109 A 
BRANCH  11  16
HETATM   16  C   UNL     1      24.479  48.612  49.096  1.00  0.00     0.008 A 
HETATM   17  C   UNL     1      25.330  47.782  49.829  1.00  0.00     0.015 A 
HETATM   18  C   UNL     1      26.715  47.991  49.825  1.00  0.00     0.001 A 
HETATM   19  C   UNL     1      27.269  49.029  49.084  1.00  0.00     0.000 A 
HETATM   20  C   UNL     1      26.439  49.863  48.345  1.00  0.00     0.001 A 
HETATM   21  C   UNL     1      25.054  49.658  48.351  1.00  0.00     0.015 A 
ENDBRANCH  11  16
ENDBRANCH   9  10
ENDBRANCH   8   9
ENDBRANCH   7   8
ENDBRANCH   3   7
BRANCH   1  22
HETATM   22  C   UNL     1      26.940  43.660  53.126  1.00  0.00     0.071 A 
HETATM   23  C   UNL     1      27.711  42.479  53.087  1.00  0.00     0.095 A 
HETATM   24  C   UNL     1      28.886  42.412  53.850  1.00  0.00     0.041 A 
HETATM   25  C   UNL     1      29.310  43.505  54.611  1.00  0.00     0.026 A 
HETATM   26  C   UNL     1      28.570  44.681  54.602  1.00  0.00     0.036 A 
HETATM   27  C   UNL     1      27.399  44.768  53.856  1.00  0.00     0.056 A 
HETATM   28 CL   UNL     1      29.101  46.035  55.520  1.00  0.00    -0.084 Cl
BRANCH  23  29
HETATM   29  O   UNL     1      27.306  41.493  52.225  1.00  0.00    -0.354 OA
HETATM   30  C   UNL     1      28.178  41.165  51.149  1.00  0.00     0.210 C 
ENDBRANCH  23  29
ENDBRANCH   1  22
TORSDOF 7
ENDMDL
MODEL 6
REMARK VINA RESULT:      -8.5      5.347      7.164
REMARK  7 active torsions:
REMARK  status: ('A' for Active; 'I' for Inactive)
REMARK    1  A    between atoms: O_2  and  C_3 
REMARK    2  A    between atoms: C_4  and  N_5 
REMARK       I    between atoms: N_5  and  C_6 
REMARK       I    between atoms: C_6  and  N_7 
REMARK    3  A    between atoms: N_7  and  C_8 
REMARK    4  A    between atoms: C_8  and  C_9 
REMARK    5  A    between atoms: C_9  and  C_10 
REMARK    6  A    between atoms: C_10  and  N_11 
REMARK    7  A    between atoms: C_12  and  C_13 
ROOT
HETATM    1  N   UNL     1      26.334  40.307  51.122  1.00  0.00    -0.306 N 
HETATM    2  C   UNL     1      27.344  41.077  51.655  1.00  0.00     0.320 C 
HETATM    3  N   UNL     1      27.362  40.960  53.029  1.00  0.00    -0.343 N 
HETATM    4  O   UNL     1      28.101  41.839  51.067  1.00  0.00    -0.247 OA
HETATM    5  H   UNL     1      25.525  40.256  51.725  1.00  0.00     0.171 HD
HETATM    6  H   UNL     1      26.911  40.152  53.436  1.00  0.00     0.164 HD
ENDROOT
BRANCH   3   7
HETATM    7  C   UNL     1      28.098  41.867  53.878  1.00  0.00     0.126 C 
BRANCH   7   8
HETATM    8  C   UNL     1      27.375  43.176  54.176  1.00  0.00     0.040 C 
BRANCH   8   9
HETATM    9  C   UNL     1      27.991  44.390  53.480  1.00  0.00     0.131 C 
BRANCH   9  10
HETATM   10  N   UNL     1      27.719  45.617  54.254  1.00  0.00    -0.341 N 
HETATM   11  C   UNL     1      28.302  46.038  55.411  1.00  0.00     0.117 A 
HETATM   12  N   UNL     1      27.679  47.207  55.688  1.00  0.00    -0.350 N 
HETATM   13  H   UNL     1      27.901  47.783  56.490  1.00  0.00     0.166 HD
HETATM   14  C   UNL     1      26.725  47.529  54.764  1.00  0.00     0.107 A 
HETATM   15  C   UNL     1      26.739  46.526  53.853  1.00  0.00     0.109 A 
BRANCH  11  16
HETATM   16  C   UNL     1      29.409  45.458  56.287  1.00  0.00     0.008 A 
HETATM   17  C   UNL     1      29.621  45.843  57.613  1.00  0.00     0.015 A 
HETATM   18  C   UNL     1      30.653  45.273  58.370  1.00  0.00     0.001 A 
HETATM   19  C   UNL     1      31.485  44.309  57.812  1.00  0.00     0.000 A 
HETATM   20  C   UNL     1      31.288  43.911  56.496  1.00  0.00     0.001 A 
HETATM   21  C   UNL     1      30.260  44.482  55.737  1.00  0.00     0.015 A 
ENDBRANCH  11  16
ENDBRANCH   9  10
ENDBRANCH   8   9
ENDBRANCH   7   8
ENDBRANCH   3   7
BRANCH   1  22
HETATM   22  C   UNL     1      26.070  40.162  49.739  1.00  0.00     0.071 A 
HETATM   23  C   UNL     1      26.659  39.176  48.920  1.00  0.00     0.095 A 
HETATM   24  C   UNL     1      26.342  39.151  47.554  1.00  0.00     0.041 A 
HETATM   25  C   UNL     1      25.432  40.064  47.013  1.00  0.00     0.026 A 
HETATM   26  C   UNL     1      24.818  40.998  47.837  1.00  0.00     0.036 A 
HETATM   27  C   UNL     1      25.122  41.043  49.195  1.00  0.00     0.056 A 
HETATM   28 CL   UNL     1      23.681  42.108  47.179  1.00  0.00    -0.084 Cl
BRANCH  23  29
HETATM   29  O   UNL     1      27.445  38.236  49.536  1.00  0.00    -0.354 OA
HETATM   30  C   UNL     1      26.913  36.923  49.668  1.00  0.00     0.210 C 
ENDBRANCH  23  29
ENDBRANCH   1  22
TORSDOF 7
ENDMDL
MODEL 7
REMARK VINA RESULT:      -8.4      3.140      4.294
REMARK  7 active torsions:
REMARK  status: ('A' for Active; 'I' for Inactive)
REMARK    1  A    between atoms: O_2  and  C_3 
REMARK    2  A    between atoms: C_4  and  N_5 
REMARK       I    between atoms: N_5  and  C_6 
REMARK       I    between atoms: C_6  and  N_7 
REMARK    3  A    between atoms: N_7  and  C_8 
REMARK    4  A    between atoms: C_8  and  C_9 
REMARK    5  A    between atoms: C_9  and  C_10 
REMARK    6  A    between atoms: C_10  and  N_11 
REMARK    7  A    between atoms: C_12  and  C_13 
ROOT
HETATM    1  N   UNL     1      23.987  46.576  50.196  1.00  0.00    -0.306 N 
HETATM    2  C   UNL     1      23.661  45.366  49.624  1.00  0.00     0.320 C 
HETATM    3  N   UNL     1      23.494  44.404  50.599  1.00  0.00    -0.343 N 
HETATM    4  O   UNL     1      23.591  45.089  48.434  1.00  0.00    -0.247 OA
HETATM    5  H   UNL     1      24.545  46.473  51.032  1.00  0.00     0.171 HD
HETATM    6  H   UNL     1      23.309  44.720  51.541  1.00  0.00     0.164 HD
ENDROOT
BRANCH   3   7
HETATM    7  C   UNL     1      23.448  42.992  50.301  1.00  0.00     0.126 C 
BRANCH   7   8
HETATM    8  C   UNL     1      24.817  42.335  50.161  1.00  0.00     0.040 C 
BRANCH   8   9
HETATM    9  C   UNL     1      25.834  42.806  51.200  1.00  0.00     0.131 C 
BRANCH   9  10
HETATM   10  N   UNL     1      27.004  41.905  51.219  1.00  0.00    -0.341 N 
HETATM   11  C   UNL     1      28.114  41.971  52.007  1.00  0.00     0.117 A 
HETATM   12  N   UNL     1      28.864  40.919  51.606  1.00  0.00    -0.350 N 
HETATM   13  H   UNL     1      29.758  40.682  52.017  1.00  0.00     0.166 HD
HETATM   14  C   UNL     1      28.281  40.207  50.597  1.00  0.00     0.107 A 
HETATM   15  C   UNL     1      27.103  40.825  50.340  1.00  0.00     0.109 A 
BRANCH  11  16
HETATM   16  C   UNL     1      28.540  42.921  53.122  1.00  0.00     0.008 A 
HETATM   17  C   UNL     1      29.652  42.698  53.938  1.00  0.00     0.015 A 
HETATM   18  C   UNL     1      29.997  43.607  54.945  1.00  0.00     0.001 A 
HETATM   19  C   UNL     1      29.238  44.754  55.149  1.00  0.00     0.000 A 
HETATM   20  C   UNL     1      28.131  44.995  54.346  1.00  0.00     0.001 A 
HETATM   21  C   UNL     1      27.782  44.086  53.341  1.00  0.00     0.015 A 
ENDBRANCH  11  16
ENDBRANCH   9  10
ENDBRANCH   8   9
ENDBRANCH   7   8
ENDBRANCH   3   7
BRANCH   1  22
HETATM   22  C   UNL     1      24.179  47.782  49.482  1.00  0.00     0.071 A 
HETATM   23  C   UNL     1      23.140  48.515  48.871  1.00  0.00     0.095 A 
HETATM   24  C   UNL     1      23.458  49.684  48.164  1.00  0.00     0.041 A 
HETATM   25  C   UNL     1      24.778  50.139  48.090  1.00  0.00     0.026 A 
HETATM   26  C   UNL     1      25.787  49.438  48.738  1.00  0.00     0.036 A 
HETATM   27  C   UNL     1      25.494  48.274  49.442  1.00  0.00     0.056 A 
HETATM   28 CL   UNL     1      27.408  50.008  48.667  1.00  0.00    -0.084 Cl
BRANCH  23  29
HETATM   29  O   UNL     1      21.856  48.082  49.087  1.00  0.00    -0.354 OA
HETATM   30  C   UNL     1      20.825  49.062  49.083  1.00  0.00     0.210 C 
ENDBRANCH  23  29
ENDBRANCH   1  22
TORSDOF 7
ENDMDL
MODEL 8
REMARK VINA RESULT:      -8.4      2.351      3.612
REMARK  7 active torsions:
REMARK  status: ('A' for Active; 'I' for Inactive)
REMARK    1  A    between atoms: O_2  and  C_3 
REMARK    2  A    between atoms: C_4  and  N_5 
REMARK       I    between atoms: N_5  and  C_6 
REMARK       I    between atoms: C_6  and  N_7 
REMARK    3  A    between atoms: N_7  and  C_8 
REMARK    4  A    between atoms: C_8  and  C_9 
REMARK    5  A    between atoms: C_9  and  C_10 
REMARK    6  A    between atoms: C_10  and  N_11 
REMARK    7  A    between atoms: C_12  and  C_13 
ROOT
HETATM    1  N   UNL     1      21.971  48.223  49.491  1.00  0.00    -0.306 N 
HETATM    2  C   UNL     1      23.316  48.147  49.201  1.00  0.00     0.320 C 
HETATM    3  N   UNL     1      23.985  47.476  50.203  1.00  0.00    -0.343 N 
HETATM    4  O   UNL     1      23.913  48.646  48.256  1.00  0.00    -0.247 OA
HETATM    5  H   UNL     1      21.790  48.300  50.482  1.00  0.00     0.171 HD
HETATM    6  H   UNL     1      23.441  46.876  50.809  1.00  0.00     0.164 HD
ENDROOT
BRANCH   3   7
HETATM    7  C   UNL     1      25.422  47.502  50.332  1.00  0.00     0.126 C 
BRANCH   7   8
HETATM    8  C   UNL     1      26.001  46.347  51.143  1.00  0.00     0.040 C 
BRANCH   8   9
HETATM    9  C   UNL     1      26.771  45.330  50.301  1.00  0.00     0.131 C 
BRANCH   9  10
HETATM   10  N   UNL     1      26.343  43.957  50.638  1.00  0.00    -0.341 N 
HETATM   11  C   UNL     1      26.856  43.115  51.578  1.00  0.00     0.117 A 
HETATM   12  N   UNL     1      26.107  41.994  51.459  1.00  0.00    -0.350 N 
HETATM   13  H   UNL     1      26.232  41.174  52.039  1.00  0.00     0.166 HD
HETATM   14  C   UNL     1      25.160  42.093  50.480  1.00  0.00     0.107 A 
HETATM   15  C   UNL     1      25.302  43.331  49.950  1.00  0.00     0.109 A 
BRANCH  11  16
HETATM   16  C   UNL     1      27.979  43.261  52.601  1.00  0.00     0.008 A 
HETATM   17  C   UNL     1      29.221  42.635  52.473  1.00  0.00     0.015 A 
HETATM   18  C   UNL     1      30.216  42.808  53.444  1.00  0.00     0.001 A 
HETATM   19  C   UNL     1      29.984  43.613  54.554  1.00  0.00     0.000 A 
HETATM   20  C   UNL     1      28.756  44.247  54.697  1.00  0.00     0.001 A 
HETATM   21  C   UNL     1      27.760  44.072  53.730  1.00  0.00     0.015 A 
ENDBRANCH  11  16
ENDBRANCH   9  10
ENDBRANCH   8   9
ENDBRANCH   7   8
ENDBRANCH   3   7
BRANCH   1  22
HETATM   22  C   UNL     1      20.993  48.804  48.648  1.00  0.00     0.071 A 
HETATM   23  C   UNL     1      20.324  48.111  47.617  1.00  0.00     0.095 A 
HETATM   24  C   UNL     1      19.395  48.803  46.826  1.00  0.00     0.041 A 
HETATM   25  C   UNL     1      19.107  50.148  47.072  1.00  0.00     0.026 A 
HETATM   26  C   UNL     1      19.733  50.808  48.122  1.00  0.00     0.036 A 
HETATM   27  C   UNL     1      20.662  50.141  48.916  1.00  0.00     0.056 A 
HETATM   28 CL   UNL     1      19.364  52.457  48.442  1.00  0.00    -0.084 Cl
BRANCH  23  29
HETATM   29  O   UNL     1      20.561  46.764  47.510  1.00  0.00    -0.354 OA
HETATM   30  C   UNL     1      21.378  46.328  46.429  1.00  0.00     0.210 C 
ENDBRANCH  23  29
ENDBRANCH   1  22
TORSDOF 7
ENDMDL
MODEL 9
REMARK VINA RESULT:      -8.3      5.670      8.218
REMARK  7 active torsions:
REMARK  status: ('A' for Active; 'I' for Inactive)
REMARK    1  A    between atoms: O_2  and  C_3 
REMARK    2  A    between atoms: C_4  and  N_5 
REMARK       I    between atoms: N_5  and  C_6 
REMARK       I    between atoms: C_6  and  N_7 
REMARK    3  A    between atoms: N_7  and  C_8 
REMARK    4  A    between atoms: C_8  and  C_9 
REMARK    5  A    between atoms: C_9  and  C_10 
REMARK    6  A    between atoms: C_10  and  N_11 
REMARK    7  A    between atoms: C_12  and  C_13 
ROOT
HETATM    1  N   UNL     1      29.044  40.403  50.474  1.00  0.00    -0.306 N 
HETATM    2  C   UNL     1      28.098  40.767  51.407  1.00  0.00     0.320 C 
HETATM    3  N   UNL     1      28.672  41.540  52.395  1.00  0.00    -0.343 N 
HETATM    4  O   UNL     1      26.924  40.427  51.462  1.00  0.00    -0.247 OA
HETATM    5  H   UNL     1      29.959  40.266  50.881  1.00  0.00     0.171 HD
HETATM    6  H   UNL     1      29.548  41.997  52.182  1.00  0.00     0.164 HD
ENDROOT
BRANCH   3   7
HETATM    7  C   UNL     1      28.013  41.814  53.650  1.00  0.00     0.126 C 
BRANCH   7   8
HETATM    8  C   UNL     1      27.255  43.137  53.687  1.00  0.00     0.040 C 
BRANCH   8   9
HETATM    9  C   UNL     1      28.063  44.323  53.161  1.00  0.00     0.131 C 
BRANCH   9  10
HETATM   10  N   UNL     1      27.832  45.514  54.001  1.00  0.00    -0.341 N 
HETATM   11  C   UNL     1      28.429  45.852  55.178  1.00  0.00     0.117 A 
HETATM   12  N   UNL     1      27.845  47.023  55.520  1.00  0.00    -0.350 N 
HETATM   13  H   UNL     1      28.087  47.547  56.352  1.00  0.00     0.166 HD
HETATM   14  C   UNL     1      26.901  47.427  54.618  1.00  0.00     0.107 A 
HETATM   15  C   UNL     1      26.882  46.476  53.653  1.00  0.00     0.109 A 
BRANCH  11  16
HETATM   16  C   UNL     1      29.517  45.189  56.018  1.00  0.00     0.008 A 
HETATM   17  C   UNL     1      30.291  44.117  55.564  1.00  0.00     0.015 A 
HETATM   18  C   UNL     1      31.279  43.550  56.379  1.00  0.00     0.001 A 
HETATM   19  C   UNL     1      31.510  44.047  57.656  1.00  0.00     0.000 A 
HETATM   20  C   UNL     1      30.753  45.115  58.123  1.00  0.00     0.001 A 
HETATM   21  C   UNL     1      29.763  45.681  57.312  1.00  0.00     0.015 A 
ENDBRANCH  11  16
ENDBRANCH   9  10
ENDBRANCH   8   9
ENDBRANCH   7   8
ENDBRANCH   3   7
BRANCH   1  22
HETATM   22  C   UNL     1      28.780  39.650  49.306  1.00  0.00     0.071 A 
HETATM   23  C   UNL     1      29.405  38.423  48.996  1.00  0.00     0.095 A 
HETATM   24  C   UNL     1      29.082  37.782  47.792  1.00  0.00     0.041 A 
HETATM   25  C   UNL     1      28.132  38.326  46.923  1.00  0.00     0.026 A 
HETATM   26  C   UNL     1      27.484  39.508  47.260  1.00  0.00     0.036 A 
HETATM   27  C   UNL     1      27.793  40.163  48.449  1.00  0.00     0.056 A 
HETATM   28 CL   UNL     1      26.298  40.169  46.204  1.00  0.00    -0.084 Cl
BRANCH  23  29
HETATM   29  O   UNL     1      30.232  37.884  49.948  1.00  0.00    -0.354 OA
HETATM   30  C   UNL     1      29.635  37.058  50.942  1.00  0.00     0.210 C 
ENDBRANCH  23  29
ENDBRANCH   1  22
TORSDOF 7
ENDMDL
MODEL 10
REMARK VINA RESULT:      -8.3      4.228      8.502
REMARK  7 active torsions:
REMARK  status: ('A' for Active; 'I' for Inactive)
REMARK    1  A    between atoms: O_2  and  C_3 
REMARK    2  A    between atoms: C_4  and  N_5 
REMARK       I    between atoms: N_5  and  C_6 
REMARK       I    between atoms: C_6  and  N_7 
REMARK    3  A    between atoms: N_7  and  C_8 
REMARK    4  A    between atoms: C_8  and  C_9 
REMARK    5  A    between atoms: C_9  and  C_10 
REMARK    6  A    between atoms: C_10  and  N_11 
REMARK    7  A    between atoms: C_12  and  C_13 
ROOT
HETATM    1  N   UNL     1      29.048  44.084  53.216  1.00  0.00    -0.306 N 
HETATM    2  C   UNL     1      28.249  42.998  52.930  1.00  0.00     0.320 C 
HETATM    3  N   UNL     1      28.085  42.870  51.566  1.00  0.00    -0.343 N 
HETATM    4  O   UNL     1      27.671  42.260  53.716  1.00  0.00    -0.247 OA
HETATM    5  H   UNL     1      28.925  44.841  52.558  1.00  0.00     0.171 HD
HETATM    6  H   UNL     1      28.764  43.322  50.968  1.00  0.00     0.164 HD
ENDROOT
BRANCH   3   7
HETATM    7  C   UNL     1      27.072  42.026  50.980  1.00  0.00     0.126 C 
BRANCH   7   8
HETATM    8  C   UNL     1      25.835  42.772  50.492  1.00  0.00     0.040 C 
BRANCH   8   9
HETATM    9  C   UNL     1      26.099  44.238  50.148  1.00  0.00     0.131 C 
BRANCH   9  10
HETATM   10  N   UNL     1      25.699  45.109  51.271  1.00  0.00    -0.341 N 
HETATM   11  C   UNL     1      25.680  46.470  51.325  1.00  0.00     0.117 A 
HETATM   12  N   UNL     1      25.246  46.744  52.576  1.00  0.00    -0.350 N 
HETATM   13  H   UNL     1      25.108  47.684  52.927  1.00  0.00     0.166 HD
HETATM   14  C   UNL     1      25.005  45.618  53.311  1.00  0.00     0.107 A 
HETATM   15  C   UNL     1      25.293  44.575  52.495  1.00  0.00     0.109 A 
BRANCH  11  16
HETATM   16  C   UNL     1      26.015  47.554  50.304  1.00  0.00     0.008 A 
HETATM   17  C   UNL     1      27.322  47.909  49.963  1.00  0.00     0.015 A 
HETATM   18  C   UNL     1      27.570  48.911  49.016  1.00  0.00     0.001 A 
HETATM   19  C   UNL     1      26.515  49.569  48.394  1.00  0.00     0.000 A 
HETATM   20  C   UNL     1      25.207  49.227  48.718  1.00  0.00     0.001 A 
HETATM   21  C   UNL     1      24.958  48.229  49.667  1.00  0.00     0.015 A 
ENDBRANCH  11  16
ENDBRANCH   9  10
ENDBRANCH   8   9
ENDBRANCH   7   8
ENDBRANCH   3   7
BRANCH   1  22
HETATM   22  C   UNL     1      29.454  44.469  54.516  1.00  0.00     0.071 A 
HETATM   23  C   UNL     1      28.943  45.588  55.206  1.00  0.00     0.095 A 
HETATM   24  C   UNL     1      29.446  45.887  56.481  1.00  0.00     0.041 A 
HETATM   25  C   UNL     1      30.414  45.074  57.078  1.00  0.00     0.026 A 
HETATM   26  C   UNL     1      30.873  43.945  56.411  1.00  0.00     0.036 A 
HETATM   27  C   UNL     1      30.391  43.632  55.144  1.00  0.00     0.056 A 
HETATM   28 CL   UNL     1      32.047  42.929  57.153  1.00  0.00    -0.084 Cl
BRANCH  23  29
HETATM   29  O   UNL     1      27.909  46.270  54.616  1.00  0.00    -0.354 OA
HETATM   30  C   UNL     1      27.825  47.669  54.859  1.00  0.00     0.210 C 
ENDBRANCH  23  29
ENDBRANCH   1  22
TORSDOF 7
ENDMDL
