MODEL 1
REMARK VINA RESULT:      -8.6      0.000      0.000
REMARK  9 active torsions:
REMARK  status: ('A' for Active; 'I' for Inactive)
REMARK    1  A    between atoms: C_2  and  C_3 
REMARK    2  A    between atoms: C_3  and  O_4 
REMARK    3  A    between atoms: O_4  and  C_5 
REMARK    4  A    between atoms: C_8  and  C_9 
REMARK    5  A    between atoms: C_13  and  C_14 
REMARK       I    between atoms: C_14  and  N_15 
REMARK    6  A    between atoms: N_15  and  N_16 
REMARK    7  A    between atoms: C_17  and  C_18 
REMARK    8  A    between atoms: C_21  and  C_22 
REMARK    9  A    between atoms: C_22  and  O_23 
ROOT
HETATM    1  C   UNL     1      25.931  45.959  52.250  1.00  0.00     0.089 A 
HETATM    2  N   UNL     1      25.046  45.079  51.757  1.00  0.00    -0.174 NA
HETATM    3  N   UNL     1      24.309  45.789  50.891  1.00  0.00    -0.272 N 
HETATM    4  H   UNL     1      23.562  45.326  50.381  1.00  0.00     0.189 HD
HETATM    5  C   UNL     1      24.691  47.097  50.769  1.00  0.00     0.121 A 
HETATM    6  C   UNL     1      25.729  47.242  51.667  1.00  0.00     0.071 A 
ENDROOT
BRANCH   5   7
HETATM    7  C   UNL     1      24.046  47.977  49.825  1.00  0.00     0.289 C 
HETATM    8  N   UNL     1      22.726  47.655  49.546  1.00  0.00    -0.242 N 
HETATM    9  H   UNL     1      22.289  46.859  49.992  1.00  0.00     0.192 HD
HETATM   10  O   UNL     1      24.642  48.936  49.342  1.00  0.00    -0.264 OA
BRANCH   8  11
HETATM   11  N   UNL     1      21.961  48.493  48.786  1.00  0.00    -0.184 NA
HETATM   12  C   UNL     1      20.734  48.634  49.170  1.00  0.00     0.150 C 
BRANCH  12  13
HETATM   13  C   UNL     1      19.806  49.551  48.478  1.00  0.00    -0.017 A 
HETATM   14  C   UNL     1      18.820  49.057  47.620  1.00  0.00     0.014 A 
HETATM   15  C   UNL     1      17.976  49.943  46.945  1.00  0.00     0.018 A 
HETATM   16  C   UNL     1      18.114  51.327  47.124  1.00  0.00     0.039 A 
HETATM   17  C   UNL     1      19.101  51.814  47.995  1.00  0.00     0.018 A 
HETATM   18  C   UNL     1      19.946  50.927  48.670  1.00  0.00     0.014 A 
BRANCH  16  19
HETATM   19  C   UNL     1      17.201  52.228  46.367  1.00  0.00     0.292 C 
HETATM   20  O   UNL     1      17.500  52.756  45.306  1.00  0.00    -0.259 OA
BRANCH  19  21
HETATM   21  O   UNL     1      16.023  52.378  47.023  1.00  0.00    -0.323 OA
HETATM   22  C   UNL     1      14.925  52.712  46.173  1.00  0.00     0.213 C 
ENDBRANCH  19  21
ENDBRANCH  16  19
ENDBRANCH  12  13
ENDBRANCH   8  11
ENDBRANCH   5   7
BRANCH   1  23
HETATM   23  C   UNL     1      26.958  45.562  53.217  1.00  0.00    -0.005 A 
HETATM   24  C   UNL     1      27.660  44.360  53.050  1.00  0.00     0.016 A 
HETATM   25  C   UNL     1      28.683  43.995  53.934  1.00  0.00     0.037 A 
HETATM   26  C   UNL     1      29.017  44.827  55.000  1.00  0.00     0.068 A 
HETATM   27  C   UNL     1      28.299  46.010  55.191  1.00  0.00     0.037 A 
HETATM   28  C   UNL     1      27.281  46.380  54.306  1.00  0.00     0.016 A 
BRANCH  26  29
HETATM   29  O   UNL     1      30.002  44.598  55.920  1.00  0.00    -0.351 OA
BRANCH  29  30
HETATM   30  C   UNL     1      30.765  43.402  55.758  1.00  0.00     0.175 C 
BRANCH  30  31
HETATM   31  C   UNL     1      31.680  43.264  56.970  1.00  0.00     0.022 C 
HETATM   32  C   UNL     1      31.425  44.350  57.999  1.00  0.00     0.007 C 
ENDBRANCH  30  31
ENDBRANCH  29  30
ENDBRANCH  26  29
ENDBRANCH   1  23
TORSDOF 9
ENDMDL
MODEL 2
REMARK VINA RESULT:      -8.5      1.216     13.012
REMARK  9 active torsions:
REMARK  status: ('A' for Active; 'I' for Inactive)
REMARK    1  A    between atoms: C_2  and  C_3 
REMARK    2  A    between atoms: C_3  and  O_4 
REMARK    3  A    between atoms: O_4  and  C_5 
REMARK    4  A    between atoms: C_8  and  C_9 
REMARK    5  A    between atoms: C_13  and  C_14 
REMARK       I    between atoms: C_14  and  N_15 
REMARK    6  A    between atoms: N_15  and  N_16 
REMARK    7  A    between atoms: C_17  and  C_18 
REMARK    8  A    between atoms: C_21  and  C_22 
REMARK    9  A    between atoms: C_22  and  O_23 
ROOT
HETATM    1  C   UNL     1      21.483  49.047  48.647  1.00  0.00     0.089 A 
HETATM    2  N   UNL     1      21.378  47.710  48.625  1.00  0.00    -0.174 NA
HETATM    3  N   UNL     1      22.543  47.270  49.120  1.00  0.00    -0.272 N 
HETATM    4  H   UNL     1      22.699  46.270  49.206  1.00  0.00     0.189 HD
HETATM    5  C   UNL     1      23.403  48.264  49.500  1.00  0.00     0.121 A 
HETATM    6  C   UNL     1      22.748  49.435  49.174  1.00  0.00     0.071 A 
ENDROOT
BRANCH   5   7
HETATM    7  C   UNL     1      24.669  47.958  50.120  1.00  0.00     0.289 C 
HETATM    8  N   UNL     1      24.584  47.124  51.224  1.00  0.00    -0.242 N 
HETATM    9  H   UNL     1      23.686  46.779  51.535  1.00  0.00     0.192 HD
HETATM   10  O   UNL     1      25.721  48.403  49.666  1.00  0.00    -0.264 OA
BRANCH   8  11
HETATM   11  N   UNL     1      25.719  46.640  51.808  1.00  0.00    -0.184 NA
HETATM   12  C   UNL     1      25.758  46.709  53.099  1.00  0.00     0.150 C 
BRANCH  12  13
HETATM   13  C   UNL     1      26.899  46.174  53.870  1.00  0.00    -0.017 A 
HETATM   14  C   UNL     1      27.607  46.989  54.758  1.00  0.00     0.014 A 
HETATM   15  C   UNL     1      28.706  46.473  55.449  1.00  0.00     0.018 A 
HETATM   16  C   UNL     1      29.104  45.142  55.257  1.00  0.00     0.039 A 
HETATM   17  C   UNL     1      28.381  44.329  54.370  1.00  0.00     0.018 A 
HETATM   18  C   UNL     1      27.281  44.845  53.677  1.00  0.00     0.014 A 
BRANCH  16  19
HETATM   19  C   UNL     1      30.294  44.649  56.004  1.00  0.00     0.292 C 
HETATM   20  O   UNL     1      30.929  43.657  55.683  1.00  0.00    -0.259 OA
BRANCH  19  21
HETATM   21  O   UNL     1      30.549  45.442  57.075  1.00  0.00    -0.323 OA
HETATM   22  C   UNL     1      31.232  44.777  58.139  1.00  0.00     0.213 C 
ENDBRANCH  19  21
ENDBRANCH  16  19
ENDBRANCH  12  13
ENDBRANCH   8  11
ENDBRANCH   5   7
BRANCH   1  23
HETATM   23  C   UNL     1      20.385  49.915  48.214  1.00  0.00    -0.005 A 
HETATM   24  C   UNL     1      20.217  51.183  48.789  1.00  0.00     0.016 A 
HETATM   25  C   UNL     1      19.207  52.047  48.346  1.00  0.00     0.037 A 
HETATM   26  C   UNL     1      18.348  51.652  47.322  1.00  0.00     0.068 A 
HETATM   27  C   UNL     1      18.489  50.377  46.768  1.00  0.00     0.037 A 
HETATM   28  C   UNL     1      19.501  49.516  47.205  1.00  0.00     0.016 A 
BRANCH  26  29
HETATM   29  O   UNL     1      17.338  52.402  46.787  1.00  0.00    -0.351 OA
BRANCH  29  30
HETATM   30  C   UNL     1      16.016  51.880  46.915  1.00  0.00     0.175 C 
BRANCH  30  31
HETATM   31  C   UNL     1      15.681  51.813  48.402  1.00  0.00     0.022 C 
HETATM   32  C   UNL     1      15.007  53.084  48.888  1.00  0.00     0.007 C 
ENDBRANCH  30  31
ENDBRANCH  29  30
ENDBRANCH  26  29
ENDBRANCH   1  23
TORSDOF 9
ENDMDL
MODEL 3
REMARK VINA RESULT:      -8.3      2.341      3.117
REMARK  9 active torsions:
REMARK  status: ('A' for Active; 'I' for Inactive)
REMARK    1  A    between atoms: C_2  and  C_3 
REMARK    2  A    between atoms: C_3  and  O_4 
REMARK    3  A    between atoms: O_4  and  C_5 
REMARK    4  A    between atoms: C_8  and  C_9 
REMARK    5  A    between atoms: C_13  and  C_14 
REMARK       I    between atoms: C_14  and  N_15 
REMARK    6  A    between atoms: N_15  and  N_16 
REMARK    7  A    between atoms: C_17  and  C_18 
REMARK    8  A    between atoms: C_21  and  C_22 
REMARK    9  A    between atoms: C_22  and  O_23 
ROOT
HETATM    1  C   UNL     1      25.608  46.807  50.257  1.00  0.00     0.089 A 
HETATM    2  N   UNL     1      26.380  47.779  49.748  1.00  0.00    -0.174 NA
HETATM    3  N   UNL     1      25.517  48.645  49.198  1.00  0.00    -0.272 N 
HETATM    4  H   UNL     1      25.876  49.482  48.746  1.00  0.00     0.189 HD
HETATM    5  C   UNL     1      24.202  48.301  49.351  1.00  0.00     0.121 A 
HETATM    6  C   UNL     1      24.234  47.090  50.012  1.00  0.00     0.071 A 
ENDROOT
BRANCH   5   7
HETATM    7  C   UNL     1      23.146  49.164  48.880  1.00  0.00     0.289 C 
HETATM    8  N   UNL     1      22.012  49.175  49.678  1.00  0.00    -0.242 N 
HETATM    9  H   UNL     1      21.971  48.608  50.514  1.00  0.00     0.192 HD
HETATM   10  O   UNL     1      23.284  49.837  47.862  1.00  0.00    -0.264 OA
BRANCH   8  11
HETATM   11  N   UNL     1      21.003  50.059  49.425  1.00  0.00    -0.184 NA
HETATM   12  C   UNL     1      19.810  49.641  49.697  1.00  0.00     0.150 C 
BRANCH  12  13
HETATM   13  C   UNL     1      18.627  50.508  49.527  1.00  0.00    -0.017 A 
HETATM   14  C   UNL     1      18.650  51.840  49.949  1.00  0.00     0.014 A 
HETATM   15  C   UNL     1      17.507  52.633  49.813  1.00  0.00     0.018 A 
HETATM   16  C   UNL     1      16.336  52.100  49.256  1.00  0.00     0.039 A 
HETATM   17  C   UNL     1      16.325  50.764  48.827  1.00  0.00     0.018 A 
HETATM   18  C   UNL     1      17.468  49.969  48.963  1.00  0.00     0.014 A 
BRANCH  16  19
HETATM   19  C   UNL     1      15.142  52.983  49.152  1.00  0.00     0.292 C 
HETATM   20  O   UNL     1      14.885  53.658  48.167  1.00  0.00    -0.259 OA
BRANCH  19  21
HETATM   21  O   UNL     1      14.408  52.932  50.292  1.00  0.00    -0.323 OA
HETATM   22  C   UNL     1      14.376  54.165  51.014  1.00  0.00     0.213 C 
ENDBRANCH  19  21
ENDBRANCH  16  19
ENDBRANCH  12  13
ENDBRANCH   8  11
ENDBRANCH   5   7
BRANCH   1  23
HETATM   23  C   UNL     1      26.176  45.671  50.987  1.00  0.00    -0.005 A 
HETATM   24  C   UNL     1      27.058  44.789  50.347  1.00  0.00     0.016 A 
HETATM   25  C   UNL     1      27.653  43.732  51.046  1.00  0.00     0.037 A 
HETATM   26  C   UNL     1      27.372  43.541  52.398  1.00  0.00     0.068 A 
HETATM   27  C   UNL     1      26.469  44.397  53.033  1.00  0.00     0.037 A 
HETATM   28  C   UNL     1      25.878  45.456  52.338  1.00  0.00     0.016 A 
BRANCH  26  29
HETATM   29  O   UNL     1      27.897  42.565  53.197  1.00  0.00    -0.351 OA
BRANCH  29  30
HETATM   30  C   UNL     1      29.103  41.946  52.746  1.00  0.00     0.175 C 
BRANCH  30  31
HETATM   31  C   UNL     1      30.276  42.734  53.322  1.00  0.00     0.022 C 
HETATM   32  C   UNL     1      30.099  43.011  54.803  1.00  0.00     0.007 C 
ENDBRANCH  30  31
ENDBRANCH  29  30
ENDBRANCH  26  29
ENDBRANCH   1  23
TORSDOF 9
ENDMDL
MODEL 4
REMARK VINA RESULT:      -7.8      2.161     12.767
REMARK  9 active torsions:
REMARK  status: ('A' for Active; 'I' for Inactive)
REMARK    1  A    between atoms: C_2  and  C_3 
REMARK    2  A    between atoms: C_3  and  O_4 
REMARK    3  A    between atoms: O_4  and  C_5 
REMARK    4  A    between atoms: C_8  and  C_9 
REMARK    5  A    between atoms: C_13  and  C_14 
REMARK       I    between atoms: C_14  and  N_15 
REMARK    6  A    between atoms: N_15  and  N_16 
REMARK    7  A    between atoms: C_17  and  C_18 
REMARK    8  A    between atoms: C_21  and  C_22 
REMARK    9  A    between atoms: C_22  and  O_23 
ROOT
HETATM    1  C   UNL     1      21.063  50.556  48.897  1.00  0.00     0.089 A 
HETATM    2  N   UNL     1      21.971  51.277  48.221  1.00  0.00    -0.174 NA
HETATM    3  N   UNL     1      23.139  50.667  48.466  1.00  0.00    -0.272 N 
HETATM    4  H   UNL     1      23.988  51.038  48.048  1.00  0.00     0.189 HD
HETATM    5  C   UNL     1      23.037  49.552  49.251  1.00  0.00     0.121 A 
HETATM    6  C   UNL     1      21.696  49.474  49.572  1.00  0.00     0.071 A 
ENDROOT
BRANCH   5   7
HETATM    7  C   UNL     1      24.192  48.740  49.548  1.00  0.00     0.289 C 
HETATM    8  N   UNL     1      23.921  47.603  50.294  1.00  0.00    -0.242 N 
HETATM    9  H   UNL     1      22.975  47.397  50.585  1.00  0.00     0.192 HD
HETATM   10  O   UNL     1      25.307  49.052  49.139  1.00  0.00    -0.264 OA
BRANCH   8  11
HETATM   11  N   UNL     1      24.900  46.677  50.514  1.00  0.00    -0.184 NA
HETATM   12  C   UNL     1      25.365  46.630  51.720  1.00  0.00     0.150 C 
BRANCH  12  13
HETATM   13  C   UNL     1      26.387  45.640  52.118  1.00  0.00    -0.017 A 
HETATM   14  C   UNL     1      26.856  45.586  53.434  1.00  0.00     0.014 A 
HETATM   15  C   UNL     1      27.850  44.668  53.780  1.00  0.00     0.018 A 
HETATM   16  C   UNL     1      28.382  43.800  52.816  1.00  0.00     0.039 A 
HETATM   17  C   UNL     1      27.898  43.855  51.500  1.00  0.00     0.018 A 
HETATM   18  C   UNL     1      26.903  44.775  51.151  1.00  0.00     0.014 A 
BRANCH  16  19
HETATM   19  C   UNL     1      29.453  42.854  53.235  1.00  0.00     0.292 C 
HETATM   20  O   UNL     1      30.367  43.158  53.985  1.00  0.00    -0.259 OA
BRANCH  19  21
HETATM   21  O   UNL     1      29.269  41.638  52.660  1.00  0.00    -0.323 OA
HETATM   22  C   UNL     1      28.370  40.790  53.377  1.00  0.00     0.213 C 
ENDBRANCH  19  21
ENDBRANCH  16  19
ENDBRANCH  12  13
ENDBRANCH   8  11
ENDBRANCH   5   7
BRANCH   1  23
HETATM   23  C   UNL     1      19.635  50.878  48.856  1.00  0.00    -0.005 A 
HETATM   24  C   UNL     1      19.213  52.208  48.719  1.00  0.00     0.016 A 
HETATM   25  C   UNL     1      17.853  52.527  48.622  1.00  0.00     0.037 A 
HETATM   26  C   UNL     1      16.893  51.517  48.663  1.00  0.00     0.068 A 
HETATM   27  C   UNL     1      17.305  50.193  48.833  1.00  0.00     0.037 A 
HETATM   28  C   UNL     1      18.663  49.873  48.924  1.00  0.00     0.016 A 
BRANCH  26  29
HETATM   29  O   UNL     1      15.541  51.690  48.562  1.00  0.00    -0.351 OA
BRANCH  29  30
HETATM   30  C   UNL     1      15.038  52.994  48.853  1.00  0.00     0.175 C 
BRANCH  30  31
HETATM   31  C   UNL     1      14.425  52.957  50.249  1.00  0.00     0.022 C 
HETATM   32  C   UNL     1      14.985  54.050  51.141  1.00  0.00     0.007 C 
ENDBRANCH  30  31
ENDBRANCH  29  30
ENDBRANCH  26  29
ENDBRANCH   1  23
TORSDOF 9
ENDMDL
MODEL 5
REMARK VINA RESULT:      -7.5      3.590     12.803
REMARK  9 active torsions:
REMARK  status: ('A' for Active; 'I' for Inactive)
REMARK    1  A    between atoms: C_2  and  C_3 
REMARK    2  A    between atoms: C_3  and  O_4 
REMARK    3  A    between atoms: O_4  and  C_5 
REMARK    4  A    between atoms: C_8  and  C_9 
REMARK    5  A    between atoms: C_13  and  C_14 
REMARK       I    between atoms: C_14  and  N_15 
REMARK    6  A    between atoms: N_15  and  N_16 
REMARK    7  A    between atoms: C_17  and  C_18 
REMARK    8  A    between atoms: C_21  and  C_22 
REMARK    9  A    between atoms: C_22  and  O_23 
ROOT
HETATM    1  C   UNL     1      19.864  50.345  49.442  1.00  0.00     0.089 A 
HETATM    2  N   UNL     1      20.889  50.963  50.048  1.00  0.00    -0.174 NA
HETATM    3  N   UNL     1      21.920  50.117  49.917  1.00  0.00    -0.272 N 
HETATM    4  H   UNL     1      22.825  50.376  50.301  1.00  0.00     0.189 HD
HETATM    5  C   UNL     1      21.627  48.978  49.220  1.00  0.00     0.121 A 
HETATM    6  C   UNL     1      20.282  49.087  48.924  1.00  0.00     0.071 A 
ENDROOT
BRANCH   5   7
HETATM    7  C   UNL     1      22.645  47.999  48.928  1.00  0.00     0.289 C 
HETATM    8  N   UNL     1      23.539  47.771  49.963  1.00  0.00    -0.242 N 
HETATM    9  H   UNL     1      23.448  48.272  50.837  1.00  0.00     0.192 HD
HETATM   10  O   UNL     1      22.675  47.418  47.846  1.00  0.00    -0.264 OA
BRANCH   8  11
HETATM   11  N   UNL     1      24.457  46.764  49.869  1.00  0.00    -0.184 NA
HETATM   12  C   UNL     1      24.288  45.774  50.683  1.00  0.00     0.150 C 
BRANCH  12  13
HETATM   13  C   UNL     1      25.170  44.590  50.657  1.00  0.00    -0.017 A 
HETATM   14  C   UNL     1      24.634  43.299  50.615  1.00  0.00     0.014 A 
HETATM   15  C   UNL     1      25.486  42.192  50.628  1.00  0.00     0.018 A 
HETATM   16  C   UNL     1      26.876  42.366  50.685  1.00  0.00     0.039 A 
HETATM   17  C   UNL     1      27.405  43.666  50.718  1.00  0.00     0.018 A 
HETATM   18  C   UNL     1      26.553  44.776  50.705  1.00  0.00     0.014 A 
BRANCH  16  19
HETATM   19  C   UNL     1      27.737  41.152  50.717  1.00  0.00     0.292 C 
HETATM   20  O   UNL     1      28.557  40.929  51.593  1.00  0.00    -0.259 OA
BRANCH  19  21
HETATM   21  O   UNL     1      27.485  40.359  49.644  1.00  0.00    -0.323 OA
HETATM   22  C   UNL     1      28.573  40.269  48.723  1.00  0.00     0.213 C 
ENDBRANCH  19  21
ENDBRANCH  16  19
ENDBRANCH  12  13
ENDBRANCH   8  11
ENDBRANCH   5   7
BRANCH   1  23
HETATM   23  C   UNL     1      18.542  50.967  49.333  1.00  0.00    -0.005 A 
HETATM   24  C   UNL     1      17.496  50.297  48.684  1.00  0.00     0.016 A 
HETATM   25  C   UNL     1      16.212  50.854  48.621  1.00  0.00     0.037 A 
HETATM   26  C   UNL     1      15.958  52.093  49.206  1.00  0.00     0.068 A 
HETATM   27  C   UNL     1      17.004  52.782  49.825  1.00  0.00     0.037 A 
HETATM   28  C   UNL     1      18.285  52.224  49.894  1.00  0.00     0.016 A 
BRANCH  26  29
HETATM   29  O   UNL     1      14.752  52.737  49.232  1.00  0.00    -0.351 OA
BRANCH  29  30
HETATM   30  C   UNL     1      14.226  53.061  50.519  1.00  0.00     0.175 C 
BRANCH  30  31
HETATM   31  C   UNL     1      13.537  54.418  50.414  1.00  0.00     0.022 C 
HETATM   32  C   UNL     1      14.145  55.278  49.321  1.00  0.00     0.007 C 
ENDBRANCH  30  31
ENDBRANCH  29  30
ENDBRANCH  26  29
ENDBRANCH   1  23
TORSDOF 9
ENDMDL
MODEL 6
REMARK VINA RESULT:      -7.5      2.007      2.165
REMARK  9 active torsions:
REMARK  status: ('A' for Active; 'I' for Inactive)
REMARK    1  A    between atoms: C_2  and  C_3 
REMARK    2  A    between atoms: C_3  and  O_4 
REMARK    3  A    between atoms: O_4  and  C_5 
REMARK    4  A    between atoms: C_8  and  C_9 
REMARK    5  A    between atoms: C_13  and  C_14 
REMARK       I    between atoms: C_14  and  N_15 
REMARK    6  A    between atoms: N_15  and  N_16 
REMARK    7  A    between atoms: C_17  and  C_18 
REMARK    8  A    between atoms: C_21  and  C_22 
REMARK    9  A    between atoms: C_22  and  O_23 
ROOT
HETATM    1  C   UNL     1      26.528  44.188  50.928  1.00  0.00     0.089 A 
HETATM    2  N   UNL     1      26.950  43.753  49.731  1.00  0.00    -0.174 NA
HETATM    3  N   UNL     1      25.913  43.967  48.908  1.00  0.00    -0.272 N 
HETATM    4  H   UNL     1      25.999  43.715  47.928  1.00  0.00     0.189 HD
HETATM    5  C   UNL     1      24.834  44.556  49.507  1.00  0.00     0.121 A 
HETATM    6  C   UNL     1      25.197  44.684  50.833  1.00  0.00     0.071 A 
ENDROOT
BRANCH   5   7
HETATM    7  C   UNL     1      23.665  44.921  48.744  1.00  0.00     0.289 C 
HETATM    8  N   UNL     1      22.836  45.843  49.364  1.00  0.00    -0.242 N 
HETATM    9  H   UNL     1      23.070  46.207  50.278  1.00  0.00     0.192 HD
HETATM   10  O   UNL     1      23.463  44.447  47.629  1.00  0.00    -0.264 OA
BRANCH   8  11
HETATM   11  N   UNL     1      21.779  46.381  48.687  1.00  0.00    -0.184 NA
HETATM   12  C   UNL     1      21.812  47.663  48.523  1.00  0.00     0.150 C 
BRANCH  12  13
HETATM   13  C   UNL     1      20.765  48.374  47.762  1.00  0.00    -0.017 A 
HETATM   14  C   UNL     1      19.865  47.672  46.956  1.00  0.00     0.014 A 
HETATM   15  C   UNL     1      18.906  48.368  46.215  1.00  0.00     0.018 A 
HETATM   16  C   UNL     1      18.842  49.768  46.274  1.00  0.00     0.039 A 
HETATM   17  C   UNL     1      19.744  50.463  47.094  1.00  0.00     0.018 A 
HETATM   18  C   UNL     1      20.705  49.768  47.836  1.00  0.00     0.014 A 
BRANCH  16  19
HETATM   19  C   UNL     1      17.813  50.460  45.450  1.00  0.00     0.292 C 
HETATM   20  O   UNL     1      18.016  51.509  44.858  1.00  0.00    -0.259 OA
BRANCH  19  21
HETATM   21  O   UNL     1      16.643  49.772  45.468  1.00  0.00    -0.323 OA
HETATM   22  C   UNL     1      15.525  50.543  45.909  1.00  0.00     0.213 C 
ENDBRANCH  19  21
ENDBRANCH  16  19
ENDBRANCH  12  13
ENDBRANCH   8  11
ENDBRANCH   5   7
BRANCH   1  23
HETATM   23  C   UNL     1      27.395  44.162  52.109  1.00  0.00    -0.005 A 
HETATM   24  C   UNL     1      28.574  43.404  52.104  1.00  0.00     0.016 A 
HETATM   25  C   UNL     1      29.442  43.414  53.203  1.00  0.00     0.037 A 
HETATM   26  C   UNL     1      29.140  44.183  54.326  1.00  0.00     0.068 A 
HETATM   27  C   UNL     1      27.950  44.914  54.351  1.00  0.00     0.037 A 
HETATM   28  C   UNL     1      27.086  44.910  53.252  1.00  0.00     0.016 A 
BRANCH  26  29
HETATM   29  O   UNL     1      29.906  44.294  55.452  1.00  0.00    -0.351 OA
BRANCH  29  30
HETATM   30  C   UNL     1      30.567  43.110  55.899  1.00  0.00     0.175 C 
BRANCH  30  31
HETATM   31  C   UNL     1      31.635  43.521  56.907  1.00  0.00     0.022 C 
HETATM   32  C   UNL     1      31.111  44.541  57.902  1.00  0.00     0.007 C 
ENDBRANCH  30  31
ENDBRANCH  29  30
ENDBRANCH  26  29
ENDBRANCH   1  23
TORSDOF 9
ENDMDL
MODEL 7
REMARK VINA RESULT:      -7.4     20.144     22.077
REMARK  9 active torsions:
REMARK  status: ('A' for Active; 'I' for Inactive)
REMARK    1  A    between atoms: C_2  and  C_3 
REMARK    2  A    between atoms: C_3  and  O_4 
REMARK    3  A    between atoms: O_4  and  C_5 
REMARK    4  A    between atoms: C_8  and  C_9 
REMARK    5  A    between atoms: C_13  and  C_14 
REMARK       I    between atoms: C_14  and  N_15 
REMARK    6  A    between atoms: N_15  and  N_16 
REMARK    7  A    between atoms: C_17  and  C_18 
REMARK    8  A    between atoms: C_21  and  C_22 
REMARK    9  A    between atoms: C_22  and  O_23 
ROOT
HETATM    1  C   UNL     1      39.084  42.755  63.441  1.00  0.00     0.089 A 
HETATM    2  N   UNL     1      39.253  43.464  62.315  1.00  0.00    -0.174 NA
HETATM    3  N   UNL     1      38.613  44.620  62.543  1.00  0.00    -0.272 N 
HETATM    4  H   UNL     1      38.607  45.333  61.819  1.00  0.00     0.189 HD
HETATM    5  C   UNL     1      38.055  44.716  63.788  1.00  0.00     0.121 A 
HETATM    6  C   UNL     1      38.321  43.500  64.384  1.00  0.00     0.071 A 
ENDROOT
BRANCH   5   7
HETATM    7  C   UNL     1      37.394  45.925  64.216  1.00  0.00     0.289 C 
HETATM    8  N   UNL     1      38.181  46.772  64.982  1.00  0.00    -0.242 N 
HETATM    9  H   UNL     1      39.137  46.524  65.198  1.00  0.00     0.192 HD
HETATM   10  O   UNL     1      36.233  46.161  63.893  1.00  0.00    -0.264 OA
BRANCH   8  11
HETATM   11  N   UNL     1      37.724  48.012  65.324  1.00  0.00    -0.184 NA
HETATM   12  C   UNL     1      38.237  48.523  66.395  1.00  0.00     0.150 C 
BRANCH  12  13
HETATM   13  C   UNL     1      37.879  49.880  66.856  1.00  0.00    -0.017 A 
HETATM   14  C   UNL     1      38.057  50.988  66.023  1.00  0.00     0.014 A 
HETATM   15  C   UNL     1      37.747  52.267  66.491  1.00  0.00     0.018 A 
HETATM   16  C   UNL     1      37.258  52.447  67.793  1.00  0.00     0.039 A 
HETATM   17  C   UNL     1      37.073  51.327  68.619  1.00  0.00     0.018 A 
HETATM   18  C   UNL     1      37.384  50.046  68.151  1.00  0.00     0.014 A 
BRANCH  16  19
HETATM   19  C   UNL     1      36.962  53.833  68.248  1.00  0.00     0.292 C 
HETATM   20  O   UNL     1      37.033  54.812  67.521  1.00  0.00    -0.259 OA
BRANCH  19  21
HETATM   21  O   UNL     1      36.621  53.843  69.562  1.00  0.00    -0.323 OA
HETATM   22  C   UNL     1      35.322  54.378  69.818  1.00  0.00     0.213 C 
ENDBRANCH  19  21
ENDBRANCH  16  19
ENDBRANCH  12  13
ENDBRANCH   8  11
ENDBRANCH   5   7
BRANCH   1  23
HETATM   23  C   UNL     1      39.673  41.424  63.612  1.00  0.00    -0.005 A 
HETATM   24  C   UNL     1      40.563  41.174  64.666  1.00  0.00     0.016 A 
HETATM   25  C   UNL     1      41.090  39.894  64.877  1.00  0.00     0.037 A 
HETATM   26  C   UNL     1      40.735  38.844  64.032  1.00  0.00     0.068 A 
HETATM   27  C   UNL     1      39.875  39.094  62.960  1.00  0.00     0.037 A 
HETATM   28  C   UNL     1      39.344  40.370  62.752  1.00  0.00     0.016 A 
BRANCH  26  29
HETATM   29  O   UNL     1      41.162  37.550  64.137  1.00  0.00    -0.351 OA
BRANCH  29  30
HETATM   30  C   UNL     1      42.006  37.241  65.246  1.00  0.00     0.175 C 
BRANCH  30  31
HETATM   31  C   UNL     1      41.456  35.986  65.917  1.00  0.00     0.022 C 
HETATM   32  C   UNL     1      40.011  36.160  66.345  1.00  0.00     0.007 C 
ENDBRANCH  30  31
ENDBRANCH  29  30
ENDBRANCH  26  29
ENDBRANCH   1  23
TORSDOF 9
ENDMDL
MODEL 8
REMARK VINA RESULT:      -7.4      1.672     12.866
REMARK  9 active torsions:
REMARK  status: ('A' for Active; 'I' for Inactive)
REMARK    1  A    between atoms: C_2  and  C_3 
REMARK    2  A    between atoms: C_3  and  O_4 
REMARK    3  A    between atoms: O_4  and  C_5 
REMARK    4  A    between atoms: C_8  and  C_9 
REMARK    5  A    between atoms: C_13  and  C_14 
REMARK       I    between atoms: C_14  and  N_15 
REMARK    6  A    between atoms: N_15  and  N_16 
REMARK    7  A    between atoms: C_17  and  C_18 
REMARK    8  A    between atoms: C_21  and  C_22 
REMARK    9  A    between atoms: C_22  and  O_23 
ROOT
HETATM    1  C   UNL     1      20.974  48.164  48.213  1.00  0.00     0.089 A 
HETATM    2  N   UNL     1      21.106  47.014  47.533  1.00  0.00    -0.174 NA
HETATM    3  N   UNL     1      22.273  46.505  47.951  1.00  0.00    -0.272 N 
HETATM    4  H   UNL     1      22.590  45.617  47.572  1.00  0.00     0.189 HD
HETATM    5  C   UNL     1      22.904  47.257  48.904  1.00  0.00     0.121 A 
HETATM    6  C   UNL     1      22.093  48.361  49.071  1.00  0.00     0.071 A 
ENDROOT
BRANCH   5   7
HETATM    7  C   UNL     1      24.135  46.811  49.511  1.00  0.00     0.289 C 
HETATM    8  N   UNL     1      24.664  47.683  50.450  1.00  0.00    -0.242 N 
HETATM    9  H   UNL     1      24.191  48.551  50.664  1.00  0.00     0.192 HD
HETATM   10  O   UNL     1      24.635  45.730  49.209  1.00  0.00    -0.264 OA
BRANCH   8  11
HETATM   11  N   UNL     1      25.741  47.311  51.202  1.00  0.00    -0.184 NA
HETATM   12  C   UNL     1      25.513  47.143  52.464  1.00  0.00     0.150 C 
BRANCH  12  13
HETATM   13  C   UNL     1      26.571  46.688  53.389  1.00  0.00    -0.017 A 
HETATM   14  C   UNL     1      26.983  45.353  53.402  1.00  0.00     0.014 A 
HETATM   15  C   UNL     1      27.959  44.935  54.311  1.00  0.00     0.018 A 
HETATM   16  C   UNL     1      28.527  45.848  55.211  1.00  0.00     0.039 A 
HETATM   17  C   UNL     1      28.114  47.189  55.183  1.00  0.00     0.018 A 
HETATM   18  C   UNL     1      27.136  47.608  54.275  1.00  0.00     0.014 A 
BRANCH  16  19
HETATM   19  C   UNL     1      29.549  45.347  56.171  1.00  0.00     0.292 C 
HETATM   20  O   UNL     1      30.450  44.584  55.860  1.00  0.00    -0.259 OA
BRANCH  19  21
HETATM   21  O   UNL     1      29.323  45.844  57.413  1.00  0.00    -0.323 OA
HETATM   22  C   UNL     1      30.512  46.052  58.178  1.00  0.00     0.213 C 
ENDBRANCH  19  21
ENDBRANCH  16  19
ENDBRANCH  12  13
ENDBRANCH   8  11
ENDBRANCH   5   7
BRANCH   1  23
HETATM   23  C   UNL     1      19.792  49.017  48.066  1.00  0.00    -0.005 A 
HETATM   24  C   UNL     1      19.706  49.930  47.006  1.00  0.00     0.016 A 
HETATM   25  C   UNL     1      18.559  50.711  46.819  1.00  0.00     0.037 A 
HETATM   26  C   UNL     1      17.481  50.592  47.694  1.00  0.00     0.068 A 
HETATM   27  C   UNL     1      17.574  49.708  48.773  1.00  0.00     0.037 A 
HETATM   28  C   UNL     1      18.716  48.923  48.957  1.00  0.00     0.016 A 
BRANCH  26  29
HETATM   29  O   UNL     1      16.302  51.279  47.615  1.00  0.00    -0.351 OA
BRANCH  29  30
HETATM   30  C   UNL     1      16.135  52.138  46.486  1.00  0.00     0.175 C 
BRANCH  30  31
HETATM   31  C   UNL     1      15.049  51.537  45.599  1.00  0.00     0.022 C 
HETATM   32  C   UNL     1      15.636  50.803  44.406  1.00  0.00     0.007 C 
ENDBRANCH  30  31
ENDBRANCH  29  30
ENDBRANCH  26  29
ENDBRANCH   1  23
TORSDOF 9
ENDMDL
MODEL 9
REMARK VINA RESULT:      -7.3     14.954     15.732
REMARK  9 active torsions:
REMARK  status: ('A' for Active; 'I' for Inactive)
REMARK    1  A    between atoms: C_2  and  C_3 
REMARK    2  A    between atoms: C_3  and  O_4 
REMARK    3  A    between atoms: O_4  and  C_5 
REMARK    4  A    between atoms: C_8  and  C_9 
REMARK    5  A    between atoms: C_13  and  C_14 
REMARK       I    between atoms: C_14  and  N_15 
REMARK    6  A    between atoms: N_15  and  N_16 
REMARK    7  A    between atoms: C_17  and  C_18 
REMARK    8  A    between atoms: C_21  and  C_22 
REMARK    9  A    between atoms: C_22  and  O_23 
ROOT
HETATM    1  C   UNL     1      38.797  53.575  45.881  1.00  0.00     0.089 A 
HETATM    2  N   UNL     1      38.332  52.407  46.350  1.00  0.00    -0.174 NA
HETATM    3  N   UNL     1      37.334  52.080  45.517  1.00  0.00    -0.272 N 
HETATM    4  H   UNL     1      36.823  51.216  45.671  1.00  0.00     0.189 HD
HETATM    5  C   UNL     1      37.141  52.970  44.496  1.00  0.00     0.121 A 
HETATM    6  C   UNL     1      38.063  53.971  44.728  1.00  0.00     0.071 A 
ENDROOT
BRANCH   5   7
HETATM    7  C   UNL     1      36.154  52.727  43.472  1.00  0.00     0.289 C 
HETATM    8  N   UNL     1      35.032  52.037  43.905  1.00  0.00    -0.242 N 
HETATM    9  H   UNL     1      34.952  51.747  44.870  1.00  0.00     0.192 HD
HETATM   10  O   UNL     1      36.319  53.131  42.325  1.00  0.00    -0.264 OA
BRANCH   8  11
HETATM   11  N   UNL     1      33.962  51.874  43.072  1.00  0.00    -0.184 NA
HETATM   12  C   UNL     1      32.844  51.575  43.649  1.00  0.00     0.150 C 
BRANCH  12  13
HETATM   13  C   UNL     1      31.592  51.424  42.880  1.00  0.00    -0.017 A 
HETATM   14  C   UNL     1      31.198  50.175  42.393  1.00  0.00     0.014 A 
HETATM   15  C   UNL     1      30.029  50.060  41.636  1.00  0.00     0.018 A 
HETATM   16  C   UNL     1      29.249  51.192  41.360  1.00  0.00     0.039 A 
HETATM   17  C   UNL     1      29.648  52.441  41.861  1.00  0.00     0.018 A 
HETATM   18  C   UNL     1      30.818  52.557  42.619  1.00  0.00     0.014 A 
BRANCH  16  19
HETATM   19  C   UNL     1      28.023  51.017  40.533  1.00  0.00     0.292 C 
HETATM   20  O   UNL     1      27.212  50.122  40.710  1.00  0.00    -0.259 OA
BRANCH  19  21
HETATM   21  O   UNL     1      27.955  51.972  39.571  1.00  0.00    -0.323 OA
HETATM   22  C   UNL     1      28.659  51.639  38.374  1.00  0.00     0.213 C 
ENDBRANCH  19  21
ENDBRANCH  16  19
ENDBRANCH  12  13
ENDBRANCH   8  11
ENDBRANCH   5   7
BRANCH   1  23
HETATM   23  C   UNL     1      39.934  54.259  46.502  1.00  0.00    -0.005 A 
HETATM   24  C   UNL     1      40.595  53.684  47.596  1.00  0.00     0.016 A 
HETATM   25  C   UNL     1      41.718  54.297  48.165  1.00  0.00     0.037 A 
HETATM   26  C   UNL     1      42.195  55.500  47.647  1.00  0.00     0.068 A 
HETATM   27  C   UNL     1      41.522  56.096  46.578  1.00  0.00     0.037 A 
HETATM   28  C   UNL     1      40.404  55.481  46.006  1.00  0.00     0.016 A 
BRANCH  26  29
HETATM   29  O   UNL     1      43.286  56.190  48.095  1.00  0.00    -0.351 OA
BRANCH  29  30
HETATM   30  C   UNL     1      44.511  55.982  47.390  1.00  0.00     0.175 C 
BRANCH  30  31
HETATM   31  C   UNL     1      45.514  55.375  48.366  1.00  0.00     0.022 C 
HETATM   32  C   UNL     1      45.513  53.858  48.308  1.00  0.00     0.007 C 
ENDBRANCH  30  31
ENDBRANCH  29  30
ENDBRANCH  26  29
ENDBRANCH   1  23
TORSDOF 9
ENDMDL
MODEL 10
REMARK VINA RESULT:      -7.3      9.250     13.344
REMARK  9 active torsions:
REMARK  status: ('A' for Active; 'I' for Inactive)
REMARK    1  A    between atoms: C_2  and  C_3 
REMARK    2  A    between atoms: C_3  and  O_4 
REMARK    3  A    between atoms: O_4  and  C_5 
REMARK    4  A    between atoms: C_8  and  C_9 
REMARK    5  A    between atoms: C_13  and  C_14 
REMARK       I    between atoms: C_14  and  N_15 
REMARK    6  A    between atoms: N_15  and  N_16 
REMARK    7  A    between atoms: C_17  and  C_18 
REMARK    8  A    between atoms: C_21  and  C_22 
REMARK    9  A    between atoms: C_22  and  O_23 
ROOT
HETATM    1  C   UNL     1      27.691  38.216  47.487  1.00  0.00     0.089 A 
HETATM    2  N   UNL     1      26.792  37.445  48.119  1.00  0.00    -0.174 NA
HETATM    3  N   UNL     1      26.522  38.102  49.256  1.00  0.00    -0.272 N 
HETATM    4  H   UNL     1      25.852  37.706  49.909  1.00  0.00     0.189 HD
HETATM    5  C   UNL     1      27.181  39.293  49.386  1.00  0.00     0.121 A 
HETATM    6  C   UNL     1      27.974  39.377  48.259  1.00  0.00     0.071 A 
ENDROOT
BRANCH   5   7
HETATM    7  C   UNL     1      26.945  40.156  50.518  1.00  0.00     0.289 C 
HETATM    8  N   UNL     1      28.023  40.284  51.380  1.00  0.00    -0.242 N 
HETATM    9  H   UNL     1      28.888  39.795  51.193  1.00  0.00     0.192 HD
HETATM   10  O   UNL     1      25.869  40.730  50.663  1.00  0.00    -0.264 OA
BRANCH   8  11
HETATM   11  N   UNL     1      27.980  41.185  52.405  1.00  0.00    -0.184 NA
HETATM   12  C   UNL     1      29.042  41.906  52.564  1.00  0.00     0.150 C 
BRANCH  12  13
HETATM   13  C   UNL     1      29.117  42.959  53.596  1.00  0.00    -0.017 A 
HETATM   14  C   UNL     1      30.256  43.100  54.392  1.00  0.00     0.014 A 
HETATM   15  C   UNL     1      30.292  44.080  55.389  1.00  0.00     0.018 A 
HETATM   16  C   UNL     1      29.190  44.922  55.595  1.00  0.00     0.039 A 
HETATM   17  C   UNL     1      28.054  44.779  54.784  1.00  0.00     0.018 A 
HETATM   18  C   UNL     1      28.016  43.798  53.787  1.00  0.00     0.014 A 
BRANCH  16  19
HETATM   19  C   UNL     1      29.273  45.935  56.683  1.00  0.00     0.292 C 
HETATM   20  O   UNL     1      28.329  46.623  57.039  1.00  0.00    -0.259 OA
BRANCH  19  21
HETATM   21  O   UNL     1      30.529  45.986  57.194  1.00  0.00    -0.323 OA
HETATM   22  C   UNL     1      30.626  45.509  58.538  1.00  0.00     0.213 C 
ENDBRANCH  19  21
ENDBRANCH  16  19
ENDBRANCH  12  13
ENDBRANCH   8  11
ENDBRANCH   5   7
BRANCH   1  23
HETATM   23  C   UNL     1      28.221  37.861  46.168  1.00  0.00    -0.005 A 
HETATM   24  C   UNL     1      28.848  36.624  45.967  1.00  0.00     0.016 A 
HETATM   25  C   UNL     1      29.310  36.246  44.700  1.00  0.00     0.037 A 
HETATM   26  C   UNL     1      29.152  37.106  43.614  1.00  0.00     0.068 A 
HETATM   27  C   UNL     1      28.559  38.354  43.814  1.00  0.00     0.037 A 
HETATM   28  C   UNL     1      28.092  38.730  45.078  1.00  0.00     0.016 A 
BRANCH  26  29
HETATM   29  O   UNL     1      29.540  36.854  42.328  1.00  0.00    -0.351 OA
BRANCH  29  30
HETATM   30  C   UNL     1      29.476  37.948  41.413  1.00  0.00     0.175 C 
BRANCH  30  31
HETATM   31  C   UNL     1      30.890  38.218  40.908  1.00  0.00     0.022 C 
HETATM   32  C   UNL     1      31.692  39.053  41.889  1.00  0.00     0.007 C 
ENDBRANCH  30  31
ENDBRANCH  29  30
ENDBRANCH  26  29
ENDBRANCH   1  23
TORSDOF 9
ENDMDL
