MODEL 1
REMARK VINA RESULT:      -9.9      0.000      0.000
REMARK  8 active torsions:
REMARK  status: ('A' for Active; 'I' for Inactive)
REMARK    1  A    between atoms: C_4  and  C_5 
REMARK    2  A    between atoms: C_5  and  N_6 
REMARK    3  A    between atoms: C_8  and  N_9 
REMARK       I    between atoms: N_9  and  C_10 
REMARK       I    between atoms: C_10  and  N_11 
REMARK    4  A    between atoms: N_11  and  C_12 
REMARK    5  A    between atoms: C_12  and  C_13 
REMARK    6  A    between atoms: C_13  and  N_14 
REMARK       I    between atoms: N_14  and  C_15 
REMARK    7  A    between atoms: C_15  and  C_16 
REMARK    8  A    between atoms: C_17  and  O_18 
ROOT
HETATM    1  N   UNL     1      25.475  43.280  52.365  1.00  0.00    -0.292 N 
HETATM    2  C   UNL     1      24.637  43.895  51.486  1.00  0.00     0.321 C 
HETATM    3  N   UNL     1      24.946  45.166  51.114  1.00  0.00    -0.341 N 
HETATM    4  O   UNL     1      23.633  43.306  51.087  1.00  0.00    -0.247 OA
HETATM    5  H   UNL     1      25.167  42.364  52.652  1.00  0.00     0.172 HD
HETATM    6  H   UNL     1      25.868  45.490  51.400  1.00  0.00     0.164 HD
ENDROOT
BRANCH   1   7
HETATM    7  C   UNL     1      26.677  43.728  52.865  1.00  0.00     0.153 A 
HETATM    8  N   UNL     1      26.807  44.650  53.826  1.00  0.00    -0.154 NA
HETATM    9  N   UNL     1      28.142  44.781  53.984  1.00  0.00    -0.275 N 
HETATM   10  C   UNL     1      28.863  43.982  53.143  1.00  0.00     0.116 A 
HETATM   11  C   UNL     1      27.938  43.285  52.405  1.00  0.00     0.071 A 
BRANCH   9  12
HETATM   12  C   UNL     1      28.675  45.764  54.919  1.00  0.00     0.189 C 
BRANCH  12  13
HETATM   13  C   UNL     1      29.659  45.153  55.886  1.00  0.00    -0.038 A 
HETATM   14  C   UNL     1      29.858  45.719  57.155  1.00  0.00     0.009 A 
HETATM   15  C   UNL     1      30.749  45.136  58.058  1.00  0.00     0.001 A 
HETATM   16  C   UNL     1      31.447  43.983  57.705  1.00  0.00     0.000 A 
HETATM   17  C   UNL     1      31.258  43.411  56.450  1.00  0.00     0.001 A 
HETATM   18  C   UNL     1      30.366  43.990  55.545  1.00  0.00     0.009 A 
ENDBRANCH  12  13
ENDBRANCH   9  12
ENDBRANCH   1   7
BRANCH   3  19
HETATM   19  C   UNL     1      24.199  45.891  50.110  1.00  0.00     0.144 C 
BRANCH  19  20
HETATM   20  C   UNL     1      24.479  47.399  50.122  1.00  0.00     0.142 C 
BRANCH  20  21
HETATM   21  N   UNL     1      23.277  48.185  49.904  1.00  0.00    -0.355 N 
HETATM   22  C   UNL     1      23.326  49.449  49.358  1.00  0.00     0.254 C 
HETATM   23  O   UNL     1      24.377  50.006  49.052  1.00  0.00    -0.268 OA
HETATM   24  H   UNL     1      22.402  47.682  49.938  1.00  0.00     0.162 HD
BRANCH  22  25
HETATM   25  C   UNL     1      22.029  50.134  49.082  1.00  0.00     0.065 A 
HETATM   26  C   UNL     1      21.396  50.854  50.109  1.00  0.00     0.081 A 
HETATM   27  C   UNL     1      20.199  51.528  49.873  1.00  0.00     0.037 A 
HETATM   28  C   UNL     1      19.608  51.479  48.613  1.00  0.00     0.003 A 
HETATM   29  C   UNL     1      20.209  50.747  47.590  1.00  0.00     0.001 A 
HETATM   30  C   UNL     1      21.412  50.073  47.822  1.00  0.00     0.020 A 
BRANCH  26  31
HETATM   31  O   UNL     1      21.895  50.942  51.382  1.00  0.00    -0.360 OA
HETATM   32  H   UNL     1      22.255  50.059  51.623  1.00  0.00     0.217 HD
ENDBRANCH  26  31
ENDBRANCH  22  25
ENDBRANCH  20  21
ENDBRANCH  19  20
ENDBRANCH   3  19
TORSDOF 8
ENDMDL
MODEL 2
REMARK VINA RESULT:      -9.9      4.319      5.307
REMARK  8 active torsions:
REMARK  status: ('A' for Active; 'I' for Inactive)
REMARK    1  A    between atoms: C_4  and  C_5 
REMARK    2  A    between atoms: C_5  and  N_6 
REMARK    3  A    between atoms: C_8  and  N_9 
REMARK       I    between atoms: N_9  and  C_10 
REMARK       I    between atoms: C_10  and  N_11 
REMARK    4  A    between atoms: N_11  and  C_12 
REMARK    5  A    between atoms: C_12  and  C_13 
REMARK    6  A    between atoms: C_13  and  N_14 
REMARK       I    between atoms: N_14  and  C_15 
REMARK    7  A    between atoms: C_15  and  C_16 
REMARK    8  A    between atoms: C_17  and  O_18 
ROOT
HETATM    1  N   UNL     1      28.812  40.664  51.261  1.00  0.00    -0.292 N 
HETATM    2  C   UNL     1      28.129  40.646  50.084  1.00  0.00     0.321 C 
HETATM    3  N   UNL     1      27.074  41.496  49.962  1.00  0.00    -0.341 N 
HETATM    4  O   UNL     1      28.461  39.861  49.197  1.00  0.00    -0.247 OA
HETATM    5  H   UNL     1      29.546  39.974  51.318  1.00  0.00     0.172 HD
HETATM    6  H   UNL     1      26.986  42.188  50.705  1.00  0.00     0.164 HD
ENDROOT
BRANCH   1   7
HETATM    7  C   UNL     1      28.654  41.508  52.336  1.00  0.00     0.153 A 
HETATM    8  N   UNL     1      29.151  42.748  52.412  1.00  0.00    -0.154 NA
HETATM    9  N   UNL     1      28.765  43.189  53.628  1.00  0.00    -0.275 N 
HETATM   10  C   UNL     1      28.051  42.262  54.333  1.00  0.00     0.116 A 
HETATM   11  C   UNL     1      27.961  41.160  53.518  1.00  0.00     0.071 A 
BRANCH   9  12
HETATM   12  C   UNL     1      29.186  44.503  54.099  1.00  0.00     0.189 C 
BRANCH  12  13
HETATM   13  C   UNL     1      29.911  44.427  55.419  1.00  0.00    -0.038 A 
HETATM   14  C   UNL     1      30.823  43.392  55.675  1.00  0.00     0.009 A 
HETATM   15  C   UNL     1      31.512  43.338  56.887  1.00  0.00     0.001 A 
HETATM   16  C   UNL     1      31.301  44.318  57.855  1.00  0.00     0.000 A 
HETATM   17  C   UNL     1      30.400  45.352  57.615  1.00  0.00     0.001 A 
HETATM   18  C   UNL     1      29.710  45.410  56.402  1.00  0.00     0.009 A 
ENDBRANCH  12  13
ENDBRANCH   9  12
ENDBRANCH   1   7
BRANCH   3  19
HETATM   19  C   UNL     1      26.332  41.652  48.731  1.00  0.00     0.144 C 
BRANCH  19  20
HETATM   20  C   UNL     1      25.174  42.652  48.848  1.00  0.00     0.142 C 
BRANCH  20  21
HETATM   21  N   UNL     1      25.474  43.738  49.767  1.00  0.00    -0.355 N 
HETATM   22  C   UNL     1      24.819  43.868  50.972  1.00  0.00     0.254 C 
HETATM   23  O   UNL     1      23.926  43.106  51.335  1.00  0.00    -0.268 OA
HETATM   24  H   UNL     1      26.334  44.239  49.601  1.00  0.00     0.162 HD
BRANCH  22  25
HETATM   25  C   UNL     1      25.267  44.957  51.888  1.00  0.00     0.065 A 
HETATM   26  C   UNL     1      25.276  44.732  53.275  1.00  0.00     0.081 A 
HETATM   27  C   UNL     1      25.715  45.720  54.155  1.00  0.00     0.037 A 
HETATM   28  C   UNL     1      26.138  46.953  53.663  1.00  0.00     0.003 A 
HETATM   29  C   UNL     1      26.111  47.202  52.292  1.00  0.00     0.001 A 
HETATM   30  C   UNL     1      25.673  46.211  51.406  1.00  0.00     0.020 A 
BRANCH  26  31
HETATM   31  O   UNL     1      24.862  43.558  53.848  1.00  0.00    -0.360 OA
HETATM   32  H   UNL     1      23.932  43.683  54.146  1.00  0.00     0.217 HD
ENDBRANCH  26  31
ENDBRANCH  22  25
ENDBRANCH  20  21
ENDBRANCH  19  20
ENDBRANCH   3  19
TORSDOF 8
ENDMDL
MODEL 3
REMARK VINA RESULT:      -9.9      2.036      2.573
REMARK  8 active torsions:
REMARK  status: ('A' for Active; 'I' for Inactive)
REMARK    1  A    between atoms: C_4  and  C_5 
REMARK    2  A    between atoms: C_5  and  N_6 
REMARK    3  A    between atoms: C_8  and  N_9 
REMARK       I    between atoms: N_9  and  C_10 
REMARK       I    between atoms: C_10  and  N_11 
REMARK    4  A    between atoms: N_11  and  C_12 
REMARK    5  A    between atoms: C_12  and  C_13 
REMARK    6  A    between atoms: C_13  and  N_14 
REMARK       I    between atoms: N_14  and  C_15 
REMARK    7  A    between atoms: C_15  and  C_16 
REMARK    8  A    between atoms: C_17  and  O_18 
ROOT
HETATM    1  N   UNL     1      27.513  45.505  49.847  1.00  0.00    -0.292 N 
HETATM    2  C   UNL     1      26.711  46.588  49.650  1.00  0.00     0.321 C 
HETATM    3  N   UNL     1      25.517  46.606  50.301  1.00  0.00    -0.341 N 
HETATM    4  O   UNL     1      27.070  47.482  48.886  1.00  0.00    -0.247 OA
HETATM    5  H   UNL     1      28.357  45.516  49.296  1.00  0.00     0.172 HD
HETATM    6  H   UNL     1      25.396  45.881  51.007  1.00  0.00     0.164 HD
ENDROOT
BRANCH   1   7
HETATM    7  C   UNL     1      27.335  44.448  50.710  1.00  0.00     0.153 A 
HETATM    8  N   UNL     1      27.387  44.535  52.044  1.00  0.00    -0.154 NA
HETATM    9  N   UNL     1      27.171  43.271  52.469  1.00  0.00    -0.275 N 
HETATM   10  C   UNL     1      26.999  42.383  51.447  1.00  0.00     0.116 A 
HETATM   11  C   UNL     1      27.098  43.118  50.291  1.00  0.00     0.071 A 
BRANCH   9  12
HETATM   12  C   UNL     1      27.221  42.959  53.893  1.00  0.00     0.189 C 
BRANCH  12  13
HETATM   13  C   UNL     1      28.438  43.551  54.560  1.00  0.00    -0.038 A 
HETATM   14  C   UNL     1      28.371  44.805  55.185  1.00  0.00     0.009 A 
HETATM   15  C   UNL     1      29.490  45.339  55.825  1.00  0.00     0.001 A 
HETATM   16  C   UNL     1      30.687  44.626  55.850  1.00  0.00     0.000 A 
HETATM   17  C   UNL     1      30.768  43.379  55.234  1.00  0.00     0.001 A 
HETATM   18  C   UNL     1      29.649  42.841  54.595  1.00  0.00     0.009 A 
ENDBRANCH  12  13
ENDBRANCH   9  12
ENDBRANCH   1   7
BRANCH   3  19
HETATM   19  C   UNL     1      24.621  47.740  50.262  1.00  0.00     0.144 C 
BRANCH  19  20
HETATM   20  C   UNL     1      23.403  47.516  49.356  1.00  0.00     0.142 C 
BRANCH  20  21
HETATM   21  N   UNL     1      22.353  48.492  49.593  1.00  0.00    -0.355 N 
HETATM   22  C   UNL     1      21.783  49.209  48.564  1.00  0.00     0.254 C 
HETATM   23  O   UNL     1      22.140  49.098  47.393  1.00  0.00    -0.268 OA
HETATM   24  H   UNL     1      21.896  48.446  50.492  1.00  0.00     0.162 HD
BRANCH  22  25
HETATM   25  C   UNL     1      20.645  50.113  48.898  1.00  0.00     0.065 A 
HETATM   26  C   UNL     1      19.647  49.671  49.782  1.00  0.00     0.081 A 
HETATM   27  C   UNL     1      18.586  50.503  50.135  1.00  0.00     0.037 A 
HETATM   28  C   UNL     1      18.497  51.785  49.596  1.00  0.00     0.003 A 
HETATM   29  C   UNL     1      19.464  52.230  48.696  1.00  0.00     0.001 A 
HETATM   30  C   UNL     1      20.532  51.398  48.343  1.00  0.00     0.020 A 
BRANCH  26  31
HETATM   31  O   UNL     1      19.644  48.421  50.346  1.00  0.00    -0.360 OA
HETATM   32  H   UNL     1      20.528  48.021  50.187  1.00  0.00     0.217 HD
ENDBRANCH  26  31
ENDBRANCH  22  25
ENDBRANCH  20  21
ENDBRANCH  19  20
ENDBRANCH   3  19
TORSDOF 8
ENDMDL
MODEL 4
REMARK VINA RESULT:      -9.6      1.652      2.353
REMARK  8 active torsions:
REMARK  status: ('A' for Active; 'I' for Inactive)
REMARK    1  A    between atoms: C_4  and  C_5 
REMARK    2  A    between atoms: C_5  and  N_6 
REMARK    3  A    between atoms: C_8  and  N_9 
REMARK       I    between atoms: N_9  and  C_10 
REMARK       I    between atoms: C_10  and  N_11 
REMARK    4  A    between atoms: N_11  and  C_12 
REMARK    5  A    between atoms: C_12  and  C_13 
REMARK    6  A    between atoms: C_13  and  N_14 
REMARK       I    between atoms: N_14  and  C_15 
REMARK    7  A    between atoms: C_15  and  C_16 
REMARK    8  A    between atoms: C_17  and  O_18 
ROOT
HETATM    1  N   UNL     1      23.940  43.315  50.715  1.00  0.00    -0.292 N 
HETATM    2  C   UNL     1      23.088  43.983  49.889  1.00  0.00     0.321 C 
HETATM    3  N   UNL     1      23.242  45.330  49.791  1.00  0.00    -0.341 N 
HETATM    4  O   UNL     1      22.208  43.365  49.292  1.00  0.00    -0.247 OA
HETATM    5  H   UNL     1      23.743  42.329  50.795  1.00  0.00     0.172 HD
HETATM    6  H   UNL     1      24.087  45.703  50.221  1.00  0.00     0.164 HD
ENDROOT
BRANCH   1   7
HETATM    7  C   UNL     1      25.028  43.801  51.404  1.00  0.00     0.153 A 
HETATM    8  N   UNL     1      25.046  44.064  52.716  1.00  0.00    -0.154 NA
HETATM    9  N   UNL     1      26.294  44.524  52.947  1.00  0.00    -0.275 N 
HETATM   10  C   UNL     1      27.064  44.575  51.821  1.00  0.00     0.116 A 
HETATM   11  C   UNL     1      26.270  44.110  50.802  1.00  0.00     0.071 A 
BRANCH   9  12
HETATM   12  C   UNL     1      26.670  44.982  54.279  1.00  0.00     0.189 C 
BRANCH  12  13
HETATM   13  C   UNL     1      28.035  44.484  54.686  1.00  0.00    -0.038 A 
HETATM   14  C   UNL     1      28.483  43.218  54.280  1.00  0.00     0.009 A 
HETATM   15  C   UNL     1      29.756  42.770  54.635  1.00  0.00     0.001 A 
HETATM   16  C   UNL     1      30.595  43.580  55.396  1.00  0.00     0.000 A 
HETATM   17  C   UNL     1      30.164  44.840  55.806  1.00  0.00     0.001 A 
HETATM   18  C   UNL     1      28.891  45.292  55.451  1.00  0.00     0.009 A 
ENDBRANCH  12  13
ENDBRANCH   9  12
ENDBRANCH   1   7
BRANCH   3  19
HETATM   19  C   UNL     1      22.475  46.141  48.872  1.00  0.00     0.144 C 
BRANCH  19  20
HETATM   20  C   UNL     1      22.834  47.631  48.937  1.00  0.00     0.142 C 
BRANCH  20  21
HETATM   21  N   UNL     1      21.656  48.481  48.973  1.00  0.00    -0.355 N 
HETATM   22  C   UNL     1      21.714  49.781  49.426  1.00  0.00     0.254 C 
HETATM   23  O   UNL     1      22.743  50.296  49.855  1.00  0.00    -0.268 OA
HETATM   24  H   UNL     1      20.863  48.167  48.433  1.00  0.00     0.162 HD
BRANCH  22  25
HETATM   25  C   UNL     1      20.472  50.603  49.330  1.00  0.00     0.065 A 
HETATM   26  C   UNL     1      19.358  50.265  50.116  1.00  0.00     0.081 A 
HETATM   27  C   UNL     1      18.194  51.031  50.069  1.00  0.00     0.037 A 
HETATM   28  C   UNL     1      18.120  52.135  49.223  1.00  0.00     0.003 A 
HETATM   29  C   UNL     1      19.207  52.468  48.416  1.00  0.00     0.001 A 
HETATM   30  C   UNL     1      20.377  51.703  48.464  1.00  0.00     0.020 A 
BRANCH  26  31
HETATM   31  O   UNL     1      19.335  49.188  50.962  1.00  0.00    -0.360 OA
HETATM   32  H   UNL     1      18.632  49.349  51.631  1.00  0.00     0.217 HD
ENDBRANCH  26  31
ENDBRANCH  22  25
ENDBRANCH  20  21
ENDBRANCH  19  20
ENDBRANCH   3  19
TORSDOF 8
ENDMDL
MODEL 5
REMARK VINA RESULT:      -9.6      2.618      4.264
REMARK  8 active torsions:
REMARK  status: ('A' for Active; 'I' for Inactive)
REMARK    1  A    between atoms: C_4  and  C_5 
REMARK    2  A    between atoms: C_5  and  N_6 
REMARK    3  A    between atoms: C_8  and  N_9 
REMARK       I    between atoms: N_9  and  C_10 
REMARK       I    between atoms: C_10  and  N_11 
REMARK    4  A    between atoms: N_11  and  C_12 
REMARK    5  A    between atoms: C_12  and  C_13 
REMARK    6  A    between atoms: C_13  and  N_14 
REMARK       I    between atoms: N_14  and  C_15 
REMARK    7  A    between atoms: C_15  and  C_16 
REMARK    8  A    between atoms: C_17  and  O_18 
ROOT
HETATM    1  N   UNL     1      26.990  48.546  49.188  1.00  0.00    -0.292 N 
HETATM    2  C   UNL     1      26.193  49.419  48.512  1.00  0.00     0.321 C 
HETATM    3  N   UNL     1      24.852  49.207  48.563  1.00  0.00    -0.341 N 
HETATM    4  O   UNL     1      26.702  50.335  47.867  1.00  0.00    -0.247 OA
HETATM    5  H   UNL     1      27.977  48.716  49.067  1.00  0.00     0.172 HD
HETATM    6  H   UNL     1      24.548  48.506  49.238  1.00  0.00     0.164 HD
ENDROOT
BRANCH   1   7
HETATM    7  C   UNL     1      26.623  47.516  50.023  1.00  0.00     0.153 A 
HETATM    8  N   UNL     1      26.269  47.661  51.305  1.00  0.00    -0.154 NA
HETATM    9  N   UNL     1      26.008  46.404  51.723  1.00  0.00    -0.275 N 
HETATM   10  C   UNL     1      26.200  45.464  50.752  1.00  0.00     0.116 A 
HETATM   11  C   UNL     1      26.599  46.156  49.635  1.00  0.00     0.071 A 
BRANCH   9  12
HETATM   12  C   UNL     1      25.648  46.156  53.115  1.00  0.00     0.189 C 
BRANCH  12  13
HETATM   13  C   UNL     1      26.859  45.900  53.977  1.00  0.00    -0.038 A 
HETATM   14  C   UNL     1      27.460  44.632  54.007  1.00  0.00     0.009 A 
HETATM   15  C   UNL     1      28.596  44.405  54.784  1.00  0.00     0.001 A 
HETATM   16  C   UNL     1      29.146  45.440  55.538  1.00  0.00     0.000 A 
HETATM   17  C   UNL     1      28.561  46.704  55.517  1.00  0.00     0.001 A 
HETATM   18  C   UNL     1      27.425  46.935  54.738  1.00  0.00     0.009 A 
ENDBRANCH  12  13
ENDBRANCH   9  12
ENDBRANCH   1   7
BRANCH   3  19
HETATM   19  C   UNL     1      23.892  50.117  47.979  1.00  0.00     0.144 C 
BRANCH  19  20
HETATM   20  C   UNL     1      23.160  50.972  49.021  1.00  0.00     0.142 C 
BRANCH  20  21
HETATM   21  N   UNL     1      21.747  51.124  48.715  1.00  0.00    -0.355 N 
HETATM   22  C   UNL     1      20.790  51.151  49.705  1.00  0.00     0.254 C 
HETATM   23  O   UNL     1      21.055  51.017  50.898  1.00  0.00    -0.268 OA
HETATM   24  H   UNL     1      21.524  51.450  47.786  1.00  0.00     0.162 HD
BRANCH  22  25
HETATM   25  C   UNL     1      19.378  51.410  49.297  1.00  0.00     0.065 A 
HETATM   26  C   UNL     1      18.334  50.750  49.963  1.00  0.00     0.081 A 
HETATM   27  C   UNL     1      17.003  50.993  49.623  1.00  0.00     0.037 A 
HETATM   28  C   UNL     1      16.699  51.888  48.600  1.00  0.00     0.003 A 
HETATM   29  C   UNL     1      17.725  52.532  47.910  1.00  0.00     0.001 A 
HETATM   30  C   UNL     1      19.060  52.292  48.251  1.00  0.00     0.020 A 
BRANCH  26  31
HETATM   31  O   UNL     1      18.540  49.842  50.969  1.00  0.00    -0.360 OA
HETATM   32  H   UNL     1      19.101  49.119  50.607  1.00  0.00     0.217 HD
ENDBRANCH  26  31
ENDBRANCH  22  25
ENDBRANCH  20  21
ENDBRANCH  19  20
ENDBRANCH   3  19
TORSDOF 8
ENDMDL
MODEL 6
REMARK VINA RESULT:      -9.5      2.395     10.704
REMARK  8 active torsions:
REMARK  status: ('A' for Active; 'I' for Inactive)
REMARK    1  A    between atoms: C_4  and  C_5 
REMARK    2  A    between atoms: C_5  and  N_6 
REMARK    3  A    between atoms: C_8  and  N_9 
REMARK       I    between atoms: N_9  and  C_10 
REMARK       I    between atoms: C_10  and  N_11 
REMARK    4  A    between atoms: N_11  and  C_12 
REMARK    5  A    between atoms: C_12  and  C_13 
REMARK    6  A    between atoms: C_13  and  N_14 
REMARK       I    between atoms: N_14  and  C_15 
REMARK    7  A    between atoms: C_15  and  C_16 
REMARK    8  A    between atoms: C_17  and  O_18 
ROOT
HETATM    1  N   UNL     1      25.730  48.382  49.245  1.00  0.00    -0.292 N 
HETATM    2  C   UNL     1      25.721  47.046  49.506  1.00  0.00     0.321 C 
HETATM    3  N   UNL     1      24.510  46.454  49.683  1.00  0.00    -0.341 N 
HETATM    4  O   UNL     1      26.784  46.435  49.600  1.00  0.00    -0.247 OA
HETATM    5  H   UNL     1      26.655  48.779  49.182  1.00  0.00     0.172 HD
HETATM    6  H   UNL     1      23.704  47.031  49.445  1.00  0.00     0.164 HD
ENDROOT
BRANCH   1   7
HETATM    7  C   UNL     1      24.664  49.224  49.026  1.00  0.00     0.153 A 
HETATM    8  N   UNL     1      23.604  49.339  49.833  1.00  0.00    -0.154 NA
HETATM    9  N   UNL     1      22.820  50.256  49.226  1.00  0.00    -0.275 N 
HETATM   10  C   UNL     1      23.342  50.715  48.051  1.00  0.00     0.116 A 
HETATM   11  C   UNL     1      24.542  50.064  47.895  1.00  0.00     0.071 A 
BRANCH   9  12
HETATM   12  C   UNL     1      21.520  50.597  49.792  1.00  0.00     0.189 C 
BRANCH  12  13
HETATM   13  C   UNL     1      20.477  50.818  48.726  1.00  0.00    -0.038 A 
HETATM   14  C   UNL     1      20.203  49.820  47.778  1.00  0.00     0.009 A 
HETATM   15  C   UNL     1      19.219  50.015  46.808  1.00  0.00     0.001 A 
HETATM   16  C   UNL     1      18.496  51.206  46.775  1.00  0.00     0.000 A 
HETATM   17  C   UNL     1      18.757  52.205  47.710  1.00  0.00     0.001 A 
HETATM   18  C   UNL     1      19.740  52.012  48.683  1.00  0.00     0.009 A 
ENDBRANCH  12  13
ENDBRANCH   9  12
ENDBRANCH   1   7
BRANCH   3  19
HETATM   19  C   UNL     1      24.354  45.027  49.860  1.00  0.00     0.144 C 
BRANCH  19  20
HETATM   20  C   UNL     1      24.309  44.604  51.335  1.00  0.00     0.142 C 
BRANCH  20  21
HETATM   21  N   UNL     1      25.632  44.335  51.872  1.00  0.00    -0.355 N 
HETATM   22  C   UNL     1      25.840  44.132  53.218  1.00  0.00     0.254 C 
HETATM   23  O   UNL     1      24.940  44.194  54.052  1.00  0.00    -0.268 OA
HETATM   24  H   UNL     1      26.339  44.065  51.204  1.00  0.00     0.162 HD
BRANCH  22  25
HETATM   25  C   UNL     1      27.218  43.765  53.658  1.00  0.00     0.065 A 
HETATM   26  C   UNL     1      27.775  42.546  53.237  1.00  0.00     0.081 A 
HETATM   27  C   UNL     1      29.070  42.188  53.608  1.00  0.00     0.037 A 
HETATM   28  C   UNL     1      29.822  43.035  54.419  1.00  0.00     0.003 A 
HETATM   29  C   UNL     1      29.274  44.235  54.869  1.00  0.00     0.001 A 
HETATM   30  C   UNL     1      27.976  44.599  54.495  1.00  0.00     0.020 A 
BRANCH  26  31
HETATM   31  O   UNL     1      27.104  41.645  52.452  1.00  0.00    -0.360 OA
HETATM   32  H   UNL     1      26.153  41.683  52.701  1.00  0.00     0.217 HD
ENDBRANCH  26  31
ENDBRANCH  22  25
ENDBRANCH  20  21
ENDBRANCH  19  20
ENDBRANCH   3  19
TORSDOF 8
ENDMDL
MODEL 7
REMARK VINA RESULT:      -9.5      2.374     10.224
REMARK  8 active torsions:
REMARK  status: ('A' for Active; 'I' for Inactive)
REMARK    1  A    between atoms: C_4  and  C_5 
REMARK    2  A    between atoms: C_5  and  N_6 
REMARK    3  A    between atoms: C_8  and  N_9 
REMARK       I    between atoms: N_9  and  C_10 
REMARK       I    between atoms: C_10  and  N_11 
REMARK    4  A    between atoms: N_11  and  C_12 
REMARK    5  A    between atoms: C_12  and  C_13 
REMARK    6  A    between atoms: C_13  and  N_14 
REMARK       I    between atoms: N_14  and  C_15 
REMARK    7  A    between atoms: C_15  and  C_16 
REMARK    8  A    between atoms: C_17  and  O_18 
ROOT
HETATM    1  N   UNL     1      25.638  48.642  49.153  1.00  0.00    -0.292 N 
HETATM    2  C   UNL     1      25.678  47.300  49.378  1.00  0.00     0.321 C 
HETATM    3  N   UNL     1      24.492  46.662  49.562  1.00  0.00    -0.341 N 
HETATM    4  O   UNL     1      26.763  46.723  49.436  1.00  0.00    -0.247 OA
HETATM    5  H   UNL     1      26.548  49.072  49.083  1.00  0.00     0.172 HD
HETATM    6  H   UNL     1      23.663  47.218  49.353  1.00  0.00     0.164 HD
ENDROOT
BRANCH   1   7
HETATM    7  C   UNL     1      24.540  49.452  48.975  1.00  0.00     0.153 A 
HETATM    8  N   UNL     1      23.479  49.489  49.789  1.00  0.00    -0.154 NA
HETATM    9  N   UNL     1      22.659  50.403  49.227  1.00  0.00    -0.275 N 
HETATM   10  C   UNL     1      23.159  50.937  48.075  1.00  0.00     0.116 A 
HETATM   11  C   UNL     1      24.382  50.340  47.886  1.00  0.00     0.071 A 
BRANCH   9  12
HETATM   12  C   UNL     1      21.349  50.668  49.811  1.00  0.00     0.189 C 
BRANCH  12  13
HETATM   13  C   UNL     1      20.293  50.891  48.758  1.00  0.00    -0.038 A 
HETATM   14  C   UNL     1      19.950  49.866  47.863  1.00  0.00     0.009 A 
HETATM   15  C   UNL     1      18.954  50.065  46.906  1.00  0.00     0.001 A 
HETATM   16  C   UNL     1      18.288  51.287  46.834  1.00  0.00     0.000 A 
HETATM   17  C   UNL     1      18.617  52.312  47.716  1.00  0.00     0.001 A 
HETATM   18  C   UNL     1      19.612  52.116  48.676  1.00  0.00     0.009 A 
ENDBRANCH  12  13
ENDBRANCH   9  12
ENDBRANCH   1   7
BRANCH   3  19
HETATM   19  C   UNL     1      24.387  45.227  49.704  1.00  0.00     0.144 C 
BRANCH  19  20
HETATM   20  C   UNL     1      24.256  44.773  51.164  1.00  0.00     0.142 C 
BRANCH  20  21
HETATM   21  N   UNL     1      25.295  45.333  52.011  1.00  0.00    -0.355 N 
HETATM   22  C   UNL     1      25.427  44.969  53.333  1.00  0.00     0.254 C 
HETATM   23  O   UNL     1      24.667  44.180  53.890  1.00  0.00    -0.268 OA
HETATM   24  H   UNL     1      26.052  45.804  51.537  1.00  0.00     0.162 HD
BRANCH  22  25
HETATM   25  C   UNL     1      26.586  45.524  54.091  1.00  0.00     0.065 A 
HETATM   26  C   UNL     1      26.666  46.908  54.314  1.00  0.00     0.081 A 
HETATM   27  C   UNL     1      27.723  47.454  55.043  1.00  0.00     0.037 A 
HETATM   28  C   UNL     1      28.723  46.625  55.546  1.00  0.00     0.003 A 
HETATM   29  C   UNL     1      28.673  45.252  55.311  1.00  0.00     0.001 A 
HETATM   30  C   UNL     1      27.613  44.702  54.583  1.00  0.00     0.020 A 
BRANCH  26  31
HETATM   31  O   UNL     1      25.738  47.800  53.842  1.00  0.00    -0.360 OA
HETATM   32  H   UNL     1      26.196  48.659  53.699  1.00  0.00     0.217 HD
ENDBRANCH  26  31
ENDBRANCH  22  25
ENDBRANCH  20  21
ENDBRANCH  19  20
ENDBRANCH   3  19
TORSDOF 8
ENDMDL
MODEL 8
REMARK VINA RESULT:      -9.4      2.373     10.985
REMARK  8 active torsions:
REMARK  status: ('A' for Active; 'I' for Inactive)
REMARK    1  A    between atoms: C_4  and  C_5 
REMARK    2  A    between atoms: C_5  and  N_6 
REMARK    3  A    between atoms: C_8  and  N_9 
REMARK       I    between atoms: N_9  and  C_10 
REMARK       I    between atoms: C_10  and  N_11 
REMARK    4  A    between atoms: N_11  and  C_12 
REMARK    5  A    between atoms: C_12  and  C_13 
REMARK    6  A    between atoms: C_13  and  N_14 
REMARK       I    between atoms: N_14  and  C_15 
REMARK    7  A    between atoms: C_15  and  C_16 
REMARK    8  A    between atoms: C_17  and  O_18 
ROOT
HETATM    1  N   UNL     1      25.431  48.712  48.835  1.00  0.00    -0.292 N 
HETATM    2  C   UNL     1      25.963  47.742  49.628  1.00  0.00     0.321 C 
HETATM    3  N   UNL     1      25.235  47.348  50.706  1.00  0.00    -0.341 N 
HETATM    4  O   UNL     1      27.074  47.282  49.367  1.00  0.00    -0.247 OA
HETATM    5  H   UNL     1      26.039  49.007  48.086  1.00  0.00     0.172 HD
HETATM    6  H   UNL     1      24.278  47.699  50.736  1.00  0.00     0.164 HD
ENDROOT
BRANCH   1   7
HETATM    7  C   UNL     1      24.187  49.295  48.906  1.00  0.00     0.153 A 
HETATM    8  N   UNL     1      23.054  48.643  49.191  1.00  0.00    -0.154 NA
HETATM    9  N   UNL     1      22.098  49.597  49.139  1.00  0.00    -0.275 N 
HETATM   10  C   UNL     1      22.587  50.830  48.816  1.00  0.00     0.116 A 
HETATM   11  C   UNL     1      23.942  50.666  48.660  1.00  0.00     0.071 A 
BRANCH   9  12
HETATM   12  C   UNL     1      20.698  49.240  49.335  1.00  0.00     0.189 C 
BRANCH  12  13
HETATM   13  C   UNL     1      19.770  50.382  49.002  1.00  0.00    -0.038 A 
HETATM   14  C   UNL     1      19.372  50.615  47.677  1.00  0.00     0.009 A 
HETATM   15  C   UNL     1      18.492  51.656  47.375  1.00  0.00     0.001 A 
HETATM   16  C   UNL     1      18.000  52.473  48.391  1.00  0.00     0.000 A 
HETATM   17  C   UNL     1      18.386  52.252  49.711  1.00  0.00     0.001 A 
HETATM   18  C   UNL     1      19.264  51.210  50.017  1.00  0.00     0.009 A 
ENDBRANCH  12  13
ENDBRANCH   9  12
ENDBRANCH   1   7
BRANCH   3  19
HETATM   19  C   UNL     1      25.635  46.256  51.565  1.00  0.00     0.144 C 
BRANCH  19  20
HETATM   20  C   UNL     1      25.704  46.649  53.047  1.00  0.00     0.142 C 
BRANCH  20  21
HETATM   21  N   UNL     1      26.955  46.244  53.667  1.00  0.00    -0.355 N 
HETATM   22  C   UNL     1      27.094  45.021  54.285  1.00  0.00     0.254 C 
HETATM   23  O   UNL     1      26.176  44.210  54.383  1.00  0.00    -0.268 OA
HETATM   24  H   UNL     1      27.772  46.781  53.417  1.00  0.00     0.162 HD
BRANCH  22  25
HETATM   25  C   UNL     1      28.446  44.658  54.804  1.00  0.00     0.065 A 
HETATM   26  C   UNL     1      29.047  45.462  55.786  1.00  0.00     0.081 A 
HETATM   27  C   UNL     1      30.297  45.133  56.310  1.00  0.00     0.037 A 
HETATM   28  C   UNL     1      30.970  44.005  55.849  1.00  0.00     0.003 A 
HETATM   29  C   UNL     1      30.400  43.211  54.855  1.00  0.00     0.001 A 
HETATM   30  C   UNL     1      29.145  43.536  54.330  1.00  0.00     0.020 A 
BRANCH  26  31
HETATM   31  O   UNL     1      28.466  46.598  56.285  1.00  0.00    -0.360 OA
HETATM   32  H   UNL     1      28.016  47.056  55.540  1.00  0.00     0.217 HD
ENDBRANCH  26  31
ENDBRANCH  22  25
ENDBRANCH  20  21
ENDBRANCH  19  20
ENDBRANCH   3  19
TORSDOF 8
ENDMDL
MODEL 9
REMARK VINA RESULT:      -9.3     12.079     13.338
REMARK  8 active torsions:
REMARK  status: ('A' for Active; 'I' for Inactive)
REMARK    1  A    between atoms: C_4  and  C_5 
REMARK    2  A    between atoms: C_5  and  N_6 
REMARK    3  A    between atoms: C_8  and  N_9 
REMARK       I    between atoms: N_9  and  C_10 
REMARK       I    between atoms: C_10  and  N_11 
REMARK    4  A    between atoms: N_11  and  C_12 
REMARK    5  A    between atoms: C_12  and  C_13 
REMARK    6  A    between atoms: C_13  and  N_14 
REMARK       I    between atoms: N_14  and  C_15 
REMARK    7  A    between atoms: C_15  and  C_16 
REMARK    8  A    between atoms: C_17  and  O_18 
ROOT
HETATM    1  N   UNL     1      27.345  46.195  40.632  1.00  0.00    -0.292 N 
HETATM    2  C   UNL     1      26.072  46.599  40.367  1.00  0.00     0.321 C 
HETATM    3  N   UNL     1      25.917  47.695  39.579  1.00  0.00    -0.341 N 
HETATM    4  O   UNL     1      25.124  45.990  40.861  1.00  0.00    -0.247 OA
HETATM    5  H   UNL     1      27.402  45.414  41.268  1.00  0.00     0.172 HD
HETATM    6  H   UNL     1      26.765  48.025  39.121  1.00  0.00     0.164 HD
ENDROOT
BRANCH   1   7
HETATM    7  C   UNL     1      28.526  46.683  40.122  1.00  0.00     0.153 A 
HETATM    8  N   UNL     1      28.889  47.971  40.135  1.00  0.00    -0.154 NA
HETATM    9  N   UNL     1      30.096  47.984  39.529  1.00  0.00    -0.275 N 
HETATM   10  C   UNL     1      30.503  46.747  39.117  1.00  0.00     0.116 A 
HETATM   11  C   UNL     1      29.505  45.881  39.490  1.00  0.00     0.071 A 
BRANCH   9  12
HETATM   12  C   UNL     1      30.785  49.248  39.298  1.00  0.00     0.189 C 
BRANCH  12  13
HETATM   13  C   UNL     1      31.463  49.759  40.545  1.00  0.00    -0.038 A 
HETATM   14  C   UNL     1      32.363  50.834  40.478  1.00  0.00     0.009 A 
HETATM   15  C   UNL     1      32.970  51.323  41.636  1.00  0.00     0.001 A 
HETATM   16  C   UNL     1      32.683  50.747  42.872  1.00  0.00     0.000 A 
HETATM   17  C   UNL     1      31.791  49.680  42.953  1.00  0.00     0.001 A 
HETATM   18  C   UNL     1      31.181  49.190  41.796  1.00  0.00     0.009 A 
ENDBRANCH  12  13
ENDBRANCH   9  12
ENDBRANCH   1   7
BRANCH   3  19
HETATM   19  C   UNL     1      24.623  48.164  39.136  1.00  0.00     0.144 C 
BRANCH  19  20
HETATM   20  C   UNL     1      24.629  49.638  38.710  1.00  0.00     0.142 C 
BRANCH  20  21
HETATM   21  N   UNL     1      25.650  50.408  39.400  1.00  0.00    -0.355 N 
HETATM   22  C   UNL     1      26.911  50.578  38.871  1.00  0.00     0.254 C 
HETATM   23  O   UNL     1      27.266  50.072  37.809  1.00  0.00    -0.268 OA
HETATM   24  H   UNL     1      25.330  51.006  40.148  1.00  0.00     0.162 HD
BRANCH  22  25
HETATM   25  C   UNL     1      27.856  51.467  39.608  1.00  0.00     0.065 A 
HETATM   26  C   UNL     1      28.022  51.302  40.993  1.00  0.00     0.081 A 
HETATM   27  C   UNL     1      28.918  52.099  41.704  1.00  0.00     0.037 A 
HETATM   28  C   UNL     1      29.651  53.083  41.044  1.00  0.00     0.003 A 
HETATM   29  C   UNL     1      29.479  53.277  39.674  1.00  0.00     0.001 A 
HETATM   30  C   UNL     1      28.582  52.477  38.957  1.00  0.00     0.020 A 
BRANCH  26  31
HETATM   31  O   UNL     1      27.331  50.373  41.726  1.00  0.00    -0.360 OA
HETATM   32  H   UNL     1      26.993  49.692  41.103  1.00  0.00     0.217 HD
ENDBRANCH  26  31
ENDBRANCH  22  25
ENDBRANCH  20  21
ENDBRANCH  19  20
ENDBRANCH   3  19
TORSDOF 8
ENDMDL
MODEL 10
REMARK VINA RESULT:      -9.2      2.100      2.850
REMARK  8 active torsions:
REMARK  status: ('A' for Active; 'I' for Inactive)
REMARK    1  A    between atoms: C_4  and  C_5 
REMARK    2  A    between atoms: C_5  and  N_6 
REMARK    3  A    between atoms: C_8  and  N_9 
REMARK       I    between atoms: N_9  and  C_10 
REMARK       I    between atoms: C_10  and  N_11 
REMARK    4  A    between atoms: N_11  and  C_12 
REMARK    5  A    between atoms: C_12  and  C_13 
REMARK    6  A    between atoms: C_13  and  N_14 
REMARK       I    between atoms: N_14  and  C_15 
REMARK    7  A    between atoms: C_15  and  C_16 
REMARK    8  A    between atoms: C_17  and  O_18 
ROOT
HETATM    1  N   UNL     1      25.649  47.528  51.014  1.00  0.00    -0.292 N 
HETATM    2  C   UNL     1      25.013  47.164  49.866  1.00  0.00     0.321 C 
HETATM    3  N   UNL     1      24.673  45.855  49.729  1.00  0.00    -0.341 N 
HETATM    4  O   UNL     1      24.797  48.007  48.996  1.00  0.00    -0.247 OA
HETATM    5  H   UNL     1      25.931  48.496  51.037  1.00  0.00     0.172 HD
HETATM    6  H   UNL     1      24.779  45.288  50.570  1.00  0.00     0.164 HD
ENDROOT
BRANCH   1   7
HETATM    7  C   UNL     1      25.913  46.767  52.130  1.00  0.00     0.153 A 
HETATM    8  N   UNL     1      26.548  45.589  52.118  1.00  0.00    -0.154 NA
HETATM    9  N   UNL     1      26.569  45.208  53.414  1.00  0.00    -0.275 N 
HETATM   10  C   UNL     1      25.956  46.100  54.246  1.00  0.00     0.116 A 
HETATM   11  C   UNL     1      25.520  47.124  53.441  1.00  0.00     0.071 A 
BRANCH   9  12
HETATM   12  C   UNL     1      27.134  43.917  53.788  1.00  0.00     0.189 C 
BRANCH  12  13
HETATM   13  C   UNL     1      28.447  44.062  54.517  1.00  0.00    -0.038 A 
HETATM   14  C   UNL     1      28.736  45.228  55.242  1.00  0.00     0.009 A 
HETATM   15  C   UNL     1      29.939  45.349  55.938  1.00  0.00     0.001 A 
HETATM   16  C   UNL     1      30.866  44.308  55.919  1.00  0.00     0.000 A 
HETATM   17  C   UNL     1      30.592  43.145  55.204  1.00  0.00     0.001 A 
HETATM   18  C   UNL     1      29.387  43.019  54.509  1.00  0.00     0.009 A 
ENDBRANCH  12  13
ENDBRANCH   9  12
ENDBRANCH   1   7
BRANCH   3  19
HETATM   19  C   UNL     1      23.903  45.360  48.611  1.00  0.00     0.144 C 
BRANCH  19  20
HETATM   20  C   UNL     1      22.389  45.407  48.852  1.00  0.00     0.142 C 
BRANCH  20  21
HETATM   21  N   UNL     1      21.923  46.747  49.168  1.00  0.00    -0.355 N 
HETATM   22  C   UNL     1      21.360  47.564  48.213  1.00  0.00     0.254 C 
HETATM   23  O   UNL     1      21.243  47.235  47.035  1.00  0.00    -0.268 OA
HETATM   24  H   UNL     1      21.805  46.958  50.149  1.00  0.00     0.162 HD
BRANCH  22  25
HETATM   25  C   UNL     1      20.823  48.882  48.659  1.00  0.00     0.065 A 
HETATM   26  C   UNL     1      19.833  48.923  49.654  1.00  0.00     0.081 A 
HETATM   27  C   UNL     1      19.331  50.141  50.112  1.00  0.00     0.037 A 
HETATM   28  C   UNL     1      19.799  51.335  49.569  1.00  0.00     0.003 A 
HETATM   29  C   UNL     1      20.763  51.312  48.562  1.00  0.00     0.001 A 
HETATM   30  C   UNL     1      21.270  50.091  48.103  1.00  0.00     0.020 A 
BRANCH  26  31
HETATM   31  O   UNL     1      19.301  47.800  50.231  1.00  0.00    -0.360 OA
HETATM   32  H   UNL     1      18.878  47.270  49.518  1.00  0.00     0.217 HD
ENDBRANCH  26  31
ENDBRANCH  22  25
ENDBRANCH  20  21
ENDBRANCH  19  20
ENDBRANCH   3  19
TORSDOF 8
ENDMDL
