MODEL 1
REMARK VINA RESULT:      -9.1      0.000      0.000
REMARK  5 active torsions:
REMARK  status: ('A' for Active; 'I' for Inactive)
REMARK    1  A    between atoms: N_2  and  C_4 
REMARK    2  A    between atoms: C_4  and  C_5 
REMARK    3  A    between atoms: C_5  and  N_6 
REMARK    4  A    between atoms: C_11  and  C_12 
REMARK    5  A    between atoms: C_14  and  O_15 
ROOT
HETATM    1  N   UNL     1      26.132  42.844  51.704  1.00  0.00    -0.332 N 
HETATM    2  C   UNL     1      27.339  42.235  52.045  1.00  0.00     0.279 C 
HETATM    3  O   UNL     1      27.811  41.243  51.522  1.00  0.00    -0.265 OA
HETATM    4  C   UNL     1      27.931  43.028  53.135  1.00  0.00     0.156 A 
HETATM    5  C   UNL     1      27.140  44.086  53.298  1.00  0.00     0.060 A 
HETATM    6  C   UNL     1      25.990  44.141  52.370  1.00  0.00     0.161 C 
HETATM    7  O   UNL     1      29.072  42.723  53.819  1.00  0.00    -0.303 OA
HETATM    8  C   UNL     1      29.460  43.640  54.776  1.00  0.00     0.090 A 
HETATM    9  C   UNL     1      28.709  44.789  55.081  1.00  0.00     0.051 A 
HETATM   10  C   UNL     1      27.446  45.041  54.353  1.00  0.00     0.196 A 
HETATM   11  O   UNL     1      26.692  45.965  54.617  1.00  0.00    -0.287 OA
HETATM   12  C   UNL     1      30.654  43.385  55.451  1.00  0.00     0.041 A 
HETATM   13  C   UNL     1      31.096  44.281  56.425  1.00  0.00     0.045 A 
HETATM   14  C   UNL     1      30.343  45.417  56.719  1.00  0.00     0.117 A 
HETATM   15  F   UNL     1      30.780  46.269  57.654  1.00  0.00    -0.206 F 
HETATM   16  C   UNL     1      29.150  45.683  56.058  1.00  0.00     0.060 A 
ENDROOT
BRANCH   6  17
HETATM   17  C   UNL     1      26.028  45.305  51.397  1.00  0.00    -0.028 A 
HETATM   18  C   UNL     1      24.994  46.256  51.419  1.00  0.00     0.046 A 
HETATM   19  C   UNL     1      24.991  47.303  50.502  1.00  0.00     0.066 A 
HETATM   20  C   UNL     1      26.002  47.432  49.559  1.00  0.00     0.036 A 
HETATM   21  C   UNL     1      27.048  46.514  49.543  1.00  0.00     0.003 A 
HETATM   22  C   UNL     1      27.065  45.459  50.457  1.00  0.00     0.010 A 
BRANCH  19  23
HETATM   23  O   UNL     1      23.994  48.232  50.492  1.00  0.00    -0.361 OA
HETATM   24  H   UNL     1      24.103  48.808  49.717  1.00  0.00     0.217 HD
ENDBRANCH  19  23
ENDBRANCH   6  17
BRANCH   1  25
HETATM   25  C   UNL     1      25.399  42.495  50.496  1.00  0.00     0.155 C 
BRANCH  25  26
HETATM   26  C   UNL     1      23.873  42.689  50.599  1.00  0.00     0.254 C 
BRANCH  26  27
HETATM   27  N   UNL     1      23.246  42.954  49.236  1.00  0.00    -0.077 N 
HETATM   28  C   UNL     1      23.078  41.724  48.388  1.00  0.00     0.269 C 
HETATM   29  H   UNL     1      22.308  43.342  49.411  1.00  0.00     0.279 HD
HETATM   30  C   UNL     1      23.999  44.029  48.495  1.00  0.00     0.269 C 
ENDBRANCH  26  27
ENDBRANCH  25  26
ENDBRANCH   1  25
TORSDOF 5
ENDMDL
MODEL 2
REMARK VINA RESULT:      -9.0      2.288      3.134
REMARK  5 active torsions:
REMARK  status: ('A' for Active; 'I' for Inactive)
REMARK    1  A    between atoms: N_2  and  C_4 
REMARK    2  A    between atoms: C_4  and  C_5 
REMARK    3  A    between atoms: C_5  and  N_6 
REMARK    4  A    between atoms: C_11  and  C_12 
REMARK    5  A    between atoms: C_14  and  O_15 
ROOT
HETATM    1  N   UNL     1      24.385  45.447  49.942  1.00  0.00    -0.332 N 
HETATM    2  C   UNL     1      25.223  44.404  50.333  1.00  0.00     0.279 C 
HETATM    3  O   UNL     1      25.356  43.340  49.758  1.00  0.00    -0.265 OA
HETATM    4  C   UNL     1      25.921  44.844  51.553  1.00  0.00     0.156 A 
HETATM    5  C   UNL     1      25.566  46.113  51.748  1.00  0.00     0.060 A 
HETATM    6  C   UNL     1      24.650  46.658  50.722  1.00  0.00     0.161 C 
HETATM    7  O   UNL     1      26.766  44.086  52.310  1.00  0.00    -0.303 OA
HETATM    8  C   UNL     1      27.340  44.727  53.390  1.00  0.00     0.090 A 
HETATM    9  C   UNL     1      27.038  46.055  53.739  1.00  0.00     0.051 A 
HETATM   10  C   UNL     1      26.065  46.814  52.922  1.00  0.00     0.196 A 
HETATM   11  O   UNL     1      25.682  47.938  53.205  1.00  0.00    -0.287 OA
HETATM   12  C   UNL     1      28.255  43.995  54.148  1.00  0.00     0.041 A 
HETATM   13  C   UNL     1      28.867  44.594  55.250  1.00  0.00     0.045 A 
HETATM   14  C   UNL     1      28.560  45.912  55.586  1.00  0.00     0.117 A 
HETATM   15  F   UNL     1      29.157  46.476  56.643  1.00  0.00    -0.206 F 
HETATM   16  C   UNL     1      27.648  46.653  54.843  1.00  0.00     0.060 A 
ENDROOT
BRANCH   6  17
HETATM   17  C   UNL     1      25.246  47.775  49.885  1.00  0.00    -0.028 A 
HETATM   18  C   UNL     1      24.389  48.664  49.212  1.00  0.00     0.046 A 
HETATM   19  C   UNL     1      24.920  49.664  48.403  1.00  0.00     0.066 A 
HETATM   20  C   UNL     1      26.292  49.807  48.249  1.00  0.00     0.036 A 
HETATM   21  C   UNL     1      27.154  48.952  48.930  1.00  0.00     0.003 A 
HETATM   22  C   UNL     1      26.636  47.944  49.745  1.00  0.00     0.010 A 
BRANCH  19  23
HETATM   23  O   UNL     1      24.113  50.531  47.730  1.00  0.00    -0.361 OA
HETATM   24  H   UNL     1      24.597  51.359  47.572  1.00  0.00     0.217 HD
ENDBRANCH  19  23
ENDBRANCH   6  17
BRANCH   1  25
HETATM   25  C   UNL     1      23.739  45.478  48.637  1.00  0.00     0.155 C 
BRANCH  25  26
HETATM   26  C   UNL     1      22.334  44.843  48.608  1.00  0.00     0.254 C 
BRANCH  26  27
HETATM   27  N   UNL     1      21.238  45.897  48.704  1.00  0.00    -0.077 N 
HETATM   28  C   UNL     1      19.846  45.348  48.568  1.00  0.00     0.269 C 
HETATM   29  H   UNL     1      21.315  46.322  49.640  1.00  0.00     0.279 HD
HETATM   30  C   UNL     1      21.481  47.019  47.727  1.00  0.00     0.269 C 
ENDBRANCH  26  27
ENDBRANCH  25  26
ENDBRANCH   1  25
TORSDOF 5
ENDMDL
MODEL 3
REMARK VINA RESULT:      -8.8      1.960      2.978
REMARK  5 active torsions:
REMARK  status: ('A' for Active; 'I' for Inactive)
REMARK    1  A    between atoms: N_2  and  C_4 
REMARK    2  A    between atoms: C_4  and  C_5 
REMARK    3  A    between atoms: C_5  and  N_6 
REMARK    4  A    between atoms: C_11  and  C_12 
REMARK    5  A    between atoms: C_14  and  O_15 
ROOT
HETATM    1  N   UNL     1      24.594  45.139  49.811  1.00  0.00    -0.332 N 
HETATM    2  C   UNL     1      25.561  44.220  50.214  1.00  0.00     0.279 C 
HETATM    3  O   UNL     1      25.868  43.201  49.625  1.00  0.00    -0.265 OA
HETATM    4  C   UNL     1      26.143  44.727  51.468  1.00  0.00     0.156 A 
HETATM    5  C   UNL     1      25.601  45.926  51.672  1.00  0.00     0.060 A 
HETATM    6  C   UNL     1      24.652  46.357  50.623  1.00  0.00     0.161 C 
HETATM    7  O   UNL     1      27.064  44.083  52.243  1.00  0.00    -0.303 OA
HETATM    8  C   UNL     1      27.499  44.773  53.356  1.00  0.00     0.090 A 
HETATM    9  C   UNL     1      26.995  46.035  53.718  1.00  0.00     0.051 A 
HETATM   10  C   UNL     1      25.951  46.664  52.878  1.00  0.00     0.196 A 
HETATM   11  O   UNL     1      25.398  47.713  53.167  1.00  0.00    -0.287 OA
HETATM   12  C   UNL     1      28.484  44.165  54.135  1.00  0.00     0.041 A 
HETATM   13  C   UNL     1      28.963  44.820  55.270  1.00  0.00     0.045 A 
HETATM   14  C   UNL     1      28.455  46.071  55.618  1.00  0.00     0.117 A 
HETATM   15  F   UNL     1      28.926  46.689  56.708  1.00  0.00    -0.206 F 
HETATM   16  C   UNL     1      27.472  46.689  54.854  1.00  0.00     0.060 A 
ENDROOT
BRANCH   6  17
HETATM   17  C   UNL     1      25.107  47.568  49.830  1.00  0.00    -0.028 A 
HETATM   18  C   UNL     1      26.483  47.809  49.669  1.00  0.00     0.046 A 
HETATM   19  C   UNL     1      26.916  48.941  48.984  1.00  0.00     0.066 A 
HETATM   20  C   UNL     1      26.008  49.844  48.448  1.00  0.00     0.036 A 
HETATM   21  C   UNL     1      24.643  49.604  48.575  1.00  0.00     0.003 A 
HETATM   22  C   UNL     1      24.194  48.473  49.258  1.00  0.00     0.010 A 
BRANCH  19  23
HETATM   23  O   UNL     1      28.243  49.206  48.825  1.00  0.00    -0.361 OA
HETATM   24  H   UNL     1      28.758  48.600  49.383  1.00  0.00     0.217 HD
ENDBRANCH  19  23
ENDBRANCH   6  17
BRANCH   1  25
HETATM   25  C   UNL     1      23.997  45.107  48.483  1.00  0.00     0.155 C 
BRANCH  25  26
HETATM   26  C   UNL     1      22.880  44.058  48.314  1.00  0.00     0.254 C 
BRANCH  26  27
HETATM   27  N   UNL     1      23.404  42.775  47.680  1.00  0.00    -0.077 N 
HETATM   28  C   UNL     1      23.016  42.600  46.239  1.00  0.00     0.269 C 
HETATM   29  H   UNL     1      24.432  42.821  47.722  1.00  0.00     0.279 HD
HETATM   30  C   UNL     1      23.016  41.571  48.501  1.00  0.00     0.269 C 
ENDBRANCH  26  27
ENDBRANCH  25  26
ENDBRANCH   1  25
TORSDOF 5
ENDMDL
MODEL 4
REMARK VINA RESULT:      -8.4      3.602      6.949
REMARK  5 active torsions:
REMARK  status: ('A' for Active; 'I' for Inactive)
REMARK    1  A    between atoms: N_2  and  C_4 
REMARK    2  A    between atoms: C_4  and  C_5 
REMARK    3  A    between atoms: C_5  and  N_6 
REMARK    4  A    between atoms: C_11  and  C_12 
REMARK    5  A    between atoms: C_14  and  O_15 
ROOT
HETATM    1  N   UNL     1      25.578  44.228  51.262  1.00  0.00    -0.332 N 
HETATM    2  C   UNL     1      24.300  44.401  50.735  1.00  0.00     0.279 C 
HETATM    3  O   UNL     1      23.394  43.589  50.777  1.00  0.00    -0.265 OA
HETATM    4  C   UNL     1      24.255  45.747  50.141  1.00  0.00     0.156 A 
HETATM    5  C   UNL     1      25.418  46.324  50.437  1.00  0.00     0.060 A 
HETATM    6  C   UNL     1      26.331  45.484  51.244  1.00  0.00     0.161 C 
HETATM    7  O   UNL     1      23.212  46.280  49.440  1.00  0.00    -0.303 OA
HETATM    8  C   UNL     1      23.380  47.581  49.012  1.00  0.00     0.090 A 
HETATM    9  C   UNL     1      24.565  48.308  49.224  1.00  0.00     0.051 A 
HETATM   10  C   UNL     1      25.691  47.663  49.935  1.00  0.00     0.196 A 
HETATM   11  O   UNL     1      26.783  48.190  50.083  1.00  0.00    -0.287 OA
HETATM   12  C   UNL     1      22.307  48.173  48.345  1.00  0.00     0.041 A 
HETATM   13  C   UNL     1      22.421  49.489  47.894  1.00  0.00     0.045 A 
HETATM   14  C   UNL     1      23.601  50.199  48.109  1.00  0.00     0.117 A 
HETATM   15  F   UNL     1      23.696  51.461  47.674  1.00  0.00    -0.206 F 
HETATM   16  C   UNL     1      24.680  49.623  48.770  1.00  0.00     0.060 A 
ENDROOT
BRANCH   6  17
HETATM   17  C   UNL     1      26.606  46.023  52.635  1.00  0.00    -0.028 A 
HETATM   18  C   UNL     1      25.835  47.091  53.127  1.00  0.00     0.046 A 
HETATM   19  C   UNL     1      26.107  47.626  54.382  1.00  0.00     0.066 A 
HETATM   20  C   UNL     1      27.131  47.120  55.170  1.00  0.00     0.036 A 
HETATM   21  C   UNL     1      27.885  46.044  54.710  1.00  0.00     0.003 A 
HETATM   22  C   UNL     1      27.624  45.497  53.453  1.00  0.00     0.010 A 
BRANCH  19  23
HETATM   23  O   UNL     1      25.383  48.669  54.878  1.00  0.00    -0.361 OA
HETATM   24  H   UNL     1      24.449  48.550  54.640  1.00  0.00     0.217 HD
ENDBRANCH  19  23
ENDBRANCH   6  17
BRANCH   1  25
HETATM   25  C   UNL     1      25.909  43.127  52.156  1.00  0.00     0.155 C 
BRANCH  25  26
HETATM   26  C   UNL     1      26.903  42.107  51.567  1.00  0.00     0.254 C 
BRANCH  26  27
HETATM   27  N   UNL     1      27.533  41.243  52.653  1.00  0.00    -0.077 N 
HETATM   28  C   UNL     1      27.849  41.986  53.921  1.00  0.00     0.269 C 
HETATM   29  H   UNL     1      26.848  40.509  52.884  1.00  0.00     0.279 HD
HETATM   30  C   UNL     1      28.746  40.518  52.129  1.00  0.00     0.269 C 
ENDBRANCH  26  27
ENDBRANCH  25  26
ENDBRANCH   1  25
TORSDOF 5
ENDMDL
MODEL 5
REMARK VINA RESULT:      -7.9      3.385      6.748
REMARK  5 active torsions:
REMARK  status: ('A' for Active; 'I' for Inactive)
REMARK    1  A    between atoms: N_2  and  C_4 
REMARK    2  A    between atoms: C_4  and  C_5 
REMARK    3  A    between atoms: C_5  and  N_6 
REMARK    4  A    between atoms: C_11  and  C_12 
REMARK    5  A    between atoms: C_14  and  O_15 
ROOT
HETATM    1  N   UNL     1      25.966  42.950  49.694  1.00  0.00    -0.332 N 
HETATM    2  C   UNL     1      24.674  43.126  49.203  1.00  0.00     0.279 C 
HETATM    3  O   UNL     1      23.916  42.241  48.852  1.00  0.00    -0.265 OA
HETATM    4  C   UNL     1      24.401  44.573  49.210  1.00  0.00     0.156 A 
HETATM    5  C   UNL     1      25.453  45.147  49.790  1.00  0.00     0.060 A 
HETATM    6  C   UNL     1      26.498  44.201  50.238  1.00  0.00     0.161 C 
HETATM    7  O   UNL     1      23.279  45.179  48.724  1.00  0.00    -0.303 OA
HETATM    8  C   UNL     1      23.225  46.550  48.878  1.00  0.00     0.090 A 
HETATM    9  C   UNL     1      24.273  47.298  49.443  1.00  0.00     0.051 A 
HETATM   10  C   UNL     1      25.495  46.598  49.898  1.00  0.00     0.196 A 
HETATM   11  O   UNL     1      26.485  47.178  50.317  1.00  0.00    -0.287 OA
HETATM   12  C   UNL     1      22.064  47.191  48.444  1.00  0.00     0.041 A 
HETATM   13  C   UNL     1      21.953  48.576  48.579  1.00  0.00     0.045 A 
HETATM   14  C   UNL     1      23.000  49.306  49.141  1.00  0.00     0.117 A 
HETATM   15  F   UNL     1      22.880  50.633  49.267  1.00  0.00    -0.206 F 
HETATM   16  C   UNL     1      24.164  48.682  49.575  1.00  0.00     0.060 A 
ENDROOT
BRANCH   6  17
HETATM   17  C   UNL     1      26.689  44.151  51.743  1.00  0.00    -0.028 A 
HETATM   18  C   UNL     1      25.560  44.134  52.581  1.00  0.00     0.046 A 
HETATM   19  C   UNL     1      25.718  44.135  53.964  1.00  0.00     0.066 A 
HETATM   20  C   UNL     1      26.982  44.148  54.539  1.00  0.00     0.036 A 
HETATM   21  C   UNL     1      28.109  44.136  53.723  1.00  0.00     0.003 A 
HETATM   22  C   UNL     1      27.966  44.135  52.335  1.00  0.00     0.010 A 
BRANCH  19  23
HETATM   23  O   UNL     1      24.642  44.132  54.799  1.00  0.00    -0.361 OA
HETATM   24  H   UNL     1      24.576  43.263  55.230  1.00  0.00     0.217 HD
ENDBRANCH  19  23
ENDBRANCH   6  17
BRANCH   1  25
HETATM   25  C   UNL     1      26.482  41.644  50.077  1.00  0.00     0.155 C 
BRANCH  25  26
HETATM   26  C   UNL     1      27.643  41.136  49.200  1.00  0.00     0.254 C 
BRANCH  26  27
HETATM   27  N   UNL     1      28.681  40.381  50.023  1.00  0.00    -0.077 N 
HETATM   28  C   UNL     1      28.810  38.928  49.663  1.00  0.00     0.269 C 
HETATM   29  H   UNL     1      29.590  40.830  49.838  1.00  0.00     0.279 HD
HETATM   30  C   UNL     1      28.432  40.558  51.499  1.00  0.00     0.269 C 
ENDBRANCH  26  27
ENDBRANCH  25  26
ENDBRANCH   1  25
TORSDOF 5
ENDMDL
MODEL 6
REMARK VINA RESULT:      -7.9     12.637     14.028
REMARK  5 active torsions:
REMARK  status: ('A' for Active; 'I' for Inactive)
REMARK    1  A    between atoms: N_2  and  C_4 
REMARK    2  A    between atoms: C_4  and  C_5 
REMARK    3  A    between atoms: C_5  and  N_6 
REMARK    4  A    between atoms: C_11  and  C_12 
REMARK    5  A    between atoms: C_14  and  O_15 
ROOT
HETATM    1  N   UNL     1      30.670  48.534  41.063  1.00  0.00    -0.332 N 
HETATM    2  C   UNL     1      31.957  48.023  40.906  1.00  0.00     0.279 C 
HETATM    3  O   UNL     1      32.241  46.926  40.463  1.00  0.00    -0.265 OA
HETATM    4  C   UNL     1      32.895  49.066  41.355  1.00  0.00     0.156 A 
HETATM    5  C   UNL     1      32.155  50.138  41.633  1.00  0.00     0.060 A 
HETATM    6  C   UNL     1      30.706  49.960  41.395  1.00  0.00     0.161 C 
HETATM    7  O   UNL     1      34.250  48.938  41.450  1.00  0.00    -0.303 OA
HETATM    8  C   UNL     1      34.931  50.068  41.858  1.00  0.00     0.090 A 
HETATM    9  C   UNL     1      34.283  51.264  42.215  1.00  0.00     0.051 A 
HETATM   10  C   UNL     1      32.806  51.330  42.155  1.00  0.00     0.196 A 
HETATM   11  O   UNL     1      32.161  52.297  42.530  1.00  0.00    -0.287 OA
HETATM   12  C   UNL     1      36.323  49.986  41.907  1.00  0.00     0.041 A 
HETATM   13  C   UNL     1      37.063  51.099  42.309  1.00  0.00     0.045 A 
HETATM   14  C   UNL     1      36.408  52.279  42.660  1.00  0.00     0.117 A 
HETATM   15  F   UNL     1      37.130  53.340  43.041  1.00  0.00    -0.206 F 
HETATM   16  C   UNL     1      35.022  52.376  42.620  1.00  0.00     0.060 A 
ENDROOT
BRANCH   6  17
HETATM   17  C   UNL     1      30.145  50.833  40.287  1.00  0.00    -0.028 A 
HETATM   18  C   UNL     1      30.713  50.768  39.003  1.00  0.00     0.046 A 
HETATM   19  C   UNL     1      30.241  51.596  37.989  1.00  0.00     0.066 A 
HETATM   20  C   UNL     1      29.206  52.492  38.220  1.00  0.00     0.036 A 
HETATM   21  C   UNL     1      28.614  52.549  39.479  1.00  0.00     0.003 A 
HETATM   22  C   UNL     1      29.077  51.724  40.505  1.00  0.00     0.010 A 
BRANCH  19  23
HETATM   23  O   UNL     1      30.782  51.562  36.739  1.00  0.00    -0.361 OA
HETATM   24  H   UNL     1      30.403  52.283  36.208  1.00  0.00     0.217 HD
ENDBRANCH  19  23
ENDBRANCH   6  17
BRANCH   1  25
HETATM   25  C   UNL     1      29.502  47.892  40.478  1.00  0.00     0.155 C 
BRANCH  25  26
HETATM   26  C   UNL     1      28.214  48.033  41.314  1.00  0.00     0.254 C 
BRANCH  26  27
HETATM   27  N   UNL     1      27.044  48.517  40.467  1.00  0.00    -0.077 N 
HETATM   28  C   UNL     1      25.787  47.710  40.640  1.00  0.00     0.269 C 
HETATM   29  H   UNL     1      26.838  49.481  40.767  1.00  0.00     0.279 HD
HETATM   30  C   UNL     1      27.434  48.616  39.014  1.00  0.00     0.269 C 
ENDBRANCH  26  27
ENDBRANCH  25  26
ENDBRANCH   1  25
TORSDOF 5
ENDMDL
MODEL 7
REMARK VINA RESULT:      -7.6      3.054      5.198
REMARK  5 active torsions:
REMARK  status: ('A' for Active; 'I' for Inactive)
REMARK    1  A    between atoms: N_2  and  C_4 
REMARK    2  A    between atoms: C_4  and  C_5 
REMARK    3  A    between atoms: C_5  and  N_6 
REMARK    4  A    between atoms: C_11  and  C_12 
REMARK    5  A    between atoms: C_14  and  O_15 
ROOT
HETATM    1  N   UNL     1      25.249  46.974  50.445  1.00  0.00    -0.332 N 
HETATM    2  C   UNL     1      25.637  46.801  51.773  1.00  0.00     0.279 C 
HETATM    3  O   UNL     1      25.396  47.560  52.692  1.00  0.00    -0.265 OA
HETATM    4  C   UNL     1      26.370  45.526  51.847  1.00  0.00     0.156 A 
HETATM    5  C   UNL     1      26.281  44.975  50.637  1.00  0.00     0.060 A 
HETATM    6  C   UNL     1      25.499  45.763  49.660  1.00  0.00     0.161 C 
HETATM    7  O   UNL     1      26.997  45.025  52.950  1.00  0.00    -0.303 OA
HETATM    8  C   UNL     1      27.586  43.786  52.794  1.00  0.00     0.090 A 
HETATM    9  C   UNL     1      27.600  43.096  51.569  1.00  0.00     0.051 A 
HETATM   10  C   UNL     1      26.960  43.712  50.385  1.00  0.00     0.196 A 
HETATM   11  O   UNL     1      27.003  43.223  49.267  1.00  0.00    -0.287 OA
HETATM   12  C   UNL     1      28.184  43.222  53.921  1.00  0.00     0.041 A 
HETATM   13  C   UNL     1      28.791  41.969  53.821  1.00  0.00     0.045 A 
HETATM   14  C   UNL     1      28.799  41.295  52.601  1.00  0.00     0.117 A 
HETATM   15  F   UNL     1      29.382  40.093  52.519  1.00  0.00    -0.206 F 
HETATM   16  C   UNL     1      28.210  41.845  51.468  1.00  0.00     0.060 A 
ENDROOT
BRANCH   6  17
HETATM   17  C   UNL     1      24.219  45.090  49.198  1.00  0.00    -0.028 A 
HETATM   18  C   UNL     1      23.852  45.165  47.843  1.00  0.00     0.046 A 
HETATM   19  C   UNL     1      22.658  44.593  47.413  1.00  0.00     0.066 A 
HETATM   20  C   UNL     1      21.816  43.940  48.303  1.00  0.00     0.036 A 
HETATM   21  C   UNL     1      22.179  43.834  49.642  1.00  0.00     0.003 A 
HETATM   22  C   UNL     1      23.374  44.401  50.088  1.00  0.00     0.010 A 
BRANCH  19  23
HETATM   23  O   UNL     1      22.271  44.661  46.108  1.00  0.00    -0.361 OA
HETATM   24  H   UNL     1      21.498  44.088  45.975  1.00  0.00     0.217 HD
ENDBRANCH  19  23
ENDBRANCH   6  17
BRANCH   1  25
HETATM   25  C   UNL     1      24.283  47.986  50.043  1.00  0.00     0.155 C 
BRANCH  25  26
HETATM   26  C   UNL     1      24.793  48.959  48.962  1.00  0.00     0.254 C 
BRANCH  26  27
HETATM   27  N   UNL     1      23.658  49.473  48.086  1.00  0.00    -0.077 N 
HETATM   28  C   UNL     1      23.269  50.899  48.359  1.00  0.00     0.269 C 
HETATM   29  H   UNL     1      23.987  49.422  47.111  1.00  0.00     0.279 HD
HETATM   30  C   UNL     1      22.462  48.558  48.160  1.00  0.00     0.269 C 
ENDBRANCH  26  27
ENDBRANCH  25  26
ENDBRANCH   1  25
TORSDOF 5
ENDMDL
MODEL 8
REMARK VINA RESULT:      -7.6      5.303      8.276
REMARK  5 active torsions:
REMARK  status: ('A' for Active; 'I' for Inactive)
REMARK    1  A    between atoms: N_2  and  C_4 
REMARK    2  A    between atoms: C_4  and  C_5 
REMARK    3  A    between atoms: C_5  and  N_6 
REMARK    4  A    between atoms: C_11  and  C_12 
REMARK    5  A    between atoms: C_14  and  O_15 
ROOT
HETATM    1  N   UNL     1      22.145  49.684  48.017  1.00  0.00    -0.332 N 
HETATM    2  C   UNL     1      23.080  49.811  49.042  1.00  0.00     0.279 C 
HETATM    3  O   UNL     1      23.459  50.856  49.537  1.00  0.00    -0.265 OA
HETATM    4  C   UNL     1      23.501  48.451  49.415  1.00  0.00     0.156 A 
HETATM    5  C   UNL     1      22.740  47.618  48.706  1.00  0.00     0.060 A 
HETATM    6  C   UNL     1      21.752  48.285  47.831  1.00  0.00     0.161 C 
HETATM    7  O   UNL     1      24.472  48.132  50.319  1.00  0.00    -0.303 OA
HETATM    8  C   UNL     1      24.666  46.783  50.539  1.00  0.00     0.090 A 
HETATM    9  C   UNL     1      23.960  45.786  49.843  1.00  0.00     0.051 A 
HETATM   10  C   UNL     1      22.961  46.184  48.827  1.00  0.00     0.196 A 
HETATM   11  O   UNL     1      22.369  45.386  48.117  1.00  0.00    -0.287 OA
HETATM   12  C   UNL     1      25.611  46.427  51.502  1.00  0.00     0.041 A 
HETATM   13  C   UNL     1      25.845  45.077  51.768  1.00  0.00     0.045 A 
HETATM   14  C   UNL     1      25.138  44.098  51.071  1.00  0.00     0.117 A 
HETATM   15  F   UNL     1      25.370  42.807  51.338  1.00  0.00    -0.206 F 
HETATM   16  C   UNL     1      24.196  44.436  50.107  1.00  0.00     0.060 A 
ENDROOT
BRANCH   6  17
HETATM   17  C   UNL     1      20.306  48.027  48.214  1.00  0.00    -0.028 A 
HETATM   18  C   UNL     1      19.902  48.213  49.548  1.00  0.00     0.046 A 
HETATM   19  C   UNL     1      18.591  47.935  49.923  1.00  0.00     0.066 A 
HETATM   20  C   UNL     1      17.663  47.478  48.998  1.00  0.00     0.036 A 
HETATM   21  C   UNL     1      18.040  47.316  47.668  1.00  0.00     0.003 A 
HETATM   22  C   UNL     1      19.351  47.591  47.276  1.00  0.00     0.010 A 
BRANCH  19  23
HETATM   23  O   UNL     1      18.176  48.093  51.211  1.00  0.00    -0.361 OA
HETATM   24  H   UNL     1      17.761  47.269  51.516  1.00  0.00     0.217 HD
ENDBRANCH  19  23
ENDBRANCH   6  17
BRANCH   1  25
HETATM   25  C   UNL     1      21.316  50.798  47.577  1.00  0.00     0.155 C 
BRANCH  25  26
HETATM   26  C   UNL     1      20.692  51.618  48.723  1.00  0.00     0.254 C 
BRANCH  26  27
HETATM   27  N   UNL     1      19.273  52.062  48.389  1.00  0.00    -0.077 N 
HETATM   28  C   UNL     1      18.350  52.110  49.574  1.00  0.00     0.269 C 
HETATM   29  H   UNL     1      19.342  53.017  48.010  1.00  0.00     0.279 HD
HETATM   30  C   UNL     1      18.693  51.224  47.278  1.00  0.00     0.269 C 
ENDBRANCH  26  27
ENDBRANCH  25  26
ENDBRANCH   1  25
TORSDOF 5
ENDMDL
MODEL 9
REMARK VINA RESULT:      -7.3     12.767     13.996
REMARK  5 active torsions:
REMARK  status: ('A' for Active; 'I' for Inactive)
REMARK    1  A    between atoms: N_2  and  C_4 
REMARK    2  A    between atoms: C_4  and  C_5 
REMARK    3  A    between atoms: C_5  and  N_6 
REMARK    4  A    between atoms: C_11  and  C_12 
REMARK    5  A    between atoms: C_14  and  O_15 
ROOT
HETATM    1  N   UNL     1      28.478  46.909  40.692  1.00  0.00    -0.332 N 
HETATM    2  C   UNL     1      29.767  47.207  40.252  1.00  0.00     0.279 C 
HETATM    3  O   UNL     1      30.569  46.412  39.800  1.00  0.00    -0.265 OA
HETATM    4  C   UNL     1      29.958  48.657  40.421  1.00  0.00     0.156 A 
HETATM    5  C   UNL     1      28.785  49.142  40.824  1.00  0.00     0.060 A 
HETATM    6  C   UNL     1      27.712  48.131  40.947  1.00  0.00     0.161 C 
HETATM    7  O   UNL     1      31.114  49.345  40.194  1.00  0.00    -0.303 OA
HETATM    8  C   UNL     1      31.045  50.712  40.380  1.00  0.00     0.090 A 
HETATM    9  C   UNL     1      29.884  51.363  40.833  1.00  0.00     0.051 A 
HETATM   10  C   UNL     1      28.674  50.563  41.126  1.00  0.00     0.196 A 
HETATM   11  O   UNL     1      27.655  51.035  41.605  1.00  0.00    -0.287 OA
HETATM   12  C   UNL     1      32.195  51.449  40.098  1.00  0.00     0.041 A 
HETATM   13  C   UNL     1      32.180  52.835  40.265  1.00  0.00     0.045 A 
HETATM   14  C   UNL     1      31.023  53.469  40.715  1.00  0.00     0.117 A 
HETATM   15  F   UNL     1      31.021  54.798  40.868  1.00  0.00    -0.206 F 
HETATM   16  C   UNL     1      29.870  52.748  41.004  1.00  0.00     0.060 A 
ENDROOT
BRANCH   6  17
HETATM   17  C   UNL     1      26.565  48.318  39.972  1.00  0.00    -0.028 A 
HETATM   18  C   UNL     1      26.837  48.753  38.663  1.00  0.00     0.046 A 
HETATM   19  C   UNL     1      25.791  48.974  37.771  1.00  0.00     0.066 A 
HETATM   20  C   UNL     1      24.472  48.767  38.150  1.00  0.00     0.036 A 
HETATM   21  C   UNL     1      24.188  48.309  39.433  1.00  0.00     0.003 A 
HETATM   22  C   UNL     1      25.226  48.083  40.338  1.00  0.00     0.010 A 
BRANCH  19  23
HETATM   23  O   UNL     1      26.025  49.407  36.501  1.00  0.00    -0.361 OA
HETATM   24  H   UNL     1      26.966  49.285  36.291  1.00  0.00     0.217 HD
ENDBRANCH  19  23
ENDBRANCH   6  17
BRANCH   1  25
HETATM   25  C   UNL     1      27.845  45.624  40.431  1.00  0.00     0.155 C 
BRANCH  25  26
HETATM   26  C   UNL     1      27.916  45.167  38.961  1.00  0.00     0.254 C 
BRANCH  26  27
HETATM   27  N   UNL     1      28.946  44.061  38.765  1.00  0.00    -0.077 N 
HETATM   28  C   UNL     1      29.534  44.008  37.383  1.00  0.00     0.269 C 
HETATM   29  H   UNL     1      29.715  44.251  39.424  1.00  0.00     0.279 HD
HETATM   30  C   UNL     1      28.383  42.722  39.171  1.00  0.00     0.269 C 
ENDBRANCH  26  27
ENDBRANCH  25  26
ENDBRANCH   1  25
TORSDOF 5
ENDMDL
MODEL 10
REMARK VINA RESULT:      -7.3      3.854      6.336
REMARK  5 active torsions:
REMARK  status: ('A' for Active; 'I' for Inactive)
REMARK    1  A    between atoms: N_2  and  C_4 
REMARK    2  A    between atoms: C_4  and  C_5 
REMARK    3  A    between atoms: C_5  and  N_6 
REMARK    4  A    between atoms: C_11  and  C_12 
REMARK    5  A    between atoms: C_14  and  O_15 
ROOT
HETATM    1  N   UNL     1      27.087  43.628  52.224  1.00  0.00    -0.332 N 
HETATM    2  C   UNL     1      27.589  42.439  52.750  1.00  0.00     0.279 C 
HETATM    3  O   UNL     1      27.730  42.184  53.931  1.00  0.00    -0.265 OA
HETATM    4  C   UNL     1      27.892  41.556  51.612  1.00  0.00     0.156 A 
HETATM    5  C   UNL     1      27.463  42.192  50.523  1.00  0.00     0.060 A 
HETATM    6  C   UNL     1      26.833  43.503  50.787  1.00  0.00     0.161 C 
HETATM    7  O   UNL     1      28.485  40.328  51.685  1.00  0.00    -0.303 OA
HETATM    8  C   UNL     1      28.630  39.661  50.485  1.00  0.00     0.090 A 
HETATM    9  C   UNL     1      28.253  40.218  49.250  1.00  0.00     0.051 A 
HETATM   10  C   UNL     1      27.673  41.579  49.219  1.00  0.00     0.196 A 
HETATM   11  O   UNL     1      27.401  42.170  48.186  1.00  0.00    -0.287 OA
HETATM   12  C   UNL     1      29.179  38.379  50.535  1.00  0.00     0.041 A 
HETATM   13  C   UNL     1      29.346  37.658  49.352  1.00  0.00     0.045 A 
HETATM   14  C   UNL     1      28.968  38.221  48.135  1.00  0.00     0.117 A 
HETATM   15  F   UNL     1      29.131  37.517  47.008  1.00  0.00    -0.206 F 
HETATM   16  C   UNL     1      28.423  39.498  48.067  1.00  0.00     0.060 A 
ENDROOT
BRANCH   6  17
HETATM   17  C   UNL     1      25.355  43.565  50.447  1.00  0.00    -0.028 A 
HETATM   18  C   UNL     1      24.801  44.776  49.997  1.00  0.00     0.046 A 
HETATM   19  C   UNL     1      23.439  44.860  49.726  1.00  0.00     0.066 A 
HETATM   20  C   UNL     1      22.607  43.760  49.887  1.00  0.00     0.036 A 
HETATM   21  C   UNL     1      23.146  42.546  50.304  1.00  0.00     0.003 A 
HETATM   22  C   UNL     1      24.511  42.446  50.580  1.00  0.00     0.010 A 
BRANCH  19  23
HETATM   23  O   UNL     1      22.873  46.025  49.302  1.00  0.00    -0.361 OA
HETATM   24  H   UNL     1      23.309  46.311  48.482  1.00  0.00     0.217 HD
ENDBRANCH  19  23
ENDBRANCH   6  17
BRANCH   1  25
HETATM   25  C   UNL     1      26.436  44.632  53.054  1.00  0.00     0.155 C 
BRANCH  25  26
HETATM   26  C   UNL     1      27.404  45.486  53.896  1.00  0.00     0.254 C 
BRANCH  26  27
HETATM   27  N   UNL     1      26.715  46.721  54.465  1.00  0.00    -0.077 N 
HETATM   28  C   UNL     1      25.736  47.365  53.525  1.00  0.00     0.269 C 
HETATM   29  H   UNL     1      26.191  46.412  55.297  1.00  0.00     0.279 HD
HETATM   30  C   UNL     1      27.726  47.719  54.969  1.00  0.00     0.269 C 
ENDBRANCH  26  27
ENDBRANCH  25  26
ENDBRANCH   1  25
TORSDOF 5
ENDMDL
