MODEL 1
REMARK VINA RESULT:      -9.8      0.000      0.000
REMARK  5 active torsions:
REMARK  status: ('A' for Active; 'I' for Inactive)
REMARK    1  A    between atoms: C_6  and  S_7 
REMARK    2  A    between atoms: S_7  and  C_8 
REMARK    3  A    between atoms: C_8  and  C_9 
REMARK       I    between atoms: C_9  and  N_10 
REMARK    4  A    between atoms: N_10  and  C_11 
REMARK    5  A    between atoms: N_22  and  C_23 
ROOT
HETATM    1  C   UNL     1      17.758  51.719  49.811  1.00  0.00     0.001 A 
HETATM    2  C   UNL     1      19.131  51.566  49.997  1.00  0.00     0.019 A 
HETATM    3  C   UNL     1      19.810  50.530  49.342  1.00  0.00     0.061 A 
HETATM    4  C   UNL     1      19.130  49.646  48.514  1.00  0.00     0.075 A 
HETATM    5  N   UNL     1      19.765  48.563  47.903  1.00  0.00    -0.223 NA
HETATM    6  C   UNL     1      21.050  48.446  48.020  1.00  0.00     0.177 A 
HETATM    7  N   UNL     1      21.860  49.335  48.732  1.00  0.00    -0.256 N 
HETATM    8  C   UNL     1      21.269  50.369  49.474  1.00  0.00     0.267 A 
HETATM    9  O   UNL     1      21.868  51.176  50.183  1.00  0.00    -0.267 OA
HETATM   10  C   UNL     1      17.756  49.816  48.322  1.00  0.00     0.032 A 
HETATM   11  C   UNL     1      17.070  50.847  48.969  1.00  0.00     0.002 A 
ENDROOT
BRANCH   6  12
HETATM   12  S   UNL     1      21.753  46.973  47.355  1.00  0.00    -0.082 SA
BRANCH  12  13
HETATM   13  C   UNL     1      21.097  45.698  48.471  1.00  0.00     0.185 C 
BRANCH  13  14
HETATM   14  C   UNL     1      22.167  44.700  48.899  1.00  0.00     0.231 C 
HETATM   15  N   UNL     1      23.231  45.279  49.565  1.00  0.00    -0.326 N 
HETATM   16  H   UNL     1      23.222  46.298  49.597  1.00  0.00     0.169 HD
HETATM   17  O   UNL     1      22.020  43.498  48.691  1.00  0.00    -0.272 OA
BRANCH  15  18
HETATM   18  C   UNL     1      24.335  44.645  50.168  1.00  0.00     0.037 A 
HETATM   19  C   UNL     1      24.451  44.442  51.549  1.00  0.00     0.061 A 
HETATM   20  C   UNL     1      25.607  43.843  51.997  1.00  0.00     0.065 A 
HETATM   21  C   UNL     1      26.625  43.441  51.136  1.00  0.00     0.063 A 
HETATM   22  N   UNL     1      26.002  43.536  53.295  1.00  0.00    -0.306 N 
HETATM   23  N   UNL     1      27.644  42.886  51.902  1.00  0.00    -0.307 N 
HETATM   24  C   UNL     1      26.541  43.612  49.779  1.00  0.00     0.034 A 
HETATM   25  C   UNL     1      27.271  42.941  53.253  1.00  0.00     0.325 A 
HETATM   26  H   UNL     1      28.517  42.505  51.579  1.00  0.00     0.170 HD
HETATM   27  O   UNL     1      27.926  42.550  54.202  1.00  0.00    -0.247 OA
HETATM   28  C   UNL     1      25.377  44.225  49.298  1.00  0.00     0.032 A 
HETATM   29  H   UNL     1      25.485  43.704  54.143  1.00  0.00     0.170 HD
ENDBRANCH  15  18
ENDBRANCH  13  14
ENDBRANCH  12  13
ENDBRANCH   6  12
BRANCH   7  30
HETATM   30  C   UNL     1      23.297  49.290  48.701  1.00  0.00     0.046 A 
HETATM   31  C   UNL     1      24.009  48.491  49.612  1.00  0.00     0.057 A 
HETATM   32  C   UNL     1      25.406  48.484  49.612  1.00  0.00     0.074 A 
HETATM   33 CL   UNL     1      26.248  47.483  50.731  1.00  0.00    -0.081 Cl
HETATM   34  C   UNL     1      26.104  49.282  48.712  1.00  0.00     0.138 A 
HETATM   35  F   UNL     1      27.445  49.295  48.698  1.00  0.00    -0.204 F 
HETATM   36  C   UNL     1      25.420  50.093  47.812  1.00  0.00     0.046 A 
HETATM   37  C   UNL     1      24.022  50.101  47.811  1.00  0.00     0.033 A 
ENDBRANCH   7  30
TORSDOF 5
ENDMDL
MODEL 2
REMARK VINA RESULT:      -9.6      6.307      9.933
REMARK  5 active torsions:
REMARK  status: ('A' for Active; 'I' for Inactive)
REMARK    1  A    between atoms: C_6  and  S_7 
REMARK    2  A    between atoms: S_7  and  C_8 
REMARK    3  A    between atoms: C_8  and  C_9 
REMARK       I    between atoms: C_9  and  N_10 
REMARK    4  A    between atoms: N_10  and  C_11 
REMARK    5  A    between atoms: N_22  and  C_23 
ROOT
HETATM    1  C   UNL     1      30.713  45.597  58.463  1.00  0.00     0.001 A 
HETATM    2  C   UNL     1      29.717  45.942  57.550  1.00  0.00     0.019 A 
HETATM    3  C   UNL     1      29.585  45.219  56.358  1.00  0.00     0.061 A 
HETATM    4  C   UNL     1      30.440  44.163  56.069  1.00  0.00     0.075 A 
HETATM    5  N   UNL     1      30.379  43.468  54.860  1.00  0.00    -0.223 NA
HETATM    6  C   UNL     1      29.421  43.741  54.031  1.00  0.00     0.177 A 
HETATM    7  N   UNL     1      28.433  44.702  54.258  1.00  0.00    -0.256 N 
HETATM    8  C   UNL     1      28.513  45.523  55.394  1.00  0.00     0.267 A 
HETATM    9  O   UNL     1      27.741  46.438  55.673  1.00  0.00    -0.267 OA
HETATM   10  C   UNL     1      31.426  43.814  56.996  1.00  0.00     0.032 A 
HETATM   11  C   UNL     1      31.565  44.528  58.189  1.00  0.00     0.002 A 
ENDROOT
BRANCH   6  12
HETATM   12  S   UNL     1      29.504  42.934  52.466  1.00  0.00    -0.082 SA
BRANCH  12  13
HETATM   13  C   UNL     1      28.588  41.396  52.778  1.00  0.00     0.185 C 
BRANCH  13  14
HETATM   14  C   UNL     1      27.920  40.857  51.519  1.00  0.00     0.231 C 
HETATM   15  N   UNL     1      28.814  40.445  50.549  1.00  0.00    -0.326 N 
HETATM   16  H   UNL     1      29.794  40.643  50.748  1.00  0.00     0.169 HD
HETATM   17  O   UNL     1      26.696  40.772  51.448  1.00  0.00    -0.272 OA
BRANCH  15  18
HETATM   18  C   UNL     1      28.541  39.821  49.316  1.00  0.00     0.037 A 
HETATM   19  C   UNL     1      28.514  38.432  49.139  1.00  0.00     0.061 A 
HETATM   20  C   UNL     1      28.272  37.969  47.866  1.00  0.00     0.065 A 
HETATM   21  C   UNL     1      28.053  38.822  46.786  1.00  0.00     0.063 A 
HETATM   22  N   UNL     1      28.207  36.662  47.395  1.00  0.00    -0.306 N 
HETATM   23  N   UNL     1      27.852  38.042  45.654  1.00  0.00    -0.307 N 
HETATM   24  C   UNL     1      28.060  40.186  46.923  1.00  0.00     0.034 A 
HETATM   25  C   UNL     1      27.948  36.690  46.017  1.00  0.00     0.325 A 
HETATM   26  H   UNL     1      27.671  38.356  44.716  1.00  0.00     0.170 HD
HETATM   27  O   UNL     1      27.830  35.731  45.276  1.00  0.00    -0.247 OA
HETATM   28  C   UNL     1      28.310  40.682  48.209  1.00  0.00     0.032 A 
HETATM   29  H   UNL     1      28.324  35.817  47.930  1.00  0.00     0.170 HD
ENDBRANCH  15  18
ENDBRANCH  13  14
ENDBRANCH  12  13
ENDBRANCH   6  12
BRANCH   7  30
HETATM   30  C   UNL     1      27.281  44.864  53.413  1.00  0.00     0.046 A 
HETATM   31  C   UNL     1      27.221  45.911  52.477  1.00  0.00     0.057 A 
HETATM   32  C   UNL     1      26.082  46.096  51.690  1.00  0.00     0.074 A 
HETATM   33 CL   UNL     1      26.044  47.379  50.543  1.00  0.00    -0.081 Cl
HETATM   34  C   UNL     1      24.991  45.246  51.837  1.00  0.00     0.138 A 
HETATM   35  F   UNL     1      23.886  45.409  51.095  1.00  0.00    -0.204 F 
HETATM   36  C   UNL     1      25.022  44.214  52.767  1.00  0.00     0.046 A 
HETATM   37  C   UNL     1      26.161  44.027  53.556  1.00  0.00     0.033 A 
ENDBRANCH   7  30
TORSDOF 5
ENDMDL
MODEL 3
REMARK VINA RESULT:      -9.4      3.068      5.482
REMARK  5 active torsions:
REMARK  status: ('A' for Active; 'I' for Inactive)
REMARK    1  A    between atoms: C_6  and  S_7 
REMARK    2  A    between atoms: S_7  and  C_8 
REMARK    3  A    between atoms: C_8  and  C_9 
REMARK       I    between atoms: C_9  and  N_10 
REMARK    4  A    between atoms: N_10  and  C_11 
REMARK    5  A    between atoms: N_22  and  C_23 
ROOT
HETATM    1  C   UNL     1      27.308  50.206  48.582  1.00  0.00     0.001 A 
HETATM    2  C   UNL     1      25.983  50.194  48.146  1.00  0.00     0.019 A 
HETATM    3  C   UNL     1      25.151  49.118  48.481  1.00  0.00     0.061 A 
HETATM    4  C   UNL     1      25.631  48.056  49.238  1.00  0.00     0.075 A 
HETATM    5  N   UNL     1      24.848  46.938  49.529  1.00  0.00    -0.223 NA
HETATM    6  C   UNL     1      23.600  46.942  49.181  1.00  0.00     0.177 A 
HETATM    7  N   UNL     1      22.971  47.999  48.517  1.00  0.00    -0.256 N 
HETATM    8  C   UNL     1      23.732  49.095  48.082  1.00  0.00     0.267 A 
HETATM    9  O   UNL     1      23.307  50.054  47.441  1.00  0.00    -0.267 OA
HETATM   10  C   UNL     1      26.956  48.084  49.683  1.00  0.00     0.032 A 
HETATM   11  C   UNL     1      27.793  49.154  49.355  1.00  0.00     0.002 A 
ENDROOT
BRANCH   6  12
HETATM   12  S   UNL     1      22.722  45.437  49.444  1.00  0.00    -0.082 SA
BRANCH  12  13
HETATM   13  C   UNL     1      24.039  44.194  49.292  1.00  0.00     0.185 C 
BRANCH  13  14
HETATM   14  C   UNL     1      24.729  43.919  50.623  1.00  0.00     0.231 C 
HETATM   15  N   UNL     1      25.952  44.548  50.755  1.00  0.00    -0.326 N 
HETATM   16  H   UNL     1      26.287  45.029  49.920  1.00  0.00     0.169 HD
HETATM   17  O   UNL     1      24.178  43.235  51.483  1.00  0.00    -0.272 OA
BRANCH  15  18
HETATM   18  C   UNL     1      26.803  44.581  51.878  1.00  0.00     0.037 A 
HETATM   19  C   UNL     1      27.882  43.706  52.057  1.00  0.00     0.061 A 
HETATM   20  C   UNL     1      28.600  43.832  53.225  1.00  0.00     0.065 A 
HETATM   21  C   UNL     1      28.293  44.783  54.195  1.00  0.00     0.063 A 
HETATM   22  N   UNL     1      29.694  43.101  53.676  1.00  0.00    -0.306 N 
HETATM   23  N   UNL     1      29.196  44.638  55.241  1.00  0.00    -0.307 N 
HETATM   24  C   UNL     1      27.252  45.662  54.049  1.00  0.00     0.034 A 
HETATM   25  C   UNL     1      30.076  43.590  54.934  1.00  0.00     0.325 A 
HETATM   26  H   UNL     1      29.240  45.172  56.093  1.00  0.00     0.170 HD
HETATM   27  O   UNL     1      30.991  43.185  55.628  1.00  0.00    -0.247 OA
HETATM   28  C   UNL     1      26.502  45.551  52.872  1.00  0.00     0.032 A 
HETATM   29  H   UNL     1      30.154  42.341  53.203  1.00  0.00     0.170 HD
ENDBRANCH  15  18
ENDBRANCH  13  14
ENDBRANCH  12  13
ENDBRANCH   6  12
BRANCH   7  30
HETATM   30  C   UNL     1      21.552  48.061  48.300  1.00  0.00     0.046 A 
HETATM   31  C   UNL     1      20.705  48.640  49.261  1.00  0.00     0.057 A 
HETATM   32  C   UNL     1      19.321  48.658  49.071  1.00  0.00     0.074 A 
HETATM   33 CL   UNL     1      18.311  49.386  50.260  1.00  0.00    -0.081 Cl
HETATM   34  C   UNL     1      18.770  48.089  47.927  1.00  0.00     0.138 A 
HETATM   35  F   UNL     1      17.444  48.090  47.728  1.00  0.00    -0.204 F 
HETATM   36  C   UNL     1      19.587  47.496  46.971  1.00  0.00     0.046 A 
HETATM   37  C   UNL     1      20.973  47.478  47.159  1.00  0.00     0.033 A 
ENDBRANCH   7  30
TORSDOF 5
ENDMDL
MODEL 4
REMARK VINA RESULT:      -9.2      1.869      2.154
REMARK  5 active torsions:
REMARK  status: ('A' for Active; 'I' for Inactive)
REMARK    1  A    between atoms: C_6  and  S_7 
REMARK    2  A    between atoms: S_7  and  C_8 
REMARK    3  A    between atoms: C_8  and  C_9 
REMARK       I    between atoms: C_9  and  N_10 
REMARK    4  A    between atoms: N_10  and  C_11 
REMARK    5  A    between atoms: N_22  and  C_23 
ROOT
HETATM    1  C   UNL     1      18.420  51.729  49.626  1.00  0.00     0.001 A 
HETATM    2  C   UNL     1      19.767  51.499  49.903  1.00  0.00     0.019 A 
HETATM    3  C   UNL     1      20.414  50.393  49.339  1.00  0.00     0.061 A 
HETATM    4  C   UNL     1      19.728  49.515  48.509  1.00  0.00     0.075 A 
HETATM    5  N   UNL     1      20.325  48.366  47.987  1.00  0.00    -0.223 NA
HETATM    6  C   UNL     1      21.591  48.174  48.190  1.00  0.00     0.177 A 
HETATM    7  N   UNL     1      22.414  49.043  48.911  1.00  0.00    -0.256 N 
HETATM    8  C   UNL     1      21.849  50.146  49.568  1.00  0.00     0.267 A 
HETATM    9  O   UNL     1      22.456  50.947  50.277  1.00  0.00    -0.267 OA
HETATM   10  C   UNL     1      18.382  49.761  48.224  1.00  0.00     0.032 A 
HETATM   11  C   UNL     1      17.728  50.863  48.782  1.00  0.00     0.002 A 
ENDROOT
BRANCH   6  12
HETATM   12  S   UNL     1      22.234  46.629  47.635  1.00  0.00    -0.082 SA
BRANCH  12  13
HETATM   13  C   UNL     1      21.294  45.441  48.637  1.00  0.00     0.185 C 
BRANCH  13  14
HETATM   14  C   UNL     1      22.182  44.347  49.219  1.00  0.00     0.231 C 
HETATM   15  N   UNL     1      23.354  44.149  48.513  1.00  0.00    -0.326 N 
HETATM   16  H   UNL     1      23.434  44.679  47.645  1.00  0.00     0.169 HD
HETATM   17  O   UNL     1      21.860  43.763  50.251  1.00  0.00    -0.272 OA
BRANCH  15  18
HETATM   18  C   UNL     1      24.427  43.291  48.822  1.00  0.00     0.037 A 
HETATM   19  C   UNL     1      24.366  41.898  48.695  1.00  0.00     0.061 A 
HETATM   20  C   UNL     1      25.483  41.187  49.074  1.00  0.00     0.065 A 
HETATM   21  C   UNL     1      26.636  41.802  49.556  1.00  0.00     0.063 A 
HETATM   22  N   UNL     1      25.701  39.813  49.076  1.00  0.00    -0.306 N 
HETATM   23  N   UNL     1      27.562  40.810  49.853  1.00  0.00    -0.307 N 
HETATM   24  C   UNL     1      26.737  43.163  49.682  1.00  0.00     0.034 A 
HETATM   25  C   UNL     1      26.992  39.562  49.561  1.00  0.00     0.325 A 
HETATM   26  H   UNL     1      28.491  40.926  50.221  1.00  0.00     0.170 HD
HETATM   27  O   UNL     1      27.519  38.473  49.706  1.00  0.00    -0.247 OA
HETATM   28  C   UNL     1      25.611  43.909  49.309  1.00  0.00     0.032 A 
HETATM   29  H   UNL     1      25.057  39.095  48.786  1.00  0.00     0.170 HD
ENDBRANCH  15  18
ENDBRANCH  13  14
ENDBRANCH  12  13
ENDBRANCH   6  12
BRANCH   7  30
HETATM   30  C   UNL     1      23.844  48.907  48.971  1.00  0.00     0.046 A 
HETATM   31  C   UNL     1      24.440  48.008  49.873  1.00  0.00     0.057 A 
HETATM   32  C   UNL     1      25.830  47.910  49.964  1.00  0.00     0.074 A 
HETATM   33 CL   UNL     1      26.531  46.790  51.068  1.00  0.00    -0.081 Cl
HETATM   34  C   UNL     1      26.637  48.715  49.166  1.00  0.00     0.138 A 
HETATM   35  F   UNL     1      27.974  48.641  49.241  1.00  0.00    -0.204 F 
HETATM   36  C   UNL     1      26.069  49.622  48.279  1.00  0.00     0.046 A 
HETATM   37  C   UNL     1      24.677  49.721  48.185  1.00  0.00     0.033 A 
ENDBRANCH   7  30
TORSDOF 5
ENDMDL
MODEL 5
REMARK VINA RESULT:      -9.2      3.367      9.785
REMARK  5 active torsions:
REMARK  status: ('A' for Active; 'I' for Inactive)
REMARK    1  A    between atoms: C_6  and  S_7 
REMARK    2  A    between atoms: S_7  and  C_8 
REMARK    3  A    between atoms: C_8  and  C_9 
REMARK       I    between atoms: C_9  and  N_10 
REMARK    4  A    between atoms: N_10  and  C_11 
REMARK    5  A    between atoms: N_22  and  C_23 
ROOT
HETATM    1  C   UNL     1      30.177  44.554  55.773  1.00  0.00     0.001 A 
HETATM    2  C   UNL     1      29.841  43.494  54.931  1.00  0.00     0.019 A 
HETATM    3  C   UNL     1      28.792  43.641  54.014  1.00  0.00     0.061 A 
HETATM    4  C   UNL     1      28.076  44.828  53.936  1.00  0.00     0.075 A 
HETATM    5  N   UNL     1      26.983  44.981  53.082  1.00  0.00    -0.223 NA
HETATM    6  C   UNL     1      26.698  44.026  52.255  1.00  0.00     0.177 A 
HETATM    7  N   UNL     1      27.414  42.829  52.158  1.00  0.00    -0.256 N 
HETATM    8  C   UNL     1      28.442  42.560  53.074  1.00  0.00     0.267 A 
HETATM    9  O   UNL     1      29.102  41.524  53.128  1.00  0.00    -0.267 OA
HETATM   10  C   UNL     1      28.430  45.890  54.773  1.00  0.00     0.032 A 
HETATM   11  C   UNL     1      29.476  45.755  55.690  1.00  0.00     0.002 A 
ENDROOT
BRANCH   6  12
HETATM   12  S   UNL     1      25.216  44.228  51.324  1.00  0.00    -0.082 SA
BRANCH  12  13
HETATM   13  C   UNL     1      25.694  45.495  50.112  1.00  0.00     0.185 C 
BRANCH  13  14
HETATM   14  C   UNL     1      24.932  46.800  50.310  1.00  0.00     0.231 C 
HETATM   15  N   UNL     1      24.191  47.183  49.208  1.00  0.00    -0.326 N 
HETATM   16  H   UNL     1      24.323  46.611  48.374  1.00  0.00     0.169 HD
HETATM   17  O   UNL     1      24.968  47.387  51.389  1.00  0.00    -0.272 OA
BRANCH  15  18
HETATM   18  C   UNL     1      23.311  48.276  49.083  1.00  0.00     0.037 A 
HETATM   19  C   UNL     1      21.917  48.146  49.044  1.00  0.00     0.061 A 
HETATM   20  C   UNL     1      21.187  49.302  48.878  1.00  0.00     0.065 A 
HETATM   21  C   UNL     1      21.783  50.555  48.759  1.00  0.00     0.063 A 
HETATM   22  N   UNL     1      19.809  49.475  48.786  1.00  0.00    -0.306 N 
HETATM   23  N   UNL     1      20.775  51.498  48.596  1.00  0.00    -0.307 N 
HETATM   24  C   UNL     1      23.142  50.722  48.805  1.00  0.00     0.034 A 
HETATM   25  C   UNL     1      19.537  50.839  48.607  1.00  0.00     0.325 A 
HETATM   26  H   UNL     1      20.877  52.492  48.481  1.00  0.00     0.170 HD
HETATM   27  O   UNL     1      18.441  51.355  48.483  1.00  0.00    -0.247 OA
HETATM   28  C   UNL     1      23.908  49.560  48.967  1.00  0.00     0.032 A 
HETATM   29  H   UNL     1      19.103  48.760  48.833  1.00  0.00     0.170 HD
ENDBRANCH  15  18
ENDBRANCH  13  14
ENDBRANCH  12  13
ENDBRANCH   6  12
BRANCH   7  30
HETATM   30  C   UNL     1      27.196  41.862  51.117  1.00  0.00     0.046 A 
HETATM   31  C   UNL     1      27.785  42.026  49.852  1.00  0.00     0.057 A 
HETATM   32  C   UNL     1      27.535  41.110  48.827  1.00  0.00     0.074 A 
HETATM   33 CL   UNL     1      28.283  41.331  47.292  1.00  0.00    -0.081 Cl
HETATM   34  C   UNL     1      26.687  40.031  49.051  1.00  0.00     0.138 A 
HETATM   35  F   UNL     1      26.429  39.144  48.079  1.00  0.00    -0.204 F 
HETATM   36  C   UNL     1      26.080  39.858  50.290  1.00  0.00     0.046 A 
HETATM   37  C   UNL     1      26.329  40.773  51.318  1.00  0.00     0.033 A 
ENDBRANCH   7  30
TORSDOF 5
ENDMDL
MODEL 6
REMARK VINA RESULT:      -9.2      2.867      5.079
REMARK  5 active torsions:
REMARK  status: ('A' for Active; 'I' for Inactive)
REMARK    1  A    between atoms: C_6  and  S_7 
REMARK    2  A    between atoms: S_7  and  C_8 
REMARK    3  A    between atoms: C_8  and  C_9 
REMARK       I    between atoms: C_9  and  N_10 
REMARK    4  A    between atoms: N_10  and  C_11 
REMARK    5  A    between atoms: N_22  and  C_23 
ROOT
HETATM    1  C   UNL     1      27.525  49.524  48.828  1.00  0.00     0.001 A 
HETATM    2  C   UNL     1      26.348  50.145  48.412  1.00  0.00     0.019 A 
HETATM    3  C   UNL     1      25.121  49.489  48.575  1.00  0.00     0.061 A 
HETATM    4  C   UNL     1      25.061  48.222  49.140  1.00  0.00     0.075 A 
HETATM    5  N   UNL     1      23.863  47.514  49.252  1.00  0.00    -0.223 NA
HETATM    6  C   UNL     1      22.757  48.104  48.924  1.00  0.00     0.177 A 
HETATM    7  N   UNL     1      22.675  49.416  48.451  1.00  0.00    -0.256 N 
HETATM    8  C   UNL     1      23.852  50.135  48.194  1.00  0.00     0.267 A 
HETATM    9  O   UNL     1      23.912  51.270  47.724  1.00  0.00    -0.267 OA
HETATM   10  C   UNL     1      26.245  47.613  49.568  1.00  0.00     0.032 A 
HETATM   11  C   UNL     1      27.474  48.259  49.412  1.00  0.00     0.002 A 
ENDROOT
BRANCH   6  12
HETATM   12  S   UNL     1      21.311  47.096  48.945  1.00  0.00    -0.082 SA
BRANCH  12  13
HETATM   13  C   UNL     1      21.841  45.646  47.988  1.00  0.00     0.185 C 
BRANCH  13  14
HETATM   14  C   UNL     1      22.345  44.518  48.881  1.00  0.00     0.231 C 
HETATM   15  N   UNL     1      23.692  44.248  48.728  1.00  0.00    -0.326 N 
HETATM   16  H   UNL     1      24.155  44.757  47.976  1.00  0.00     0.169 HD
HETATM   17  O   UNL     1      21.591  43.970  49.681  1.00  0.00    -0.272 OA
BRANCH  15  18
HETATM   18  C   UNL     1      24.490  43.341  49.453  1.00  0.00     0.037 A 
HETATM   19  C   UNL     1      25.179  43.680  50.624  1.00  0.00     0.061 A 
HETATM   20  C   UNL     1      25.952  42.698  51.200  1.00  0.00     0.065 A 
HETATM   21  C   UNL     1      26.055  41.415  50.667  1.00  0.00     0.063 A 
HETATM   22  N   UNL     1      26.750  42.750  52.339  1.00  0.00    -0.306 N 
HETATM   23  N   UNL     1      26.912  40.679  51.476  1.00  0.00    -0.307 N 
HETATM   24  C   UNL     1      25.386  41.043  49.530  1.00  0.00     0.034 A 
HETATM   25  C   UNL     1      27.357  41.500  52.523  1.00  0.00     0.325 A 
HETATM   26  H   UNL     1      27.194  39.720  51.360  1.00  0.00     0.170 HD
HETATM   27  O   UNL     1      28.123  41.184  53.415  1.00  0.00    -0.247 OA
HETATM   28  C   UNL     1      24.597  42.027  48.921  1.00  0.00     0.032 A 
HETATM   29  H   UNL     1      26.889  43.541  52.947  1.00  0.00     0.170 HD
ENDBRANCH  15  18
ENDBRANCH  13  14
ENDBRANCH  12  13
ENDBRANCH   6  12
BRANCH   7  30
HETATM   30  C   UNL     1      21.430  50.111  48.264  1.00  0.00     0.046 A 
HETATM   31  C   UNL     1      20.722  50.000  47.054  1.00  0.00     0.057 A 
HETATM   32  C   UNL     1      19.537  50.712  46.857  1.00  0.00     0.074 A 
HETATM   33 CL   UNL     1      18.686  50.546  45.370  1.00  0.00    -0.081 Cl
HETATM   34  C   UNL     1      19.054  51.548  47.858  1.00  0.00     0.138 A 
HETATM   35  F   UNL     1      17.921  52.245  47.687  1.00  0.00    -0.204 F 
HETATM   36  C   UNL     1      19.746  51.685  49.057  1.00  0.00     0.046 A 
HETATM   37  C   UNL     1      20.932  50.973  49.257  1.00  0.00     0.033 A 
ENDBRANCH   7  30
TORSDOF 5
ENDMDL
MODEL 7
REMARK VINA RESULT:      -9.1      4.053      9.415
REMARK  5 active torsions:
REMARK  status: ('A' for Active; 'I' for Inactive)
REMARK    1  A    between atoms: C_6  and  S_7 
REMARK    2  A    between atoms: S_7  and  C_8 
REMARK    3  A    between atoms: C_8  and  C_9 
REMARK       I    between atoms: C_9  and  N_10 
REMARK    4  A    between atoms: N_10  and  C_11 
REMARK    5  A    between atoms: N_22  and  C_23 
ROOT
HETATM    1  C   UNL     1      31.236  44.137  56.461  1.00  0.00     0.001 A 
HETATM    2  C   UNL     1      30.721  43.463  55.355  1.00  0.00     0.019 A 
HETATM    3  C   UNL     1      29.510  43.880  54.788  1.00  0.00     0.061 A 
HETATM    4  C   UNL     1      28.809  44.956  55.318  1.00  0.00     0.075 A 
HETATM    5  N   UNL     1      27.567  45.351  54.820  1.00  0.00    -0.223 NA
HETATM    6  C   UNL     1      27.108  44.771  53.756  1.00  0.00     0.177 A 
HETATM    7  N   UNL     1      27.772  43.754  53.065  1.00  0.00    -0.256 N 
HETATM    8  C   UNL     1      28.961  43.224  53.587  1.00  0.00     0.267 A 
HETATM    9  O   UNL     1      29.605  42.293  53.105  1.00  0.00    -0.267 OA
HETATM   10  C   UNL     1      29.340  45.635  56.418  1.00  0.00     0.032 A 
HETATM   11  C   UNL     1      30.548  45.228  56.990  1.00  0.00     0.002 A 
ENDROOT
BRANCH   6  12
HETATM   12  S   UNL     1      25.470  45.216  53.282  1.00  0.00    -0.082 SA
BRANCH  12  13
HETATM   13  C   UNL     1      25.719  46.853  52.534  1.00  0.00     0.185 C 
BRANCH  13  14
HETATM   14  C   UNL     1      25.111  46.947  51.139  1.00  0.00     0.231 C 
HETATM   15  N   UNL     1      24.350  45.848  50.788  1.00  0.00    -0.326 N 
HETATM   16  H   UNL     1      24.371  45.075  51.453  1.00  0.00     0.169 HD
HETATM   17  O   UNL     1      25.274  47.954  50.453  1.00  0.00    -0.272 OA
BRANCH  15  18
HETATM   18  C   UNL     1      23.584  45.650  49.623  1.00  0.00     0.037 A 
HETATM   19  C   UNL     1      22.927  46.683  48.944  1.00  0.00     0.061 A 
HETATM   20  C   UNL     1      22.181  46.330  47.841  1.00  0.00     0.065 A 
HETATM   21  C   UNL     1      22.076  45.014  47.397  1.00  0.00     0.063 A 
HETATM   22  N   UNL     1      21.418  47.127  46.994  1.00  0.00    -0.306 N 
HETATM   23  N   UNL     1      21.251  45.001  46.279  1.00  0.00    -0.307 N 
HETATM   24  C   UNL     1      22.714  43.979  48.029  1.00  0.00     0.034 A 
HETATM   25  C   UNL     1      20.829  46.313  46.017  1.00  0.00     0.325 A 
HETATM   26  H   UNL     1      20.975  44.206  45.728  1.00  0.00     0.170 HD
HETATM   27  O   UNL     1      20.093  46.670  45.115  1.00  0.00    -0.247 OA
HETATM   28  C   UNL     1      23.475  44.311  49.158  1.00  0.00     0.032 A 
HETATM   29  H   UNL     1      21.289  48.124  47.052  1.00  0.00     0.170 HD
ENDBRANCH  15  18
ENDBRANCH  13  14
ENDBRANCH  12  13
ENDBRANCH   6  12
BRANCH   7  30
HETATM   30  C   UNL     1      27.334  43.250  51.792  1.00  0.00     0.046 A 
HETATM   31  C   UNL     1      26.987  41.896  51.638  1.00  0.00     0.057 A 
HETATM   32  C   UNL     1      26.606  41.397  50.391  1.00  0.00     0.074 A 
HETATM   33 CL   UNL     1      26.174  39.738  50.238  1.00  0.00    -0.081 Cl
HETATM   34  C   UNL     1      26.580  42.240  49.284  1.00  0.00     0.138 A 
HETATM   35  F   UNL     1      26.223  41.780  48.076  1.00  0.00    -0.204 F 
HETATM   36  C   UNL     1      26.935  43.578  49.409  1.00  0.00     0.046 A 
HETATM   37  C   UNL     1      27.315  44.080  50.657  1.00  0.00     0.033 A 
ENDBRANCH   7  30
TORSDOF 5
ENDMDL
MODEL 8
REMARK VINA RESULT:      -8.8      3.279      9.076
REMARK  5 active torsions:
REMARK  status: ('A' for Active; 'I' for Inactive)
REMARK    1  A    between atoms: C_6  and  S_7 
REMARK    2  A    between atoms: S_7  and  C_8 
REMARK    3  A    between atoms: C_8  and  C_9 
REMARK       I    between atoms: C_9  and  N_10 
REMARK    4  A    between atoms: N_10  and  C_11 
REMARK    5  A    between atoms: N_22  and  C_23 
ROOT
HETATM    1  C   UNL     1      27.821  46.434  55.476  1.00  0.00     0.001 A 
HETATM    2  C   UNL     1      27.437  45.316  54.737  1.00  0.00     0.019 A 
HETATM    3  C   UNL     1      26.720  45.484  53.545  1.00  0.00     0.061 A 
HETATM    4  C   UNL     1      26.380  46.752  53.092  1.00  0.00     0.075 A 
HETATM    5  N   UNL     1      25.607  46.949  51.946  1.00  0.00    -0.223 NA
HETATM    6  C   UNL     1      25.295  45.922  51.220  1.00  0.00     0.177 A 
HETATM    7  N   UNL     1      25.675  44.608  51.509  1.00  0.00    -0.256 N 
HETATM    8  C   UNL     1      26.341  44.328  52.712  1.00  0.00     0.267 A 
HETATM    9  O   UNL     1      26.675  43.212  53.104  1.00  0.00    -0.267 OA
HETATM   10  C   UNL     1      26.782  47.868  53.831  1.00  0.00     0.032 A 
HETATM   11  C   UNL     1      27.499  47.711  55.021  1.00  0.00     0.002 A 
ENDROOT
BRANCH   6  12
HETATM   12  S   UNL     1      24.191  46.232  49.882  1.00  0.00    -0.082 SA
BRANCH  12  13
HETATM   13  C   UNL     1      24.526  47.977  49.504  1.00  0.00     0.185 C 
BRANCH  13  14
HETATM   14  C   UNL     1      23.333  48.666  48.853  1.00  0.00     0.231 C 
HETATM   15  N   UNL     1      22.192  48.657  49.634  1.00  0.00    -0.326 N 
HETATM   16  H   UNL     1      22.257  48.110  50.492  1.00  0.00     0.169 HD
HETATM   17  O   UNL     1      23.446  49.207  47.756  1.00  0.00    -0.272 OA
BRANCH  15  18
HETATM   18  C   UNL     1      20.952  49.274  49.378  1.00  0.00     0.037 A 
HETATM   19  C   UNL     1      20.580  50.514  49.912  1.00  0.00     0.061 A 
HETATM   20  C   UNL     1      19.319  50.973  49.606  1.00  0.00     0.065 A 
HETATM   21  C   UNL     1      18.437  50.260  48.797  1.00  0.00     0.063 A 
HETATM   22  N   UNL     1      18.680  52.144  50.002  1.00  0.00    -0.306 N 
HETATM   23  N   UNL     1      17.259  50.989  48.695  1.00  0.00    -0.307 N 
HETATM   24  C   UNL     1      18.771  49.049  48.248  1.00  0.00     0.034 A 
HETATM   25  C   UNL     1      17.394  52.167  49.445  1.00  0.00     0.325 A 
HETATM   26  H   UNL     1      16.427  50.745  48.185  1.00  0.00     0.170 HD
HETATM   27  O   UNL     1      16.553  53.037  49.584  1.00  0.00    -0.247 OA
HETATM   28  C   UNL     1      20.047  48.558  48.549  1.00  0.00     0.032 A 
HETATM   29  H   UNL     1      19.053  52.869  50.593  1.00  0.00     0.170 HD
ENDBRANCH  15  18
ENDBRANCH  13  14
ENDBRANCH  12  13
ENDBRANCH   6  12
BRANCH   7  30
HETATM   30  C   UNL     1      25.474  43.512  50.601  1.00  0.00     0.046 A 
HETATM   31  C   UNL     1      26.526  43.049  49.792  1.00  0.00     0.057 A 
HETATM   32  C   UNL     1      26.317  42.015  48.877  1.00  0.00     0.074 A 
HETATM   33 CL   UNL     1      27.629  41.462  47.909  1.00  0.00    -0.081 Cl
HETATM   34  C   UNL     1      25.056  41.440  48.754  1.00  0.00     0.138 A 
HETATM   35  F   UNL     1      24.833  40.450  47.878  1.00  0.00    -0.204 F 
HETATM   36  C   UNL     1      23.997  41.892  49.533  1.00  0.00     0.046 A 
HETATM   37  C   UNL     1      24.204  42.928  50.450  1.00  0.00     0.033 A 
ENDBRANCH   7  30
TORSDOF 5
ENDMDL
MODEL 9
REMARK VINA RESULT:      -8.7     11.491     13.334
REMARK  5 active torsions:
REMARK  status: ('A' for Active; 'I' for Inactive)
REMARK    1  A    between atoms: C_6  and  S_7 
REMARK    2  A    between atoms: S_7  and  C_8 
REMARK    3  A    between atoms: C_8  and  C_9 
REMARK       I    between atoms: C_9  and  N_10 
REMARK    4  A    between atoms: N_10  and  C_11 
REMARK    5  A    between atoms: N_22  and  C_23 
ROOT
HETATM    1  C   UNL     1      29.506  54.331  39.510  1.00  0.00     0.001 A 
HETATM    2  C   UNL     1      28.746  53.290  38.976  1.00  0.00     0.019 A 
HETATM    3  C   UNL     1      28.879  51.996  39.495  1.00  0.00     0.061 A 
HETATM    4  C   UNL     1      29.764  51.732  40.532  1.00  0.00     0.075 A 
HETATM    5  N   UNL     1      29.969  50.442  41.024  1.00  0.00    -0.223 NA
HETATM    6  C   UNL     1      29.227  49.478  40.577  1.00  0.00     0.177 A 
HETATM    7  N   UNL     1      28.225  49.637  39.616  1.00  0.00    -0.256 N 
HETATM    8  C   UNL     1      28.056  50.882  38.990  1.00  0.00     0.267 A 
HETATM    9  O   UNL     1      27.251  51.130  38.094  1.00  0.00    -0.267 OA
HETATM   10  C   UNL     1      30.510  52.784  41.071  1.00  0.00     0.032 A 
HETATM   11  C   UNL     1      30.384  54.079  40.562  1.00  0.00     0.002 A 
ENDROOT
BRANCH   6  12
HETATM   12  S   UNL     1      29.652  47.859  41.129  1.00  0.00    -0.082 SA
BRANCH  12  13
HETATM   13  C   UNL     1      31.110  47.479  40.114  1.00  0.00     0.185 C 
BRANCH  13  14
HETATM   14  C   UNL     1      32.411  47.879  40.801  1.00  0.00     0.231 C 
HETATM   15  N   UNL     1      32.692  49.229  40.716  1.00  0.00    -0.326 N 
HETATM   16  H   UNL     1      32.059  49.769  40.126  1.00  0.00     0.169 HD
HETATM   17  O   UNL     1      33.082  47.044  41.404  1.00  0.00    -0.272 OA
BRANCH  15  18
HETATM   18  C   UNL     1      33.753  49.941  41.308  1.00  0.00     0.037 A 
HETATM   19  C   UNL     1      33.612  50.724  42.461  1.00  0.00     0.061 A 
HETATM   20  C   UNL     1      34.730  51.394  42.902  1.00  0.00     0.065 A 
HETATM   21  C   UNL     1      35.960  51.309  42.253  1.00  0.00     0.063 A 
HETATM   22  N   UNL     1      34.883  52.247  43.990  1.00  0.00    -0.306 N 
HETATM   23  N   UNL     1      36.867  52.105  42.941  1.00  0.00    -0.307 N 
HETATM   24  C   UNL     1      36.139  50.544  41.130  1.00  0.00     0.034 A 
HETATM   25  C   UNL     1      36.209  52.700  44.027  1.00  0.00     0.325 A 
HETATM   26  H   UNL     1      37.838  52.259  42.725  1.00  0.00     0.170 HD
HETATM   27  O   UNL     1      36.697  53.464  44.841  1.00  0.00    -0.247 OA
HETATM   28  C   UNL     1      35.014  49.856  40.658  1.00  0.00     0.032 A 
HETATM   29  H   UNL     1      34.176  52.514  44.656  1.00  0.00     0.170 HD
ENDBRANCH  15  18
ENDBRANCH  13  14
ENDBRANCH  12  13
ENDBRANCH   6  12
BRANCH   7  30
HETATM   30  C   UNL     1      27.296  48.597  39.267  1.00  0.00     0.046 A 
HETATM   31  C   UNL     1      26.130  48.393  40.024  1.00  0.00     0.057 A 
HETATM   32  C   UNL     1      25.252  47.353  39.711  1.00  0.00     0.074 A 
HETATM   33 CL   UNL     1      23.825  47.137  40.650  1.00  0.00    -0.081 Cl
HETATM   34  C   UNL     1      25.534  46.501  38.649  1.00  0.00     0.138 A 
HETATM   35  F   UNL     1      24.708  45.493  38.335  1.00  0.00    -0.204 F 
HETATM   36  C   UNL     1      26.690  46.674  37.896  1.00  0.00     0.046 A 
HETATM   37  C   UNL     1      27.570  47.715  38.206  1.00  0.00     0.033 A 
ENDBRANCH   7  30
TORSDOF 5
ENDMDL
MODEL 10
REMARK VINA RESULT:      -8.6      3.318      9.796
REMARK  5 active torsions:
REMARK  status: ('A' for Active; 'I' for Inactive)
REMARK    1  A    between atoms: C_6  and  S_7 
REMARK    2  A    between atoms: S_7  and  C_8 
REMARK    3  A    between atoms: C_8  and  C_9 
REMARK       I    between atoms: C_9  and  N_10 
REMARK    4  A    between atoms: N_10  and  C_11 
REMARK    5  A    between atoms: N_22  and  C_23 
ROOT
HETATM    1  C   UNL     1      28.321  38.500  49.195  1.00  0.00     0.001 A 
HETATM    2  C   UNL     1      28.548  39.274  50.333  1.00  0.00     0.019 A 
HETATM    3  C   UNL     1      28.145  40.615  50.352  1.00  0.00     0.061 A 
HETATM    4  C   UNL     1      27.528  41.189  49.248  1.00  0.00     0.075 A 
HETATM    5  N   UNL     1      27.178  42.540  49.211  1.00  0.00    -0.223 NA
HETATM    6  C   UNL     1      27.329  43.253  50.282  1.00  0.00     0.177 A 
HETATM    7  N   UNL     1      27.833  42.763  51.490  1.00  0.00    -0.256 N 
HETATM    8  C   UNL     1      28.321  41.449  51.555  1.00  0.00     0.267 A 
HETATM    9  O   UNL     1      28.839  40.924  52.539  1.00  0.00    -0.267 OA
HETATM   10  C   UNL     1      27.291  40.401  48.117  1.00  0.00     0.032 A 
HETATM   11  C   UNL     1      27.688  39.062  48.088  1.00  0.00     0.002 A 
ENDROOT
BRANCH   6  12
HETATM   12  S   UNL     1      27.013  44.978  50.110  1.00  0.00    -0.082 SA
BRANCH  12  13
HETATM   13  C   UNL     1      25.246  45.004  49.688  1.00  0.00     0.185 C 
BRANCH  13  14
HETATM   14  C   UNL     1      24.605  46.358  49.970  1.00  0.00     0.231 C 
HETATM   15  N   UNL     1      23.923  46.886  48.890  1.00  0.00    -0.326 N 
HETATM   16  H   UNL     1      24.016  46.364  48.019  1.00  0.00     0.169 HD
HETATM   17  O   UNL     1      24.678  46.862  51.088  1.00  0.00    -0.272 OA
BRANCH  15  18
HETATM   18  C   UNL     1      23.151  48.063  48.834  1.00  0.00     0.037 A 
HETATM   19  C   UNL     1      21.770  48.094  49.063  1.00  0.00     0.061 A 
HETATM   20  C   UNL     1      21.143  49.313  48.934  1.00  0.00     0.065 A 
HETATM   21  C   UNL     1      21.830  50.478  48.598  1.00  0.00     0.063 A 
HETATM   22  N   UNL     1      19.799  49.640  49.081  1.00  0.00    -0.306 N 
HETATM   23  N   UNL     1      20.911  51.518  48.541  1.00  0.00    -0.307 N 
HETATM   24  C   UNL     1      23.182  50.488  48.378  1.00  0.00     0.034 A 
HETATM   25  C   UNL     1      19.638  51.010  48.837  1.00  0.00     0.325 A 
HETATM   26  H   UNL     1      21.089  52.484  48.322  1.00  0.00     0.170 HD
HETATM   27  O   UNL     1      18.596  51.641  48.872  1.00  0.00    -0.247 OA
HETATM   28  C   UNL     1      23.843  49.258  48.498  1.00  0.00     0.032 A 
HETATM   29  H   UNL     1      19.045  49.016  49.320  1.00  0.00     0.170 HD
ENDBRANCH  15  18
ENDBRANCH  13  14
ENDBRANCH  12  13
ENDBRANCH   6  12
BRANCH   7  30
HETATM   30  C   UNL     1      27.824  43.519  52.713  1.00  0.00     0.046 A 
HETATM   31  C   UNL     1      29.019  43.765  53.411  1.00  0.00     0.057 A 
HETATM   32  C   UNL     1      29.004  44.460  54.623  1.00  0.00     0.074 A 
HETATM   33 CL   UNL     1      30.486  44.757  55.448  1.00  0.00    -0.081 Cl
HETATM   34  C   UNL     1      27.798  44.904  55.154  1.00  0.00     0.138 A 
HETATM   35  F   UNL     1      27.760  45.568  56.319  1.00  0.00    -0.204 F 
HETATM   36  C   UNL     1      26.602  44.658  54.488  1.00  0.00     0.046 A 
HETATM   37  C   UNL     1      26.615  43.963  53.275  1.00  0.00     0.033 A 
ENDBRANCH   7  30
TORSDOF 5
ENDMDL
