MODEL 1
REMARK VINA RESULT:      -9.1      0.000      0.000
REMARK  5 active torsions:
REMARK  status: ('A' for Active; 'I' for Inactive)
REMARK    1  A    between atoms: C_4  and  N_5 
REMARK       I    between atoms: N_5  and  C_6 
REMARK       I    between atoms: C_6  and  N_7 
REMARK    2  A    between atoms: N_7  and  C_8 
REMARK    3  A    between atoms: C_10  and  C_11 
REMARK       I    between atoms: C_11  and  N_12 
REMARK    4  A    between atoms: N_12  and  C_13 
REMARK    5  A    between atoms: C_13  and  C_14 
ROOT
HETATM    1  C   UNL     1      26.380  45.136  51.731  1.00  0.00     0.078 A 
HETATM    2  S   UNL     1      25.982  46.785  51.774  1.00  0.00    -0.067 SA
HETATM    3  C   UNL     1      26.372  46.997  50.113  1.00  0.00     0.074 A 
HETATM    4  C   UNL     1      26.932  45.842  49.592  1.00  0.00     0.027 A 
HETATM    5  C   UNL     1      26.938  44.761  50.535  1.00  0.00     0.039 A 
ENDROOT
BRANCH   1   6
HETATM    6  N   UNL     1      26.093  44.488  52.904  1.00  0.00    -0.303 N 
HETATM    7  C   UNL     1      26.836  44.341  54.043  1.00  0.00     0.325 C 
HETATM    8  N   UNL     1      28.167  44.654  53.960  1.00  0.00    -0.309 N 
HETATM    9  O   UNL     1      26.272  43.861  55.024  1.00  0.00    -0.247 OA
HETATM   10  H   UNL     1      28.502  44.906  53.047  1.00  0.00     0.170 HD
HETATM   11  H   UNL     1      25.218  43.978  52.937  1.00  0.00     0.171 HD
BRANCH   8  12
HETATM   12  C   UNL     1      29.170  44.447  54.931  1.00  0.00     0.036 A 
HETATM   13  C   UNL     1      29.989  43.317  54.988  1.00  0.00     0.029 A 
HETATM   14  C   UNL     1      30.998  43.220  55.953  1.00  0.00     0.002 A 
HETATM   15  C   UNL     1      31.187  44.244  56.879  1.00  0.00     0.000 A 
HETATM   16  C   UNL     1      30.366  45.366  56.842  1.00  0.00     0.002 A 
HETATM   17  C   UNL     1      29.365  45.469  55.871  1.00  0.00     0.029 A 
ENDBRANCH   8  12
ENDBRANCH   1   6
BRANCH   3  18
HETATM   18  C   UNL     1      26.062  48.276  49.486  1.00  0.00     0.258 C 
HETATM   19  N   UNL     1      24.728  48.491  49.198  1.00  0.00    -0.352 N 
HETATM   20  H   UNL     1      24.070  47.728  49.257  1.00  0.00     0.163 HD
HETATM   21  O   UNL     1      26.907  49.133  49.234  1.00  0.00    -0.267 OA
BRANCH  19  22
HETATM   22  C   UNL     1      24.259  49.759  48.682  1.00  0.00     0.162 C 
BRANCH  22  23
HETATM   23  C   UNL     1      22.767  49.911  48.744  1.00  0.00    -0.023 A 
HETATM   24  C   UNL     1      21.959  48.830  49.089  1.00  0.00     0.125 A 
HETATM   25  N   UNL     1      20.614  48.892  49.223  1.00  0.00    -0.273 NA
HETATM   26  C   UNL     1      20.040  50.097  49.019  1.00  0.00     0.116 A 
HETATM   27  C   UNL     1      20.748  51.238  48.685  1.00  0.00     0.020 A 
HETATM   28  C   UNL     1      22.131  51.142  48.551  1.00  0.00     0.012 A 
ENDBRANCH  22  23
ENDBRANCH  19  22
ENDBRANCH   3  18
TORSDOF 5
ENDMDL
MODEL 2
REMARK VINA RESULT:      -9.0      1.982     10.051
REMARK  5 active torsions:
REMARK  status: ('A' for Active; 'I' for Inactive)
REMARK    1  A    between atoms: C_4  and  N_5 
REMARK       I    between atoms: N_5  and  C_6 
REMARK       I    between atoms: C_6  and  N_7 
REMARK    2  A    between atoms: N_7  and  C_8 
REMARK    3  A    between atoms: C_10  and  C_11 
REMARK       I    between atoms: C_11  and  N_12 
REMARK    4  A    between atoms: N_12  and  C_13 
REMARK    5  A    between atoms: C_13  and  C_14 
ROOT
HETATM    1  C   UNL     1      24.125  46.604  49.870  1.00  0.00     0.078 A 
HETATM    2  S   UNL     1      24.279  45.025  50.471  1.00  0.00    -0.067 SA
HETATM    3  C   UNL     1      25.211  45.549  51.817  1.00  0.00     0.074 A 
HETATM    4  C   UNL     1      25.509  46.897  51.708  1.00  0.00     0.027 A 
HETATM    5  C   UNL     1      24.879  47.509  50.574  1.00  0.00     0.039 A 
ENDROOT
BRANCH   1   6
HETATM    6  N   UNL     1      23.299  46.681  48.779  1.00  0.00    -0.303 N 
HETATM    7  C   UNL     1      22.374  47.626  48.430  1.00  0.00     0.325 C 
HETATM    8  N   UNL     1      22.000  48.517  49.401  1.00  0.00    -0.309 N 
HETATM    9  O   UNL     1      21.888  47.548  47.303  1.00  0.00    -0.247 OA
HETATM   10  H   UNL     1      22.393  48.362  50.313  1.00  0.00     0.170 HD
HETATM   11  H   UNL     1      23.316  45.892  48.143  1.00  0.00     0.171 HD
BRANCH   8  12
HETATM   12  C   UNL     1      20.968  49.477  49.349  1.00  0.00     0.036 A 
HETATM   13  C   UNL     1      19.707  49.309  49.924  1.00  0.00     0.029 A 
HETATM   14  C   UNL     1      18.759  50.338  49.871  1.00  0.00     0.002 A 
HETATM   15  C   UNL     1      19.059  51.537  49.230  1.00  0.00     0.000 A 
HETATM   16  C   UNL     1      20.305  51.710  48.638  1.00  0.00     0.002 A 
HETATM   17  C   UNL     1      21.256  50.686  48.699  1.00  0.00     0.029 A 
ENDBRANCH   8  12
ENDBRANCH   1   6
BRANCH   3  18
HETATM   18  C   UNL     1      25.533  44.580  52.856  1.00  0.00     0.258 C 
HETATM   19  N   UNL     1      26.798  44.029  52.786  1.00  0.00    -0.352 N 
HETATM   20  H   UNL     1      27.363  44.166  51.962  1.00  0.00     0.163 HD
HETATM   21  O   UNL     1      24.759  44.265  53.758  1.00  0.00    -0.267 OA
BRANCH  19  22
HETATM   22  C   UNL     1      27.297  43.141  53.815  1.00  0.00     0.162 C 
BRANCH  22  23
HETATM   23  C   UNL     1      28.516  43.667  54.515  1.00  0.00    -0.023 A 
HETATM   24  C   UNL     1      28.517  44.943  55.073  1.00  0.00     0.125 A 
HETATM   25  N   UNL     1      29.549  45.473  55.769  1.00  0.00    -0.273 NA
HETATM   26  C   UNL     1      30.635  44.688  55.933  1.00  0.00     0.116 A 
HETATM   27  C   UNL     1      30.736  43.402  55.432  1.00  0.00     0.020 A 
HETATM   28  C   UNL     1      29.658  42.885  54.718  1.00  0.00     0.012 A 
ENDBRANCH  22  23
ENDBRANCH  19  22
ENDBRANCH   3  18
TORSDOF 5
ENDMDL
MODEL 3
REMARK VINA RESULT:      -8.9      1.903      2.692
REMARK  5 active torsions:
REMARK  status: ('A' for Active; 'I' for Inactive)
REMARK    1  A    between atoms: C_4  and  N_5 
REMARK       I    between atoms: N_5  and  C_6 
REMARK       I    between atoms: C_6  and  N_7 
REMARK    2  A    between atoms: N_7  and  C_8 
REMARK    3  A    between atoms: C_10  and  C_11 
REMARK       I    between atoms: C_11  and  N_12 
REMARK    4  A    between atoms: N_12  and  C_13 
REMARK    5  A    between atoms: C_13  and  C_14 
ROOT
HETATM    1  C   UNL     1      25.385  46.427  50.093  1.00  0.00     0.078 A 
HETATM    2  S   UNL     1      23.942  47.214  49.675  1.00  0.00    -0.067 SA
HETATM    3  C   UNL     1      24.777  48.608  49.116  1.00  0.00     0.074 A 
HETATM    4  C   UNL     1      26.132  48.506  49.388  1.00  0.00     0.027 A 
HETATM    5  C   UNL     1      26.484  47.238  49.958  1.00  0.00     0.039 A 
ENDROOT
BRANCH   1   6
HETATM    6  N   UNL     1      25.187  45.137  50.511  1.00  0.00    -0.303 N 
HETATM    7  C   UNL     1      25.861  44.388  51.436  1.00  0.00     0.325 C 
HETATM    8  N   UNL     1      27.075  44.865  51.855  1.00  0.00    -0.309 N 
HETATM    9  O   UNL     1      25.367  43.308  51.753  1.00  0.00    -0.247 OA
HETATM   10  H   UNL     1      27.400  45.699  51.397  1.00  0.00     0.170 HD
HETATM   11  H   UNL     1      24.467  44.611  50.028  1.00  0.00     0.171 HD
BRANCH   8  12
HETATM   12  C   UNL     1      28.027  44.220  52.672  1.00  0.00     0.036 A 
HETATM   13  C   UNL     1      28.868  43.192  52.240  1.00  0.00     0.029 A 
HETATM   14  C   UNL     1      29.823  42.646  53.105  1.00  0.00     0.002 A 
HETATM   15  C   UNL     1      29.936  43.111  54.412  1.00  0.00     0.000 A 
HETATM   16  C   UNL     1      29.092  44.123  54.859  1.00  0.00     0.002 A 
HETATM   17  C   UNL     1      28.145  44.676  53.993  1.00  0.00     0.029 A 
ENDBRANCH   8  12
ENDBRANCH   1   6
BRANCH   3  18
HETATM   18  C   UNL     1      24.013  49.651  48.442  1.00  0.00     0.258 C 
HETATM   19  N   UNL     1      22.914  50.124  49.132  1.00  0.00    -0.352 N 
HETATM   20  H   UNL     1      22.584  49.636  49.951  1.00  0.00     0.163 HD
HETATM   21  O   UNL     1      24.311  50.109  47.341  1.00  0.00    -0.267 OA
BRANCH  19  22
HETATM   22  C   UNL     1      22.131  51.237  48.638  1.00  0.00     0.162 C 
BRANCH  22  23
HETATM   23  C   UNL     1      20.690  51.182  49.056  1.00  0.00    -0.023 A 
HETATM   24  C   UNL     1      20.275  50.303  50.053  1.00  0.00     0.125 A 
HETATM   25  N   UNL     1      19.010  50.227  50.528  1.00  0.00    -0.273 NA
HETATM   26  C   UNL     1      18.111  51.082  49.996  1.00  0.00     0.116 A 
HETATM   27  C   UNL     1      18.418  52.004  49.011  1.00  0.00     0.020 A 
HETATM   28  C   UNL     1      19.727  52.056  48.540  1.00  0.00     0.012 A 
ENDBRANCH  22  23
ENDBRANCH  19  22
ENDBRANCH   3  18
TORSDOF 5
ENDMDL
MODEL 4
REMARK VINA RESULT:      -8.5      2.151      9.840
REMARK  5 active torsions:
REMARK  status: ('A' for Active; 'I' for Inactive)
REMARK    1  A    between atoms: C_4  and  N_5 
REMARK       I    between atoms: N_5  and  C_6 
REMARK       I    between atoms: C_6  and  N_7 
REMARK    2  A    between atoms: N_7  and  C_8 
REMARK    3  A    between atoms: C_10  and  C_11 
REMARK       I    between atoms: C_11  and  N_12 
REMARK    4  A    between atoms: N_12  and  C_13 
REMARK    5  A    between atoms: C_13  and  C_14 
ROOT
HETATM    1  C   UNL     1      25.014  45.065  51.517  1.00  0.00     0.078 A 
HETATM    2  S   UNL     1      26.113  43.772  51.542  1.00  0.00    -0.067 SA
HETATM    3  C   UNL     1      26.858  44.336  52.984  1.00  0.00     0.074 A 
HETATM    4  C   UNL     1      26.350  45.574  53.343  1.00  0.00     0.027 A 
HETATM    5  C   UNL     1      25.279  45.997  52.488  1.00  0.00     0.039 A 
ENDROOT
BRANCH   1   6
HETATM    6  N   UNL     1      24.081  44.952  50.520  1.00  0.00    -0.303 N 
HETATM    7  C   UNL     1      23.621  45.878  49.624  1.00  0.00     0.325 C 
HETATM    8  N   UNL     1      23.921  47.190  49.878  1.00  0.00    -0.309 N 
HETATM    9  O   UNL     1      22.905  45.469  48.711  1.00  0.00    -0.247 OA
HETATM   10  H   UNL     1      24.403  47.370  50.742  1.00  0.00     0.170 HD
HETATM   11  H   UNL     1      23.596  44.064  50.453  1.00  0.00     0.171 HD
BRANCH   8  12
HETATM   12  C   UNL     1      23.444  48.336  49.208  1.00  0.00     0.036 A 
HETATM   13  C   UNL     1      22.094  48.665  49.075  1.00  0.00     0.029 A 
HETATM   14  C   UNL     1      21.712  49.853  48.441  1.00  0.00     0.002 A 
HETATM   15  C   UNL     1      22.676  50.713  47.919  1.00  0.00     0.000 A 
HETATM   16  C   UNL     1      24.023  50.387  48.030  1.00  0.00     0.002 A 
HETATM   17  C   UNL     1      24.406  49.206  48.673  1.00  0.00     0.029 A 
ENDBRANCH   8  12
ENDBRANCH   1   6
BRANCH   3  18
HETATM   18  C   UNL     1      27.852  43.487  53.629  1.00  0.00     0.258 C 
HETATM   19  N   UNL     1      29.132  44.003  53.684  1.00  0.00    -0.352 N 
HETATM   20  H   UNL     1      29.368  44.824  53.146  1.00  0.00     0.163 HD
HETATM   21  O   UNL     1      27.595  42.387  54.115  1.00  0.00    -0.267 OA
BRANCH  19  22
HETATM   22  C   UNL     1      30.194  43.324  54.395  1.00  0.00     0.162 C 
BRANCH  22  23
HETATM   23  C   UNL     1      30.477  43.913  55.746  1.00  0.00    -0.023 A 
HETATM   24  C   UNL     1      31.358  43.285  56.622  1.00  0.00     0.125 A 
HETATM   25  N   UNL     1      31.714  43.774  57.832  1.00  0.00    -0.273 NA
HETATM   26  C   UNL     1      31.176  44.961  58.187  1.00  0.00     0.116 A 
HETATM   27  C   UNL     1      30.301  45.676  57.389  1.00  0.00     0.020 A 
HETATM   28  C   UNL     1      29.952  45.145  56.150  1.00  0.00     0.012 A 
ENDBRANCH  22  23
ENDBRANCH  19  22
ENDBRANCH   3  18
TORSDOF 5
ENDMDL
MODEL 5
REMARK VINA RESULT:      -8.2      2.190      2.494
REMARK  5 active torsions:
REMARK  status: ('A' for Active; 'I' for Inactive)
REMARK    1  A    between atoms: C_4  and  N_5 
REMARK       I    between atoms: N_5  and  C_6 
REMARK       I    between atoms: C_6  and  N_7 
REMARK    2  A    between atoms: N_7  and  C_8 
REMARK    3  A    between atoms: C_10  and  C_11 
REMARK       I    between atoms: C_11  and  N_12 
REMARK    4  A    between atoms: N_12  and  C_13 
REMARK    5  A    between atoms: C_13  and  C_14 
ROOT
HETATM    1  C   UNL     1      26.539  43.275  51.210  1.00  0.00     0.078 A 
HETATM    2  S   UNL     1      24.857  43.486  51.293  1.00  0.00    -0.067 SA
HETATM    3  C   UNL     1      24.852  44.563  49.953  1.00  0.00     0.074 A 
HETATM    4  C   UNL     1      26.147  44.853  49.557  1.00  0.00     0.027 A 
HETATM    5  C   UNL     1      27.127  44.105  50.289  1.00  0.00     0.039 A 
ENDROOT
BRANCH   1   6
HETATM    6  N   UNL     1      27.002  42.334  52.092  1.00  0.00    -0.303 N 
HETATM    7  C   UNL     1      27.666  42.479  53.279  1.00  0.00     0.325 C 
HETATM    8  N   UNL     1      28.192  43.714  53.549  1.00  0.00    -0.309 N 
HETATM    9  O   UNL     1      27.814  41.470  53.967  1.00  0.00    -0.247 OA
HETATM   10  H   UNL     1      28.099  44.400  52.819  1.00  0.00     0.170 HD
HETATM   11  H   UNL     1      26.899  41.364  51.814  1.00  0.00     0.171 HD
BRANCH   8  12
HETATM   12  C   UNL     1      29.041  44.084  54.613  1.00  0.00     0.036 A 
HETATM   13  C   UNL     1      30.206  43.398  54.964  1.00  0.00     0.029 A 
HETATM   14  C   UNL     1      31.020  43.868  56.002  1.00  0.00     0.002 A 
HETATM   15  C   UNL     1      30.669  45.016  56.707  1.00  0.00     0.000 A 
HETATM   16  C   UNL     1      29.502  45.698  56.377  1.00  0.00     0.002 A 
HETATM   17  C   UNL     1      28.694  45.235  55.334  1.00  0.00     0.029 A 
ENDBRANCH   8  12
ENDBRANCH   1   6
BRANCH   3  18
HETATM   18  C   UNL     1      23.568  44.993  49.414  1.00  0.00     0.258 C 
HETATM   19  N   UNL     1      23.385  46.359  49.330  1.00  0.00    -0.352 N 
HETATM   20  H   UNL     1      24.032  46.984  49.786  1.00  0.00     0.163 HD
HETATM   21  O   UNL     1      22.694  44.216  49.037  1.00  0.00    -0.267 OA
BRANCH  19  22
HETATM   22  C   UNL     1      22.208  46.929  48.709  1.00  0.00     0.162 C 
BRANCH  22  23
HETATM   23  C   UNL     1      22.194  48.431  48.727  1.00  0.00    -0.023 A 
HETATM   24  C   UNL     1      23.221  49.141  49.343  1.00  0.00     0.125 A 
HETATM   25  N   UNL     1      23.317  50.490  49.357  1.00  0.00    -0.273 NA
HETATM   26  C   UNL     1      22.347  51.172  48.711  1.00  0.00     0.116 A 
HETATM   27  C   UNL     1      21.289  50.569  48.056  1.00  0.00     0.020 A 
HETATM   28  C   UNL     1      21.216  49.178  48.061  1.00  0.00     0.012 A 
ENDBRANCH  22  23
ENDBRANCH  19  22
ENDBRANCH   3  18
TORSDOF 5
ENDMDL
MODEL 6
REMARK VINA RESULT:      -8.1      2.326     10.027
REMARK  5 active torsions:
REMARK  status: ('A' for Active; 'I' for Inactive)
REMARK    1  A    between atoms: C_4  and  N_5 
REMARK       I    between atoms: N_5  and  C_6 
REMARK       I    between atoms: C_6  and  N_7 
REMARK    2  A    between atoms: N_7  and  C_8 
REMARK    3  A    between atoms: C_10  and  C_11 
REMARK       I    between atoms: C_11  and  N_12 
REMARK    4  A    between atoms: N_12  and  C_13 
REMARK    5  A    between atoms: C_13  and  C_14 
ROOT
HETATM    1  C   UNL     1      23.266  47.043  49.081  1.00  0.00     0.078 A 
HETATM    2  S   UNL     1      23.558  45.422  49.489  1.00  0.00    -0.067 SA
HETATM    3  C   UNL     1      24.681  45.856  50.715  1.00  0.00     0.074 A 
HETATM    4  C   UNL     1      24.920  47.220  50.697  1.00  0.00     0.027 A 
HETATM    5  C   UNL     1      24.098  47.909  49.746  1.00  0.00     0.039 A 
ENDROOT
BRANCH   1   6
HETATM    6  N   UNL     1      22.272  47.188  48.149  1.00  0.00    -0.303 N 
HETATM    7  C   UNL     1      21.371  48.200  47.959  1.00  0.00     0.325 C 
HETATM    8  N   UNL     1      21.235  49.108  48.976  1.00  0.00    -0.309 N 
HETATM    9  O   UNL     1      20.695  48.165  46.933  1.00  0.00    -0.247 OA
HETATM   10  H   UNL     1      21.767  48.918  49.808  1.00  0.00     0.170 HD
HETATM   11  H   UNL     1      22.122  46.405  47.523  1.00  0.00     0.171 HD
BRANCH   8  12
HETATM   12  C   UNL     1      20.281  50.140  49.097  1.00  0.00     0.036 A 
HETATM   13  C   UNL     1      20.402  51.397  48.500  1.00  0.00     0.029 A 
HETATM   14  C   UNL     1      19.380  52.344  48.628  1.00  0.00     0.002 A 
HETATM   15  C   UNL     1      18.235  52.049  49.365  1.00  0.00     0.000 A 
HETATM   16  C   UNL     1      18.111  50.807  49.978  1.00  0.00     0.002 A 
HETATM   17  C   UNL     1      19.128  49.856  49.842  1.00  0.00     0.029 A 
ENDBRANCH   8  12
ENDBRANCH   1   6
BRANCH   3  18
HETATM   18  C   UNL     1      25.193  44.806  51.588  1.00  0.00     0.258 C 
HETATM   19  N   UNL     1      26.540  44.884  51.886  1.00  0.00    -0.352 N 
HETATM   20  H   UNL     1      27.134  45.520  51.375  1.00  0.00     0.163 HD
HETATM   21  O   UNL     1      24.496  43.909  52.056  1.00  0.00    -0.267 OA
BRANCH  19  22
HETATM   22  C   UNL     1      27.161  43.980  52.830  1.00  0.00     0.162 C 
BRANCH  22  23
HETATM   23  C   UNL     1      27.876  44.684  53.947  1.00  0.00    -0.023 A 
HETATM   24  C   UNL     1      29.042  44.151  54.489  1.00  0.00     0.125 A 
HETATM   25  N   UNL     1      29.779  44.746  55.455  1.00  0.00    -0.273 NA
HETATM   26  C   UNL     1      29.341  45.944  55.898  1.00  0.00     0.116 A 
HETATM   27  C   UNL     1      28.204  46.571  55.421  1.00  0.00     0.020 A 
HETATM   28  C   UNL     1      27.465  45.932  54.428  1.00  0.00     0.012 A 
ENDBRANCH  22  23
ENDBRANCH  19  22
ENDBRANCH   3  18
TORSDOF 5
ENDMDL
MODEL 7
REMARK VINA RESULT:      -8.0      1.643      2.081
REMARK  5 active torsions:
REMARK  status: ('A' for Active; 'I' for Inactive)
REMARK    1  A    between atoms: C_4  and  N_5 
REMARK       I    between atoms: N_5  and  C_6 
REMARK       I    between atoms: C_6  and  N_7 
REMARK    2  A    between atoms: N_7  and  C_8 
REMARK    3  A    between atoms: C_10  and  C_11 
REMARK       I    between atoms: C_11  and  N_12 
REMARK    4  A    between atoms: N_12  and  C_13 
REMARK    5  A    between atoms: C_13  and  C_14 
ROOT
HETATM    1  C   UNL     1      25.883  45.117  51.596  1.00  0.00     0.078 A 
HETATM    2  S   UNL     1      24.431  44.987  50.728  1.00  0.00    -0.067 SA
HETATM    3  C   UNL     1      24.478  46.640  50.258  1.00  0.00     0.074 A 
HETATM    4  C   UNL     1      25.523  47.296  50.887  1.00  0.00     0.027 A 
HETATM    5  C   UNL     1      26.338  46.410  51.666  1.00  0.00     0.039 A 
ENDROOT
BRANCH   1   6
HETATM    6  N   UNL     1      26.320  43.914  52.086  1.00  0.00    -0.303 N 
HETATM    7  C   UNL     1      27.149  43.631  53.137  1.00  0.00     0.325 C 
HETATM    8  N   UNL     1      27.875  44.671  53.653  1.00  0.00    -0.309 N 
HETATM    9  O   UNL     1      27.241  42.453  53.478  1.00  0.00    -0.247 OA
HETATM   10  H   UNL     1      27.785  45.550  53.172  1.00  0.00     0.170 HD
HETATM   11  H   UNL     1      26.045  43.088  51.567  1.00  0.00     0.171 HD
BRANCH   8  12
HETATM   12  C   UNL     1      28.901  44.620  54.620  1.00  0.00     0.036 A 
HETATM   13  C   UNL     1      29.055  45.547  55.652  1.00  0.00     0.029 A 
HETATM   14  C   UNL     1      30.071  45.388  56.603  1.00  0.00     0.002 A 
HETATM   15  C   UNL     1      30.949  44.310  56.520  1.00  0.00     0.000 A 
HETATM   16  C   UNL     1      30.815  43.390  55.486  1.00  0.00     0.002 A 
HETATM   17  C   UNL     1      29.794  43.542  54.542  1.00  0.00     0.029 A 
ENDBRANCH   8  12
ENDBRANCH   1   6
BRANCH   3  18
HETATM   18  C   UNL     1      23.491  47.115  49.296  1.00  0.00     0.258 C 
HETATM   19  N   UNL     1      23.240  48.473  49.322  1.00  0.00    -0.352 N 
HETATM   20  H   UNL     1      23.588  49.036  50.084  1.00  0.00     0.163 HD
HETATM   21  O   UNL     1      22.918  46.384  48.491  1.00  0.00    -0.267 OA
BRANCH  19  22
HETATM   22  C   UNL     1      22.372  49.102  48.349  1.00  0.00     0.162 C 
BRANCH  22  23
HETATM   23  C   UNL     1      21.107  49.648  48.945  1.00  0.00    -0.023 A 
HETATM   24  C   UNL     1      20.140  48.789  49.461  1.00  0.00     0.125 A 
HETATM   25  N   UNL     1      19.000  49.195  50.066  1.00  0.00    -0.273 NA
HETATM   26  C   UNL     1      18.816  50.528  50.177  1.00  0.00     0.116 A 
HETATM   27  C   UNL     1      19.716  51.469  49.712  1.00  0.00     0.020 A 
HETATM   28  C   UNL     1      20.879  51.020  49.091  1.00  0.00     0.012 A 
ENDBRANCH  22  23
ENDBRANCH  19  22
ENDBRANCH   3  18
TORSDOF 5
ENDMDL
MODEL 8
REMARK VINA RESULT:      -7.7     17.196     19.104
REMARK  5 active torsions:
REMARK  status: ('A' for Active; 'I' for Inactive)
REMARK    1  A    between atoms: C_4  and  N_5 
REMARK       I    between atoms: N_5  and  C_6 
REMARK       I    between atoms: C_6  and  N_7 
REMARK    2  A    between atoms: N_7  and  C_8 
REMARK    3  A    between atoms: C_10  and  C_11 
REMARK       I    between atoms: C_11  and  N_12 
REMARK    4  A    between atoms: N_12  and  C_13 
REMARK    5  A    between atoms: C_13  and  C_14 
ROOT
HETATM    1  C   UNL     1      39.267  42.493  62.867  1.00  0.00     0.078 A 
HETATM    2  S   UNL     1      37.691  43.037  63.181  1.00  0.00    -0.067 SA
HETATM    3  C   UNL     1      38.247  44.582  63.689  1.00  0.00     0.074 A 
HETATM    4  C   UNL     1      39.631  44.608  63.745  1.00  0.00     0.027 A 
HETATM    5  C   UNL     1      40.223  43.392  63.269  1.00  0.00     0.039 A 
ENDROOT
BRANCH   1   6
HETATM    6  N   UNL     1      39.297  41.248  62.294  1.00  0.00    -0.303 N 
HETATM    7  C   UNL     1      39.602  40.028  62.832  1.00  0.00     0.325 C 
HETATM    8  N   UNL     1      40.217  40.027  64.056  1.00  0.00    -0.309 N 
HETATM    9  O   UNL     1      39.380  39.037  62.140  1.00  0.00    -0.247 OA
HETATM   10  H   UNL     1      40.451  40.930  64.431  1.00  0.00     0.170 HD
HETATM   11  H   UNL     1      39.126  41.206  61.296  1.00  0.00     0.171 HD
BRANCH   8  12
HETATM   12  C   UNL     1      40.768  38.929  64.750  1.00  0.00     0.036 A 
HETATM   13  C   UNL     1      42.073  38.464  64.577  1.00  0.00     0.029 A 
HETATM   14  C   UNL     1      42.555  37.400  65.349  1.00  0.00     0.002 A 
HETATM   15  C   UNL     1      41.733  36.784  66.289  1.00  0.00     0.000 A 
HETATM   16  C   UNL     1      40.426  37.228  66.459  1.00  0.00     0.002 A 
HETATM   17  C   UNL     1      39.947  38.297  65.695  1.00  0.00     0.029 A 
ENDBRANCH   8  12
ENDBRANCH   1   6
BRANCH   3  18
HETATM   18  C   UNL     1      37.259  45.621  63.956  1.00  0.00     0.258 C 
HETATM   19  N   UNL     1      37.760  46.903  64.074  1.00  0.00    -0.352 N 
HETATM   20  H   UNL     1      38.755  47.051  64.150  1.00  0.00     0.163 HD
HETATM   21  O   UNL     1      36.054  45.403  64.059  1.00  0.00    -0.267 OA
BRANCH  19  22
HETATM   22  C   UNL     1      36.886  48.047  64.224  1.00  0.00     0.162 C 
BRANCH  22  23
HETATM   23  C   UNL     1      37.073  48.772  65.525  1.00  0.00    -0.023 A 
HETATM   24  C   UNL     1      36.567  48.244  66.709  1.00  0.00     0.125 A 
HETATM   25  N   UNL     1      36.738  48.800  67.931  1.00  0.00    -0.273 NA
HETATM   26  C   UNL     1      37.466  49.936  67.981  1.00  0.00     0.116 A 
HETATM   27  C   UNL     1      38.026  50.540  66.870  1.00  0.00     0.020 A 
HETATM   28  C   UNL     1      37.829  49.945  65.626  1.00  0.00     0.012 A 
ENDBRANCH  22  23
ENDBRANCH  19  22
ENDBRANCH   3  18
TORSDOF 5
ENDMDL
MODEL 9
REMARK VINA RESULT:      -7.4      4.649      9.207
REMARK  5 active torsions:
REMARK  status: ('A' for Active; 'I' for Inactive)
REMARK    1  A    between atoms: C_4  and  N_5 
REMARK       I    between atoms: N_5  and  C_6 
REMARK       I    between atoms: C_6  and  N_7 
REMARK    2  A    between atoms: N_7  and  C_8 
REMARK    3  A    between atoms: C_10  and  C_11 
REMARK       I    between atoms: C_11  and  N_12 
REMARK    4  A    between atoms: N_12  and  C_13 
REMARK    5  A    between atoms: C_13  and  C_14 
ROOT
HETATM    1  C   UNL     1      25.577  44.202  51.916  1.00  0.00     0.078 A 
HETATM    2  S   UNL     1      27.047  43.436  52.274  1.00  0.00    -0.067 SA
HETATM    3  C   UNL     1      26.679  42.094  51.266  1.00  0.00     0.074 A 
HETATM    4  C   UNL     1      25.382  42.186  50.786  1.00  0.00     0.027 A 
HETATM    5  C   UNL     1      24.742  43.412  51.166  1.00  0.00     0.039 A 
ENDROOT
BRANCH   1   6
HETATM    6  N   UNL     1      25.483  45.457  52.460  1.00  0.00    -0.303 N 
HETATM    7  C   UNL     1      25.410  46.683  51.858  1.00  0.00     0.325 C 
HETATM    8  N   UNL     1      25.726  46.741  50.527  1.00  0.00    -0.309 N 
HETATM    9  O   UNL     1      25.153  47.647  52.577  1.00  0.00    -0.247 OA
HETATM   10  H   UNL     1      26.048  45.882  50.114  1.00  0.00     0.170 HD
HETATM   11  H   UNL     1      25.532  45.516  53.470  1.00  0.00     0.171 HD
BRANCH   8  12
HETATM   12  C   UNL     1      25.879  47.887  49.719  1.00  0.00     0.036 A 
HETATM   13  C   UNL     1      24.820  48.580  49.129  1.00  0.00     0.029 A 
HETATM   14  C   UNL     1      25.059  49.743  48.387  1.00  0.00     0.002 A 
HETATM   15  C   UNL     1      26.358  50.213  48.214  1.00  0.00     0.000 A 
HETATM   16  C   UNL     1      27.423  49.521  48.783  1.00  0.00     0.002 A 
HETATM   17  C   UNL     1      27.184  48.366  49.533  1.00  0.00     0.029 A 
ENDBRANCH   8  12
ENDBRANCH   1   6
BRANCH   3  18
HETATM   18  C   UNL     1      27.716  41.097  51.031  1.00  0.00     0.258 C 
HETATM   19  N   UNL     1      27.589  40.368  49.865  1.00  0.00    -0.352 N 
HETATM   20  H   UNL     1      26.734  40.415  49.331  1.00  0.00     0.163 HD
HETATM   21  O   UNL     1      28.662  40.907  51.793  1.00  0.00    -0.267 OA
BRANCH  19  22
HETATM   22  C   UNL     1      28.606  39.427  49.445  1.00  0.00     0.162 C 
BRANCH  22  23
HETATM   23  C   UNL     1      28.511  39.058  47.992  1.00  0.00    -0.023 A 
HETATM   24  C   UNL     1      28.793  37.761  47.572  1.00  0.00     0.125 A 
HETATM   25  N   UNL     1      28.679  37.329  46.295  1.00  0.00    -0.273 NA
HETATM   26  C   UNL     1      28.246  38.230  45.387  1.00  0.00     0.116 A 
HETATM   27  C   UNL     1      27.926  39.540  45.698  1.00  0.00     0.020 A 
HETATM   28  C   UNL     1      28.056  39.955  47.020  1.00  0.00     0.012 A 
ENDBRANCH  22  23
ENDBRANCH  19  22
ENDBRANCH   3  18
TORSDOF 5
ENDMDL
MODEL 10
REMARK VINA RESULT:      -7.3      3.245      5.756
REMARK  5 active torsions:
REMARK  status: ('A' for Active; 'I' for Inactive)
REMARK    1  A    between atoms: C_4  and  N_5 
REMARK       I    between atoms: N_5  and  C_6 
REMARK       I    between atoms: C_6  and  N_7 
REMARK    2  A    between atoms: N_7  and  C_8 
REMARK    3  A    between atoms: C_10  and  C_11 
REMARK       I    between atoms: C_11  and  N_12 
REMARK    4  A    between atoms: N_12  and  C_13 
REMARK    5  A    between atoms: C_13  and  C_14 
ROOT
HETATM    1  C   UNL     1      23.449  48.564  48.960  1.00  0.00     0.078 A 
HETATM    2  S   UNL     1      22.655  49.972  49.476  1.00  0.00    -0.067 SA
HETATM    3  C   UNL     1      21.106  49.243  49.327  1.00  0.00     0.074 A 
HETATM    4  C   UNL     1      21.212  47.987  48.752  1.00  0.00     0.027 A 
HETATM    5  C   UNL     1      22.575  47.595  48.537  1.00  0.00     0.039 A 
ENDROOT
BRANCH   1   6
HETATM    6  N   UNL     1      24.814  48.662  49.038  1.00  0.00    -0.303 N 
HETATM    7  C   UNL     1      25.710  47.988  49.820  1.00  0.00     0.325 C 
HETATM    8  N   UNL     1      25.202  47.279  50.876  1.00  0.00    -0.309 N 
HETATM    9  O   UNL     1      26.904  48.142  49.567  1.00  0.00    -0.247 OA
HETATM   10  H   UNL     1      24.212  47.364  51.026  1.00  0.00     0.170 HD
HETATM   11  H   UNL     1      25.247  49.386  48.476  1.00  0.00     0.171 HD
BRANCH   8  12
HETATM   12  C   UNL     1      25.912  46.633  51.911  1.00  0.00     0.036 A 
HETATM   13  C   UNL     1      26.169  47.199  53.160  1.00  0.00     0.029 A 
HETATM   14  C   UNL     1      26.833  46.465  54.149  1.00  0.00     0.002 A 
HETATM   15  C   UNL     1      27.260  45.164  53.892  1.00  0.00     0.000 A 
HETATM   16  C   UNL     1      27.024  44.595  52.645  1.00  0.00     0.002 A 
HETATM   17  C   UNL     1      26.351  45.325  51.660  1.00  0.00     0.029 A 
ENDBRANCH   8  12
ENDBRANCH   1   6
BRANCH   3  18
HETATM   18  C   UNL     1      19.945  49.976  49.816  1.00  0.00     0.258 C 
HETATM   19  N   UNL     1      19.802  51.260  49.328  1.00  0.00    -0.352 N 
HETATM   20  H   UNL     1      20.558  51.694  48.821  1.00  0.00     0.163 HD
HETATM   21  O   UNL     1      19.122  49.503  50.597  1.00  0.00    -0.267 OA
BRANCH  19  22
HETATM   22  C   UNL     1      18.637  52.063  49.636  1.00  0.00     0.162 C 
BRANCH  22  23
HETATM   23  C   UNL     1      17.643  52.123  48.513  1.00  0.00    -0.023 A 
HETATM   24  C   UNL     1      16.292  52.337  48.774  1.00  0.00     0.125 A 
HETATM   25  N   UNL     1      15.339  52.461  47.822  1.00  0.00    -0.273 NA
HETATM   26  C   UNL     1      15.752  52.385  46.539  1.00  0.00     0.116 A 
HETATM   27  C   UNL     1      17.069  52.188  46.166  1.00  0.00     0.020 A 
HETATM   28  C   UNL     1      18.027  52.060  47.169  1.00  0.00     0.012 A 
ENDBRANCH  22  23
ENDBRANCH  19  22
ENDBRANCH   3  18
TORSDOF 5
ENDMDL
