MODEL 1
REMARK VINA RESULT:      -8.6      0.000      0.000
REMARK  3 active torsions:
REMARK  status: ('A' for Active; 'I' for Inactive)
REMARK    1  A    between atoms: C_9  and  C_10 
REMARK    2  A    between atoms: C_16  and  C_17 
REMARK       I    between atoms: C_17  and  N_18 
REMARK    3  A    between atoms: N_18  and  C_19 
ROOT
HETATM    1  C   UNL     1      22.569  44.498  48.010  1.00  0.00     0.070 C 
HETATM    2  C   UNL     1      23.449  45.268  48.964  1.00  0.00     0.037 C 
HETATM    3  N   UNL     1      24.343  44.502  49.706  1.00  0.00    -0.192 N 
HETATM    4  C   UNL     1      25.006  44.985  50.774  1.00  0.00     0.725 A 
HETATM    5  N   UNL     1      24.948  46.324  51.052  1.00  0.00    -0.082 N 
HETATM    6  N   UNL     1      25.536  46.604  52.238  1.00  0.00    -0.149 NA
HETATM    7  C   UNL     1      25.998  45.393  52.573  1.00  0.00     0.275 A 
HETATM    8  N   UNL     1      25.693  44.376  51.706  1.00  0.00    -0.054 NA
HETATM    9  C   UNL     1      24.226  47.301  50.235  1.00  0.00     0.221 C 
HETATM   10  C   UNL     1      23.370  46.605  49.183  1.00  0.00     0.064 C 
HETATM   11  H   UNL     1      24.322  43.494  49.575  1.00  0.00     0.184 HD
ENDROOT
BRANCH  10  12
HETATM   12  C   UNL     1      22.391  47.509  48.527  1.00  0.00     0.256 C 
HETATM   13  N   UNL     1      21.591  48.205  49.402  1.00  0.00    -0.322 N 
HETATM   14  H   UNL     1      21.663  47.960  50.383  1.00  0.00     0.169 HD
HETATM   15  O   UNL     1      22.355  47.548  47.303  1.00  0.00    -0.267 OA
BRANCH  13  16
HETATM   16  C   UNL     1      20.710  49.256  49.072  1.00  0.00     0.052 A 
HETATM   17  C   UNL     1      19.338  49.121  48.872  1.00  0.00     0.145 A 
HETATM   18  N   UNL     1      18.515  50.138  48.508  1.00  0.00    -0.271 NA
HETATM   19  C   UNL     1      19.082  51.348  48.331  1.00  0.00     0.116 A 
HETATM   20  C   UNL     1      20.433  51.591  48.507  1.00  0.00     0.021 A 
HETATM   21  C   UNL     1      21.255  50.529  48.887  1.00  0.00     0.032 A 
ENDBRANCH  13  16
ENDBRANCH  10  12
BRANCH   9  22
HETATM   22  C   UNL     1      25.239  48.268  49.630  1.00  0.00     0.064 A 
HETATM   23  N   UNL     1      24.775  49.364  48.965  1.00  0.00    -0.263 NA
HETATM   24  C   UNL     1      25.688  50.166  48.372  1.00  0.00     0.117 A 
HETATM   25  C   UNL     1      27.052  49.945  48.411  1.00  0.00     0.019 A 
HETATM   26  C   UNL     1      27.517  48.834  49.102  1.00  0.00     0.003 A 
HETATM   27  C   UNL     1      26.604  47.983  49.718  1.00  0.00     0.030 A 
ENDBRANCH   9  22
TORSDOF 3
ENDMDL
MODEL 2
REMARK VINA RESULT:      -8.4      4.446      8.442
REMARK  3 active torsions:
REMARK  status: ('A' for Active; 'I' for Inactive)
REMARK    1  A    between atoms: C_9  and  C_10 
REMARK    2  A    between atoms: C_16  and  C_17 
REMARK       I    between atoms: C_17  and  N_18 
REMARK    3  A    between atoms: N_18  and  C_19 
ROOT
HETATM    1  C   UNL     1      25.691  47.080  52.347  1.00  0.00     0.070 C 
HETATM    2  C   UNL     1      25.236  45.807  51.677  1.00  0.00     0.037 C 
HETATM    3  N   UNL     1      24.385  45.973  50.589  1.00  0.00    -0.192 N 
HETATM    4  C   UNL     1      23.685  44.958  50.048  1.00  0.00     0.725 A 
HETATM    5  N   UNL     1      23.940  43.675  50.452  1.00  0.00    -0.082 N 
HETATM    6  N   UNL     1      23.045  42.808  49.926  1.00  0.00    -0.149 NA
HETATM    7  C   UNL     1      22.334  43.634  49.148  1.00  0.00     0.275 A 
HETATM    8  N   UNL     1      22.692  44.957  49.196  1.00  0.00    -0.054 NA
HETATM    9  C   UNL     1      24.965  43.313  51.433  1.00  0.00     0.221 C 
HETATM   10  C   UNL     1      25.541  44.555  52.103  1.00  0.00     0.064 C 
HETATM   11  H   UNL     1      24.112  46.922  50.345  1.00  0.00     0.184 HD
ENDROOT
BRANCH  10  12
HETATM   12  C   UNL     1      26.357  44.251  53.306  1.00  0.00     0.256 C 
HETATM   13  N   UNL     1      27.708  44.440  53.135  1.00  0.00    -0.322 N 
HETATM   14  H   UNL     1      28.026  44.655  52.197  1.00  0.00     0.169 HD
HETATM   15  O   UNL     1      25.791  43.846  54.314  1.00  0.00    -0.267 OA
BRANCH  13  16
HETATM   16  C   UNL     1      28.691  44.405  54.147  1.00  0.00     0.052 A 
HETATM   17  C   UNL     1      28.902  45.404  55.095  1.00  0.00     0.145 A 
HETATM   18  N   UNL     1      29.885  45.371  56.032  1.00  0.00    -0.271 NA
HETATM   19  C   UNL     1      30.699  44.297  56.026  1.00  0.00     0.116 A 
HETATM   20  C   UNL     1      30.573  43.249  55.130  1.00  0.00     0.021 A 
HETATM   21  C   UNL     1      29.551  43.305  54.182  1.00  0.00     0.032 A 
ENDBRANCH  13  16
ENDBRANCH  10  12
BRANCH   9  22
HETATM   22  C   UNL     1      26.027  42.470  50.733  1.00  0.00     0.064 A 
HETATM   23  N   UNL     1      26.370  42.789  49.452  1.00  0.00    -0.263 NA
HETATM   24  C   UNL     1      27.257  41.982  48.826  1.00  0.00     0.117 A 
HETATM   25  C   UNL     1      27.839  40.872  49.411  1.00  0.00     0.019 A 
HETATM   26  C   UNL     1      27.494  40.564  50.720  1.00  0.00     0.003 A 
HETATM   27  C   UNL     1      26.578  41.367  51.391  1.00  0.00     0.030 A 
ENDBRANCH   9  22
TORSDOF 3
ENDMDL
MODEL 3
REMARK VINA RESULT:      -8.3      3.168      5.590
REMARK  3 active torsions:
REMARK  status: ('A' for Active; 'I' for Inactive)
REMARK    1  A    between atoms: C_9  and  C_10 
REMARK    2  A    between atoms: C_16  and  C_17 
REMARK       I    between atoms: C_17  and  N_18 
REMARK    3  A    between atoms: N_18  and  C_19 
ROOT
HETATM    1  C   UNL     1      26.605  45.848  54.496  1.00  0.00     0.070 C 
HETATM    2  C   UNL     1      26.644  44.899  53.323  1.00  0.00     0.037 C 
HETATM    3  N   UNL     1      27.052  43.602  53.615  1.00  0.00    -0.192 N 
HETATM    4  C   UNL     1      27.392  42.712  52.662  1.00  0.00     0.725 A 
HETATM    5  N   UNL     1      27.164  43.016  51.348  1.00  0.00    -0.082 N 
HETATM    6  N   UNL     1      27.706  42.085  50.528  1.00  0.00    -0.149 NA
HETATM    7  C   UNL     1      28.169  41.209  51.428  1.00  0.00     0.275 A 
HETATM    8  N   UNL     1      27.999  41.556  52.744  1.00  0.00    -0.054 NA
HETATM    9  C   UNL     1      26.535  44.255  50.889  1.00  0.00     0.221 C 
HETATM   10  C   UNL     1      26.381  45.246  52.038  1.00  0.00     0.064 C 
HETATM   11  H   UNL     1      27.318  43.396  54.574  1.00  0.00     0.184 HD
ENDROOT
BRANCH  10  12
HETATM   12  C   UNL     1      26.033  46.618  51.591  1.00  0.00     0.256 C 
HETATM   13  N   UNL     1      26.437  46.914  50.310  1.00  0.00    -0.322 N 
HETATM   14  H   UNL     1      27.018  46.228  49.843  1.00  0.00     0.169 HD
HETATM   15  O   UNL     1      25.455  47.364  52.373  1.00  0.00    -0.267 OA
BRANCH  13  16
HETATM   16  C   UNL     1      26.086  48.062  49.568  1.00  0.00     0.052 A 
HETATM   17  C   UNL     1      24.791  48.409  49.191  1.00  0.00     0.145 A 
HETATM   18  N   UNL     1      24.480  49.495  48.436  1.00  0.00    -0.271 NA
HETATM   19  C   UNL     1      25.505  50.272  48.034  1.00  0.00     0.116 A 
HETATM   20  C   UNL     1      26.827  50.019  48.356  1.00  0.00     0.021 A 
HETATM   21  C   UNL     1      27.118  48.901  49.138  1.00  0.00     0.032 A 
ENDBRANCH  13  16
ENDBRANCH  10  12
BRANCH   9  22
HETATM   22  C   UNL     1      25.206  43.906  50.226  1.00  0.00     0.064 A 
HETATM   23  N   UNL     1      24.928  44.444  49.004  1.00  0.00    -0.263 NA
HETATM   24  C   UNL     1      23.714  44.182  48.470  1.00  0.00     0.117 A 
HETATM   25  C   UNL     1      22.753  43.398  49.082  1.00  0.00     0.019 A 
HETATM   26  C   UNL     1      23.050  42.844  50.319  1.00  0.00     0.003 A 
HETATM   27  C   UNL     1      24.287  43.099  50.902  1.00  0.00     0.030 A 
ENDBRANCH   9  22
TORSDOF 3
ENDMDL
MODEL 4
REMARK VINA RESULT:      -8.2      3.280      6.054
REMARK  3 active torsions:
REMARK  status: ('A' for Active; 'I' for Inactive)
REMARK    1  A    between atoms: C_9  and  C_10 
REMARK    2  A    between atoms: C_16  and  C_17 
REMARK       I    between atoms: C_17  and  N_18 
REMARK    3  A    between atoms: N_18  and  C_19 
ROOT
HETATM    1  C   UNL     1      25.507  45.828  54.317  1.00  0.00     0.070 C 
HETATM    2  C   UNL     1      26.494  44.951  53.586  1.00  0.00     0.037 C 
HETATM    3  N   UNL     1      27.340  44.198  54.395  1.00  0.00    -0.192 N 
HETATM    4  C   UNL     1      28.436  43.574  53.922  1.00  0.00     0.725 A 
HETATM    5  N   UNL     1      28.646  43.517  52.571  1.00  0.00    -0.082 N 
HETATM    6  N   UNL     1      29.863  42.997  52.286  1.00  0.00    -0.149 NA
HETATM    7  C   UNL     1      30.290  42.687  53.517  1.00  0.00     0.275 A 
HETATM    8  N   UNL     1      29.448  43.026  54.545  1.00  0.00    -0.054 NA
HETATM    9  C   UNL     1      27.730  44.071  51.574  1.00  0.00     0.221 C 
HETATM   10  C   UNL     1      26.644  44.910  52.238  1.00  0.00     0.064 C 
HETATM   11  H   UNL     1      27.254  44.312  55.401  1.00  0.00     0.184 HD
ENDROOT
BRANCH  10  12
HETATM   12  C   UNL     1      25.869  45.738  51.279  1.00  0.00     0.256 C 
HETATM   13  N   UNL     1      26.381  46.999  51.081  1.00  0.00    -0.322 N 
HETATM   14  H   UNL     1      27.152  47.280  51.675  1.00  0.00     0.169 HD
HETATM   15  O   UNL     1      24.858  45.265  50.775  1.00  0.00    -0.267 OA
BRANCH  13  16
HETATM   16  C   UNL     1      25.963  47.925  50.101  1.00  0.00     0.052 A 
HETATM   17  C   UNL     1      24.646  48.122  49.694  1.00  0.00     0.145 A 
HETATM   18  N   UNL     1      24.271  48.986  48.715  1.00  0.00    -0.271 NA
HETATM   19  C   UNL     1      25.251  49.685  48.109  1.00  0.00     0.116 A 
HETATM   20  C   UNL     1      26.589  49.566  48.440  1.00  0.00     0.021 A 
HETATM   21  C   UNL     1      26.946  48.677  49.454  1.00  0.00     0.032 A 
ENDBRANCH  13  16
ENDBRANCH  10  12
BRANCH   9  22
HETATM   22  C   UNL     1      27.166  42.922  50.744  1.00  0.00     0.064 A 
HETATM   23  N   UNL     1      27.186  43.030  49.385  1.00  0.00    -0.263 NA
HETATM   24  C   UNL     1      26.612  42.035  48.672  1.00  0.00     0.117 A 
HETATM   25  C   UNL     1      26.023  40.919  49.238  1.00  0.00     0.019 A 
HETATM   26  C   UNL     1      26.020  40.810  50.622  1.00  0.00     0.003 A 
HETATM   27  C   UNL     1      26.595  41.820  51.387  1.00  0.00     0.030 A 
ENDBRANCH   9  22
TORSDOF 3
ENDMDL
MODEL 5
REMARK VINA RESULT:      -7.8      3.753      7.603
REMARK  3 active torsions:
REMARK  status: ('A' for Active; 'I' for Inactive)
REMARK    1  A    between atoms: C_9  and  C_10 
REMARK    2  A    between atoms: C_16  and  C_17 
REMARK       I    between atoms: C_17  and  N_18 
REMARK    3  A    between atoms: N_18  and  C_19 
ROOT
HETATM    1  C   UNL     1      22.475  43.891  49.396  1.00  0.00     0.070 C 
HETATM    2  C   UNL     1      23.753  44.654  49.645  1.00  0.00     0.037 C 
HETATM    3  N   UNL     1      23.615  46.033  49.762  1.00  0.00    -0.192 N 
HETATM    4  C   UNL     1      24.664  46.878  49.723  1.00  0.00     0.725 A 
HETATM    5  N   UNL     1      25.935  46.372  49.747  1.00  0.00    -0.082 N 
HETATM    6  N   UNL     1      26.853  47.345  49.543  1.00  0.00    -0.149 NA
HETATM    7  C   UNL     1      26.060  48.422  49.488  1.00  0.00     0.275 A 
HETATM    8  N   UNL     1      24.714  48.179  49.591  1.00  0.00    -0.054 NA
HETATM    9  C   UNL     1      26.249  44.946  49.847  1.00  0.00     0.221 C 
HETATM   10  C   UNL     1      24.991  44.099  49.688  1.00  0.00     0.064 C 
HETATM   11  H   UNL     1      22.684  46.425  49.646  1.00  0.00     0.184 HD
ENDROOT
BRANCH  10  12
HETATM   12  C   UNL     1      25.274  42.656  49.479  1.00  0.00     0.256 C 
HETATM   13  N   UNL     1      25.867  42.367  48.272  1.00  0.00    -0.322 N 
HETATM   14  H   UNL     1      25.951  43.128  47.608  1.00  0.00     0.169 HD
HETATM   15  O   UNL     1      24.949  41.860  50.351  1.00  0.00    -0.267 OA
BRANCH  13  16
HETATM   16  C   UNL     1      26.408  41.122  47.885  1.00  0.00     0.052 A 
HETATM   17  C   UNL     1      25.711  40.116  47.222  1.00  0.00     0.145 A 
HETATM   18  N   UNL     1      26.238  38.906  46.900  1.00  0.00    -0.271 NA
HETATM   19  C   UNL     1      27.519  38.684  47.258  1.00  0.00     0.116 A 
HETATM   20  C   UNL     1      28.300  39.618  47.916  1.00  0.00     0.021 A 
HETATM   21  C   UNL     1      27.736  40.854  48.228  1.00  0.00     0.032 A 
ENDBRANCH  13  16
ENDBRANCH  10  12
BRANCH   9  22
HETATM   22  C   UNL     1      26.966  44.700  51.171  1.00  0.00     0.064 A 
HETATM   23  N   UNL     1      28.056  43.882  51.178  1.00  0.00    -0.263 NA
HETATM   24  C   UNL     1      28.629  43.617  52.374  1.00  0.00     0.117 A 
HETATM   25  C   UNL     1      28.183  44.135  53.576  1.00  0.00     0.019 A 
HETATM   26  C   UNL     1      27.080  44.978  53.558  1.00  0.00     0.003 A 
HETATM   27  C   UNL     1      26.461  45.265  52.345  1.00  0.00     0.030 A 
ENDBRANCH   9  22
TORSDOF 3
ENDMDL
MODEL 6
REMARK VINA RESULT:      -7.8      2.644      7.491
REMARK  3 active torsions:
REMARK  status: ('A' for Active; 'I' for Inactive)
REMARK    1  A    between atoms: C_9  and  C_10 
REMARK    2  A    between atoms: C_16  and  C_17 
REMARK       I    between atoms: C_17  and  N_18 
REMARK    3  A    between atoms: N_18  and  C_19 
ROOT
HETATM    1  C   UNL     1      18.742  45.379  47.998  1.00  0.00     0.070 C 
HETATM    2  C   UNL     1      18.124  46.715  47.666  1.00  0.00     0.037 C 
HETATM    3  N   UNL     1      16.734  46.740  47.632  1.00  0.00    -0.192 N 
HETATM    4  C   UNL     1      16.035  47.763  47.104  1.00  0.00     0.725 A 
HETATM    5  N   UNL     1      16.690  48.909  46.743  1.00  0.00    -0.082 N 
HETATM    6  N   UNL     1      15.865  49.761  46.091  1.00  0.00    -0.149 NA
HETATM    7  C   UNL     1      14.709  49.092  46.175  1.00  0.00     0.275 A 
HETATM    8  N   UNL     1      14.770  47.865  46.785  1.00  0.00    -0.054 NA
HETATM    9  C   UNL     1      18.127  49.123  46.921  1.00  0.00     0.221 C 
HETATM   10  C   UNL     1      18.822  47.832  47.341  1.00  0.00     0.064 C 
HETATM   11  H   UNL     1      16.242  45.867  47.803  1.00  0.00     0.184 HD
ENDROOT
BRANCH  10  12
HETATM   12  C   UNL     1      20.303  47.903  47.246  1.00  0.00     0.256 C 
HETATM   13  N   UNL     1      20.881  48.810  48.103  1.00  0.00    -0.322 N 
HETATM   14  H   UNL     1      20.254  49.410  48.625  1.00  0.00     0.169 HD
HETATM   15  O   UNL     1      20.874  47.193  46.427  1.00  0.00    -0.267 OA
BRANCH  13  16
HETATM   16  C   UNL     1      22.261  48.956  48.356  1.00  0.00     0.052 A 
HETATM   17  C   UNL     1      23.005  48.164  49.228  1.00  0.00     0.145 A 
HETATM   18  N   UNL     1      24.324  48.351  49.492  1.00  0.00    -0.271 NA
HETATM   19  C   UNL     1      24.934  49.377  48.864  1.00  0.00     0.116 A 
HETATM   20  C   UNL     1      24.287  50.220  47.977  1.00  0.00     0.021 A 
HETATM   21  C   UNL     1      22.934  50.001  47.718  1.00  0.00     0.032 A 
ENDBRANCH  13  16
ENDBRANCH  10  12
BRANCH   9  22
HETATM   22  C   UNL     1      18.327  50.257  47.922  1.00  0.00     0.064 A 
HETATM   23  N   UNL     1      18.059  50.018  49.238  1.00  0.00    -0.263 NA
HETATM   24  C   UNL     1      18.170  51.057  50.095  1.00  0.00     0.117 A 
HETATM   25  C   UNL     1      18.548  52.333  49.718  1.00  0.00     0.019 A 
HETATM   26  C   UNL     1      18.833  52.564  48.379  1.00  0.00     0.003 A 
HETATM   27  C   UNL     1      18.721  51.518  47.468  1.00  0.00     0.030 A 
ENDBRANCH   9  22
TORSDOF 3
ENDMDL
MODEL 7
REMARK VINA RESULT:      -7.8     10.411     12.899
REMARK  3 active torsions:
REMARK  status: ('A' for Active; 'I' for Inactive)
REMARK    1  A    between atoms: C_9  and  C_10 
REMARK    2  A    between atoms: C_16  and  C_17 
REMARK       I    between atoms: C_17  and  N_18 
REMARK    3  A    between atoms: N_18  and  C_19 
ROOT
HETATM    1  C   UNL     1      28.393  52.432  38.410  1.00  0.00     0.070 C 
HETATM    2  C   UNL     1      27.711  51.129  38.747  1.00  0.00     0.037 C 
HETATM    3  N   UNL     1      26.527  50.878  38.060  1.00  0.00    -0.192 N 
HETATM    4  C   UNL     1      25.666  49.907  38.421  1.00  0.00     0.725 A 
HETATM    5  N   UNL     1      26.032  49.009  39.387  1.00  0.00    -0.082 N 
HETATM    6  N   UNL     1      24.996  48.210  39.732  1.00  0.00    -0.149 NA
HETATM    7  C   UNL     1      24.064  48.634  38.869  1.00  0.00     0.275 A 
HETATM    8  N   UNL     1      24.433  49.671  38.052  1.00  0.00    -0.054 NA
HETATM    9  C   UNL     1      27.336  49.006  40.052  1.00  0.00     0.221 C 
HETATM   10  C   UNL     1      28.132  50.257  39.697  1.00  0.00     0.064 C 
HETATM   11  H   UNL     1      26.198  51.589  37.412  1.00  0.00     0.184 HD
ENDROOT
BRANCH  10  12
HETATM   12  C   UNL     1      29.322  50.464  40.562  1.00  0.00     0.256 C 
HETATM   13  N   UNL     1      30.523  50.232  39.934  1.00  0.00    -0.322 N 
HETATM   14  H   UNL     1      30.484  49.844  38.999  1.00  0.00     0.169 HD
HETATM   15  O   UNL     1      29.150  50.788  41.731  1.00  0.00    -0.267 OA
BRANCH  13  16
HETATM   16  C   UNL     1      31.804  50.523  40.451  1.00  0.00     0.052 A 
HETATM   17  C   UNL     1      32.401  51.781  40.454  1.00  0.00     0.145 A 
HETATM   18  N   UNL     1      33.655  52.030  40.913  1.00  0.00    -0.271 NA
HETATM   19  C   UNL     1      34.351  50.978  41.390  1.00  0.00     0.116 A 
HETATM   20  C   UNL     1      33.848  49.689  41.435  1.00  0.00     0.021 A 
HETATM   21  C   UNL     1      32.556  49.462  40.963  1.00  0.00     0.032 A 
ENDBRANCH  13  16
ENDBRANCH  10  12
BRANCH   9  22
HETATM   22  C   UNL     1      28.064  47.717  39.683  1.00  0.00     0.064 A 
HETATM   23  N   UNL     1      28.866  47.715  38.581  1.00  0.00    -0.263 NA
HETATM   24  C   UNL     1      29.440  46.542  38.230  1.00  0.00     0.117 A 
HETATM   25  C   UNL     1      29.271  45.359  38.927  1.00  0.00     0.019 A 
HETATM   26  C   UNL     1      28.464  45.374  40.056  1.00  0.00     0.003 A 
HETATM   27  C   UNL     1      27.851  46.562  40.441  1.00  0.00     0.030 A 
ENDBRANCH   9  22
TORSDOF 3
ENDMDL
MODEL 8
REMARK VINA RESULT:      -7.7      2.566      6.741
REMARK  3 active torsions:
REMARK  status: ('A' for Active; 'I' for Inactive)
REMARK    1  A    between atoms: C_9  and  C_10 
REMARK    2  A    between atoms: C_16  and  C_17 
REMARK       I    between atoms: C_17  and  N_18 
REMARK    3  A    between atoms: N_18  and  C_19 
ROOT
HETATM    1  C   UNL     1      20.135  51.953  48.348  1.00  0.00     0.070 C 
HETATM    2  C   UNL     1      19.725  50.502  48.409  1.00  0.00     0.037 C 
HETATM    3  N   UNL     1      18.396  50.241  48.088  1.00  0.00    -0.192 N 
HETATM    4  C   UNL     1      17.803  49.059  48.342  1.00  0.00     0.725 A 
HETATM    5  N   UNL     1      18.562  48.003  48.767  1.00  0.00    -0.082 N 
HETATM    6  N   UNL     1      17.787  46.952  49.122  1.00  0.00    -0.149 NA
HETATM    7  C   UNL     1      16.576  47.424  48.801  1.00  0.00     0.275 A 
HETATM    8  N   UNL     1      16.542  48.709  48.323  1.00  0.00    -0.054 NA
HETATM    9  C   UNL     1      20.014  48.056  48.943  1.00  0.00     0.221 C 
HETATM   10  C   UNL     1      20.528  49.486  48.813  1.00  0.00     0.064 C 
HETATM   11  H   UNL     1      17.800  51.035  47.867  1.00  0.00     0.184 HD
ENDROOT
BRANCH  10  12
HETATM   12  C   UNL     1      21.930  49.653  49.273  1.00  0.00     0.256 C 
HETATM   13  N   UNL     1      22.859  48.992  48.504  1.00  0.00    -0.322 N 
HETATM   14  H   UNL     1      22.503  48.378  47.781  1.00  0.00     0.169 HD
HETATM   15  O   UNL     1      22.145  50.320  50.278  1.00  0.00    -0.267 OA
BRANCH  13  16
HETATM   16  C   UNL     1      24.261  49.119  48.596  1.00  0.00     0.052 A 
HETATM   17  C   UNL     1      25.033  50.032  47.880  1.00  0.00     0.145 A 
HETATM   18  N   UNL     1      26.388  50.106  47.949  1.00  0.00    -0.271 NA
HETATM   19  C   UNL     1      27.006  49.230  48.765  1.00  0.00     0.116 A 
HETATM   20  C   UNL     1      26.333  48.287  49.523  1.00  0.00     0.021 A 
HETATM   21  C   UNL     1      24.942  48.237  49.438  1.00  0.00     0.032 A 
ENDBRANCH  13  16
ENDBRANCH  10  12
BRANCH   9  22
HETATM   22  C   UNL     1      20.657  47.102  47.940  1.00  0.00     0.064 A 
HETATM   23  N   UNL     1      21.633  46.257  48.379  1.00  0.00    -0.263 NA
HETATM   24  C   UNL     1      22.241  45.476  47.458  1.00  0.00     0.117 A 
HETATM   25  C   UNL     1      21.924  45.477  46.112  1.00  0.00     0.019 A 
HETATM   26  C   UNL     1      20.919  46.330  45.676  1.00  0.00     0.003 A 
HETATM   27  C   UNL     1      20.278  47.155  46.596  1.00  0.00     0.030 A 
ENDBRANCH   9  22
TORSDOF 3
ENDMDL
MODEL 9
REMARK VINA RESULT:      -7.7      1.985      7.133
REMARK  3 active torsions:
REMARK  status: ('A' for Active; 'I' for Inactive)
REMARK    1  A    between atoms: C_9  and  C_10 
REMARK    2  A    between atoms: C_16  and  C_17 
REMARK       I    between atoms: C_17  and  N_18 
REMARK    3  A    between atoms: N_18  and  C_19 
ROOT
HETATM    1  C   UNL     1      23.469  50.878  48.054  1.00  0.00     0.070 C 
HETATM    2  C   UNL     1      22.082  50.401  48.408  1.00  0.00     0.037 C 
HETATM    3  N   UNL     1      21.113  51.396  48.503  1.00  0.00    -0.192 N 
HETATM    4  C   UNL     1      19.904  51.185  49.058  1.00  0.00     0.725 A 
HETATM    5  N   UNL     1      19.527  49.911  49.385  1.00  0.00    -0.082 N 
HETATM    6  N   UNL     1      18.360  49.906  50.069  1.00  0.00    -0.149 NA
HETATM    7  C   UNL     1      18.054  51.209  50.040  1.00  0.00     0.275 A 
HETATM    8  N   UNL     1      18.973  52.025  49.433  1.00  0.00    -0.054 NA
HETATM    9  C   UNL     1      20.349  48.725  49.143  1.00  0.00     0.221 C 
HETATM   10  C   UNL     1      21.754  49.117  48.697  1.00  0.00     0.064 C 
HETATM   11  H   UNL     1      21.409  52.357  48.357  1.00  0.00     0.184 HD
ENDROOT
BRANCH  10  12
HETATM   12  C   UNL     1      22.718  47.988  48.726  1.00  0.00     0.256 C 
HETATM   13  N   UNL     1      23.431  47.884  49.897  1.00  0.00    -0.322 N 
HETATM   14  H   UNL     1      23.319  48.633  50.570  1.00  0.00     0.169 HD
HETATM   15  O   UNL     1      22.820  47.275  47.734  1.00  0.00    -0.267 OA
BRANCH  13  16
HETATM   16  C   UNL     1      24.273  46.815  50.270  1.00  0.00     0.052 A 
HETATM   17  C   UNL     1      24.100  45.486  49.887  1.00  0.00     0.145 A 
HETATM   18  N   UNL     1      24.895  44.464  50.296  1.00  0.00    -0.271 NA
HETATM   19  C   UNL     1      25.910  44.775  51.127  1.00  0.00     0.116 A 
HETATM   20  C   UNL     1      26.171  46.062  51.564  1.00  0.00     0.021 A 
HETATM   21  C   UNL     1      25.342  47.094  51.124  1.00  0.00     0.032 A 
ENDBRANCH  13  16
ENDBRANCH  10  12
BRANCH   9  22
HETATM   22  C   UNL     1      19.632  47.838  48.129  1.00  0.00     0.064 A 
HETATM   23  N   UNL     1      19.328  46.558  48.485  1.00  0.00    -0.263 NA
HETATM   24  C   UNL     1      18.762  45.767  47.546  1.00  0.00     0.117 A 
HETATM   25  C   UNL     1      18.466  46.184  46.260  1.00  0.00     0.019 A 
HETATM   26  C   UNL     1      18.767  47.494  45.911  1.00  0.00     0.003 A 
HETATM   27  C   UNL     1      19.357  48.332  46.851  1.00  0.00     0.030 A 
ENDBRANCH   9  22
TORSDOF 3
ENDMDL
MODEL 10
REMARK VINA RESULT:      -7.6     20.817     22.636
REMARK  3 active torsions:
REMARK  status: ('A' for Active; 'I' for Inactive)
REMARK    1  A    between atoms: C_9  and  C_10 
REMARK    2  A    between atoms: C_16  and  C_17 
REMARK       I    between atoms: C_17  and  N_18 
REMARK    3  A    between atoms: N_18  and  C_19 
ROOT
HETATM    1  C   UNL     1      35.410  47.370  66.967  1.00  0.00     0.070 C 
HETATM    2  C   UNL     1      36.604  48.240  66.666  1.00  0.00     0.037 C 
HETATM    3  N   UNL     1      36.739  49.371  67.465  1.00  0.00    -0.192 N 
HETATM    4  C   UNL     1      37.583  50.378  67.168  1.00  0.00     0.725 A 
HETATM    5  N   UNL     1      38.477  50.226  66.144  1.00  0.00    -0.082 N 
HETATM    6  N   UNL     1      39.129  51.383  65.886  1.00  0.00    -0.149 NA
HETATM    7  C   UNL     1      38.632  52.164  66.853  1.00  0.00     0.275 A 
HETATM    8  N   UNL     1      37.682  51.588  67.658  1.00  0.00    -0.054 NA
HETATM    9  C   UNL     1      38.610  49.006  65.346  1.00  0.00     0.221 C 
HETATM   10  C   UNL     1      37.480  48.029  65.652  1.00  0.00     0.064 C 
HETATM   11  H   UNL     1      36.022  49.542  68.165  1.00  0.00     0.184 HD
ENDROOT
BRANCH  10  12
HETATM   12  C   UNL     1      37.384  46.915  64.673  1.00  0.00     0.256 C 
HETATM   13  N   UNL     1      38.189  45.839  64.961  1.00  0.00    -0.322 N 
HETATM   14  H   UNL     1      38.841  45.947  65.730  1.00  0.00     0.169 HD
HETATM   15  O   UNL     1      36.641  47.043  63.707  1.00  0.00    -0.267 OA
BRANCH  13  16
HETATM   16  C   UNL     1      38.168  44.584  64.317  1.00  0.00     0.052 A 
HETATM   17  C   UNL     1      37.252  43.566  64.573  1.00  0.00     0.145 A 
HETATM   18  N   UNL     1      37.278  42.347  63.974  1.00  0.00    -0.271 NA
HETATM   19  C   UNL     1      38.262  42.127  63.079  1.00  0.00     0.116 A 
HETATM   20  C   UNL     1      39.218  43.072  62.750  1.00  0.00     0.021 A 
HETATM   21  C   UNL     1      39.165  44.318  63.375  1.00  0.00     0.032 A 
ENDBRANCH  13  16
ENDBRANCH  10  12
BRANCH   9  22
HETATM   22  C   UNL     1      39.993  48.412  65.598  1.00  0.00     0.064 A 
HETATM   23  N   UNL     1      40.626  47.779  64.570  1.00  0.00    -0.263 NA
HETATM   24  C   UNL     1      41.816  47.194  64.836  1.00  0.00     0.117 A 
HETATM   25  C   UNL     1      42.425  47.212  66.078  1.00  0.00     0.019 A 
HETATM   26  C   UNL     1      41.779  47.870  67.116  1.00  0.00     0.003 A 
HETATM   27  C   UNL     1      40.549  48.476  66.878  1.00  0.00     0.030 A 
ENDBRANCH   9  22
TORSDOF 3
ENDMDL
