MODEL 1
REMARK VINA RESULT:     -10.2      0.000      0.000
REMARK  3 active torsions:
REMARK  status: ('A' for Active; 'I' for Inactive)
REMARK    1  A    between atoms: C_7  and  C_8 
REMARK       I    between atoms: C_8  and  N_9 
REMARK    2  A    between atoms: N_9  and  C_10 
REMARK    3  A    between atoms: C_17  and  C_18 
REMARK       I    between atoms: C_18  and  N_19 
ROOT
HETATM    1  C   UNL     1      25.690  45.188  53.035  1.00  0.00     0.258 C 
HETATM    2  N   UNL     1      25.913  45.704  51.768  1.00  0.00    -0.323 N 
HETATM    3  O   UNL     1      24.619  44.766  53.452  1.00  0.00    -0.267 OA
HETATM    4  H   UNL     1      26.865  45.905  51.494  1.00  0.00     0.169 HD
ENDROOT
BRANCH   2   5
HETATM    5  C   UNL     1      24.939  46.017  50.795  1.00  0.00     0.036 A 
HETATM    6  C   UNL     1      24.671  47.324  50.364  1.00  0.00     0.046 A 
HETATM    7  C   UNL     1      23.743  47.534  49.321  1.00  0.00     0.030 A 
HETATM    8  C   UNL     1      23.081  46.438  48.781  1.00  0.00     0.063 A 
HETATM    9  C   UNL     1      23.269  48.656  48.572  1.00  0.00     0.156 A 
HETATM   10  N   UNL     1      22.250  46.950  47.825  1.00  0.00    -0.277 N 
HETATM   11  C   UNL     1      23.308  45.127  49.201  1.00  0.00     0.034 A 
HETATM   12  H   UNL     1      21.603  46.439  47.235  1.00  0.00     0.189 HD
HETATM   13  N   UNL     1      22.345  48.280  47.659  1.00  0.00    -0.168 NA
HETATM   14  C   UNL     1      24.267  44.939  50.203  1.00  0.00     0.032 A 
BRANCH   9  15
HETATM   15  C   UNL     1      23.700  50.055  48.688  1.00  0.00     0.270 C 
HETATM   16  N   UNL     1      24.714  50.397  47.833  1.00  0.00    -0.365 N 
HETATM   17  H   UNL     1      25.100  49.682  47.230  1.00  0.00     0.159 HD
HETATM   18  H   UNL     1      25.111  51.322  47.877  1.00  0.00     0.159 HD
HETATM   19  O   UNL     1      23.237  50.868  49.479  1.00  0.00    -0.266 OA
ENDBRANCH   9  15
ENDBRANCH   2   5
BRANCH   1  20
HETATM   20  C   UNL     1      26.884  45.158  53.932  1.00  0.00     0.057 A 
HETATM   21  C   UNL     1      27.233  46.259  54.717  1.00  0.00     0.047 A 
HETATM   22  C   UNL     1      26.412  47.516  54.773  1.00  0.00     0.071 C 
HETATM   23  N   UNL     1      28.356  46.277  55.490  1.00  0.00    -0.252 NA
HETATM   24  C   UNL     1      29.161  45.205  55.512  1.00  0.00     0.070 A 
HETATM   25  C   UNL     1      28.872  44.038  54.775  1.00  0.00    -0.006 A 
HETATM   26  C   UNL     1      30.317  45.239  56.274  1.00  0.00     0.074 A 
HETATM   27  C   UNL     1      27.708  44.025  53.996  1.00  0.00     0.033 A 
HETATM   28  C   UNL     1      29.744  42.934  54.823  1.00  0.00     0.017 A 
HETATM   29  C   UNL     1      30.904  42.995  55.591  1.00  0.00     0.043 A 
HETATM   30  C   UNL     1      31.179  44.149  56.310  1.00  0.00     0.118 A 
HETATM   31  F   UNL     1      32.295  44.213  57.047  1.00  0.00    -0.206 F 
ENDBRANCH   1  20
TORSDOF 3
ENDMDL
MODEL 2
REMARK VINA RESULT:     -10.1      1.131      1.927
REMARK  3 active torsions:
REMARK  status: ('A' for Active; 'I' for Inactive)
REMARK    1  A    between atoms: C_7  and  C_8 
REMARK       I    between atoms: C_8  and  N_9 
REMARK    2  A    between atoms: N_9  and  C_10 
REMARK    3  A    between atoms: C_17  and  C_18 
REMARK       I    between atoms: C_18  and  N_19 
ROOT
HETATM    1  C   UNL     1      25.747  44.560  52.468  1.00  0.00     0.258 C 
HETATM    2  N   UNL     1      25.872  45.029  51.170  1.00  0.00    -0.323 N 
HETATM    3  O   UNL     1      24.691  44.376  53.059  1.00  0.00    -0.267 OA
HETATM    4  H   UNL     1      26.788  45.021  50.744  1.00  0.00     0.169 HD
ENDROOT
BRANCH   2   5
HETATM    5  C   UNL     1      24.846  45.559  50.356  1.00  0.00     0.036 A 
HETATM    6  C   UNL     1      24.730  46.923  50.052  1.00  0.00     0.046 A 
HETATM    7  C   UNL     1      23.725  47.349  49.156  1.00  0.00     0.030 A 
HETATM    8  C   UNL     1      22.845  46.408  48.636  1.00  0.00     0.063 A 
HETATM    9  C   UNL     1      23.340  48.587  48.553  1.00  0.00     0.156 A 
HETATM   10  N   UNL     1      21.992  47.112  47.834  1.00  0.00    -0.277 N 
HETATM   11  C   UNL     1      22.920  45.047  48.934  1.00  0.00     0.034 A 
HETATM   12  H   UNL     1      21.210  46.750  47.301  1.00  0.00     0.189 HD
HETATM   13  N   UNL     1      22.266  48.424  47.746  1.00  0.00    -0.168 NA
HETATM   14  C   UNL     1      23.953  44.641  49.787  1.00  0.00     0.032 A 
BRANCH   9  15
HETATM   15  C   UNL     1      23.987  49.896  48.704  1.00  0.00     0.270 C 
HETATM   16  N   UNL     1      25.144  50.031  47.983  1.00  0.00    -0.365 N 
HETATM   17  H   UNL     1      25.473  49.239  47.445  1.00  0.00     0.159 HD
HETATM   18  H   UNL     1      25.686  50.876  48.066  1.00  0.00     0.159 HD
HETATM   19  O   UNL     1      23.576  50.804  49.417  1.00  0.00    -0.266 OA
ENDBRANCH   9  15
ENDBRANCH   2   5
BRANCH   1  20
HETATM   20  C   UNL     1      27.033  44.259  53.165  1.00  0.00     0.057 A 
HETATM   21  C   UNL     1      27.707  43.052  52.961  1.00  0.00     0.047 A 
HETATM   22  C   UNL     1      27.235  42.007  51.990  1.00  0.00     0.071 C 
HETATM   23  N   UNL     1      28.845  42.728  53.638  1.00  0.00    -0.252 NA
HETATM   24  C   UNL     1      29.351  43.592  54.531  1.00  0.00     0.070 A 
HETATM   25  C   UNL     1      28.756  44.845  54.779  1.00  0.00    -0.006 A 
HETATM   26  C   UNL     1      30.491  43.246  55.239  1.00  0.00     0.074 A 
HETATM   27  C   UNL     1      27.594  45.173  54.067  1.00  0.00     0.033 A 
HETATM   28  C   UNL     1      29.317  45.722  55.727  1.00  0.00     0.017 A 
HETATM   29  C   UNL     1      30.459  45.350  56.431  1.00  0.00     0.043 A 
HETATM   30  C   UNL     1      31.035  44.113  56.180  1.00  0.00     0.118 A 
HETATM   31  F   UNL     1      32.131  43.749  56.858  1.00  0.00    -0.206 F 
ENDBRANCH   1  20
TORSDOF 3
ENDMDL
MODEL 3
REMARK VINA RESULT:      -9.9      4.686      6.605
REMARK  3 active torsions:
REMARK  status: ('A' for Active; 'I' for Inactive)
REMARK    1  A    between atoms: C_7  and  C_8 
REMARK       I    between atoms: C_8  and  N_9 
REMARK    2  A    between atoms: N_9  and  C_10 
REMARK    3  A    between atoms: C_17  and  C_18 
REMARK       I    between atoms: C_18  and  N_19 
ROOT
HETATM    1  C   UNL     1      27.651  43.684  52.043  1.00  0.00     0.258 C 
HETATM    2  N   UNL     1      26.889  42.527  52.084  1.00  0.00    -0.323 N 
HETATM    3  O   UNL     1      27.987  44.278  51.026  1.00  0.00    -0.267 OA
HETATM    4  H   UNL     1      26.568  42.198  52.984  1.00  0.00     0.169 HD
ENDROOT
BRANCH   2   5
HETATM    5  C   UNL     1      26.519  41.714  50.989  1.00  0.00     0.036 A 
HETATM    6  C   UNL     1      27.223  40.562  50.612  1.00  0.00     0.046 A 
HETATM    7  C   UNL     1      26.727  39.761  49.560  1.00  0.00     0.030 A 
HETATM    8  C   UNL     1      25.577  40.165  48.893  1.00  0.00     0.063 A 
HETATM    9  C   UNL     1      27.091  38.521  48.949  1.00  0.00     0.156 A 
HETATM   10  N   UNL     1      25.361  39.217  47.933  1.00  0.00    -0.277 N 
HETATM   11  C   UNL     1      24.864  41.316  49.230  1.00  0.00     0.034 A 
HETATM   12  H   UNL     1      24.615  39.195  47.248  1.00  0.00     0.189 HD
HETATM   13  N   UNL     1      26.243  38.203  47.944  1.00  0.00    -0.168 NA
HETATM   14  C   UNL     1      25.348  42.069  50.306  1.00  0.00     0.032 A 
BRANCH   9  15
HETATM   15  C   UNL     1      28.197  37.630  49.322  1.00  0.00     0.270 C 
HETATM   16  N   UNL     1      27.846  36.650  50.212  1.00  0.00    -0.365 N 
HETATM   17  H   UNL     1      26.895  36.631  50.559  1.00  0.00     0.159 HD
HETATM   18  H   UNL     1      28.551  36.024  50.567  1.00  0.00     0.159 HD
HETATM   19  O   UNL     1      29.348  37.733  48.915  1.00  0.00    -0.266 OA
ENDBRANCH   9  15
ENDBRANCH   2   5
BRANCH   1  20
HETATM   20  C   UNL     1      28.070  44.220  53.372  1.00  0.00     0.057 A 
HETATM   21  C   UNL     1      27.388  45.278  53.978  1.00  0.00     0.047 A 
HETATM   22  C   UNL     1      26.158  45.905  53.384  1.00  0.00     0.071 C 
HETATM   23  N   UNL     1      27.795  45.828  55.158  1.00  0.00    -0.252 NA
HETATM   24  C   UNL     1      28.884  45.343  55.773  1.00  0.00     0.070 A 
HETATM   25  C   UNL     1      29.617  44.258  55.250  1.00  0.00    -0.006 A 
HETATM   26  C   UNL     1      29.312  45.924  56.955  1.00  0.00     0.074 A 
HETATM   27  C   UNL     1      29.181  43.691  54.044  1.00  0.00     0.033 A 
HETATM   28  C   UNL     1      30.756  43.780  55.925  1.00  0.00     0.017 A 
HETATM   29  C   UNL     1      31.170  44.386  57.108  1.00  0.00     0.043 A 
HETATM   30  C   UNL     1      30.443  45.453  57.612  1.00  0.00     0.118 A 
HETATM   31  F   UNL     1      30.840  46.041  58.748  1.00  0.00    -0.206 F 
ENDBRANCH   1  20
TORSDOF 3
ENDMDL
MODEL 4
REMARK VINA RESULT:      -9.7      2.756      3.408
REMARK  3 active torsions:
REMARK  status: ('A' for Active; 'I' for Inactive)
REMARK    1  A    between atoms: C_7  and  C_8 
REMARK       I    between atoms: C_8  and  N_9 
REMARK    2  A    between atoms: N_9  and  C_10 
REMARK    3  A    between atoms: C_17  and  C_18 
REMARK       I    between atoms: C_18  and  N_19 
ROOT
HETATM    1  C   UNL     1      26.929  44.538  52.341  1.00  0.00     0.258 C 
HETATM    2  N   UNL     1      25.937  43.572  52.385  1.00  0.00    -0.323 N 
HETATM    3  O   UNL     1      27.202  45.233  51.371  1.00  0.00    -0.267 OA
HETATM    4  H   UNL     1      25.718  43.151  53.277  1.00  0.00     0.169 HD
ENDROOT
BRANCH   2   5
HETATM    5  C   UNL     1      25.190  43.071  51.296  1.00  0.00     0.036 A 
HETATM    6  C   UNL     1      24.052  43.710  50.783  1.00  0.00     0.046 A 
HETATM    7  C   UNL     1      23.422  43.185  49.634  1.00  0.00     0.030 A 
HETATM    8  C   UNL     1      23.919  42.016  49.070  1.00  0.00     0.063 A 
HETATM    9  C   UNL     1      22.332  43.566  48.791  1.00  0.00     0.156 A 
HETATM   10  N   UNL     1      23.104  41.751  48.005  1.00  0.00    -0.277 N 
HETATM   11  C   UNL     1      25.036  41.345  49.567  1.00  0.00     0.034 A 
HETATM   12  H   UNL     1      23.162  40.965  47.368  1.00  0.00     0.189 HD
HETATM   13  N   UNL     1      22.146  42.669  47.796  1.00  0.00    -0.168 NA
HETATM   14  C   UNL     1      25.673  41.910  50.678  1.00  0.00     0.032 A 
BRANCH   9  15
HETATM   15  C   UNL     1      21.498  44.770  48.895  1.00  0.00     0.270 C 
HETATM   16  N   UNL     1      22.212  45.937  48.961  1.00  0.00    -0.365 N 
HETATM   17  H   UNL     1      23.224  45.885  48.965  1.00  0.00     0.159 HD
HETATM   18  H   UNL     1      21.727  46.811  49.088  1.00  0.00     0.159 HD
HETATM   19  O   UNL     1      20.274  44.773  48.945  1.00  0.00    -0.266 OA
ENDBRANCH   9  15
ENDBRANCH   2   5
BRANCH   1  20
HETATM   20  C   UNL     1      27.700  44.720  53.607  1.00  0.00     0.057 A 
HETATM   21  C   UNL     1      27.428  45.777  54.480  1.00  0.00     0.047 A 
HETATM   22  C   UNL     1      26.313  46.758  54.253  1.00  0.00     0.071 C 
HETATM   23  N   UNL     1      28.165  46.001  55.606  1.00  0.00    -0.252 NA
HETATM   24  C   UNL     1      29.186  45.184  55.901  1.00  0.00     0.070 A 
HETATM   25  C   UNL     1      29.514  44.075  55.094  1.00  0.00    -0.006 A 
HETATM   26  C   UNL     1      29.951  45.433  57.029  1.00  0.00     0.074 A 
HETATM   27  C   UNL     1      28.741  43.846  53.948  1.00  0.00     0.033 A 
HETATM   28  C   UNL     1      30.596  43.242  55.438  1.00  0.00     0.017 A 
HETATM   29  C   UNL     1      31.354  43.517  56.573  1.00  0.00     0.043 A 
HETATM   30  C   UNL     1      31.023  44.612  57.358  1.00  0.00     0.118 A 
HETATM   31  F   UNL     1      31.752  44.882  58.448  1.00  0.00    -0.206 F 
ENDBRANCH   1  20
TORSDOF 3
ENDMDL
MODEL 5
REMARK VINA RESULT:      -9.7      1.977      3.191
REMARK  3 active torsions:
REMARK  status: ('A' for Active; 'I' for Inactive)
REMARK    1  A    between atoms: C_7  and  C_8 
REMARK       I    between atoms: C_8  and  N_9 
REMARK    2  A    between atoms: N_9  and  C_10 
REMARK    3  A    between atoms: C_17  and  C_18 
REMARK       I    between atoms: C_18  and  N_19 
ROOT
HETATM    1  C   UNL     1      25.788  45.055  52.218  1.00  0.00     0.258 C 
HETATM    2  N   UNL     1      26.024  45.677  51.002  1.00  0.00    -0.323 N 
HETATM    3  O   UNL     1      24.687  44.862  52.717  1.00  0.00    -0.267 OA
HETATM    4  H   UNL     1      26.964  45.666  50.634  1.00  0.00     0.169 HD
ENDROOT
BRANCH   2   5
HETATM    5  C   UNL     1      25.083  46.368  50.206  1.00  0.00     0.036 A 
HETATM    6  C   UNL     1      23.910  45.778  49.713  1.00  0.00     0.046 A 
HETATM    7  C   UNL     1      22.983  46.570  49.001  1.00  0.00     0.030 A 
HETATM    8  C   UNL     1      23.284  47.906  48.764  1.00  0.00     0.063 A 
HETATM    9  C   UNL     1      21.689  46.376  48.426  1.00  0.00     0.156 A 
HETATM   10  N   UNL     1      22.227  48.395  48.049  1.00  0.00    -0.277 N 
HETATM   11  C   UNL     1      24.451  48.518  49.222  1.00  0.00     0.034 A 
HETATM   12  H   UNL     1      22.111  49.336  47.691  1.00  0.00     0.189 HD
HETATM   13  N   UNL     1      21.240  47.509  47.838  1.00  0.00    -0.168 NA
HETATM   14  C   UNL     1      25.332  47.725  49.967  1.00  0.00     0.032 A 
BRANCH   9  15
HETATM   15  C   UNL     1      20.869  45.158  48.455  1.00  0.00     0.270 C 
HETATM   16  N   UNL     1      19.890  45.169  49.412  1.00  0.00    -0.365 N 
HETATM   17  H   UNL     1      19.824  45.971  50.027  1.00  0.00     0.159 HD
HETATM   18  H   UNL     1      19.312  44.354  49.543  1.00  0.00     0.159 HD
HETATM   19  O   UNL     1      21.030  44.188  47.724  1.00  0.00    -0.266 OA
ENDBRANCH   9  15
ENDBRANCH   2   5
BRANCH   1  20
HETATM   20  C   UNL     1      27.008  44.589  52.944  1.00  0.00     0.057 A 
HETATM   21  C   UNL     1      27.560  43.328  52.705  1.00  0.00     0.047 A 
HETATM   22  C   UNL     1      27.022  42.383  51.668  1.00  0.00     0.071 C 
HETATM   23  N   UNL     1      28.631  42.857  53.404  1.00  0.00    -0.252 NA
HETATM   24  C   UNL     1      29.188  43.621  54.356  1.00  0.00     0.070 A 
HETATM   25  C   UNL     1      28.716  44.918  54.644  1.00  0.00    -0.006 A 
HETATM   26  C   UNL     1      30.257  43.126  55.085  1.00  0.00     0.074 A 
HETATM   27  C   UNL     1      27.624  45.398  53.909  1.00  0.00     0.033 A 
HETATM   28  C   UNL     1      29.327  45.687  55.652  1.00  0.00     0.017 A 
HETATM   29  C   UNL     1      30.395  45.165  56.377  1.00  0.00     0.043 A 
HETATM   30  C   UNL     1      30.850  43.888  56.086  1.00  0.00     0.118 A 
HETATM   31  F   UNL     1      31.874  43.380  56.782  1.00  0.00    -0.206 F 
ENDBRANCH   1  20
TORSDOF 3
ENDMDL
MODEL 6
REMARK VINA RESULT:      -9.5      4.286      9.146
REMARK  3 active torsions:
REMARK  status: ('A' for Active; 'I' for Inactive)
REMARK    1  A    between atoms: C_7  and  C_8 
REMARK       I    between atoms: C_8  and  N_9 
REMARK    2  A    between atoms: N_9  and  C_10 
REMARK    3  A    between atoms: C_17  and  C_18 
REMARK       I    between atoms: C_18  and  N_19 
ROOT
HETATM    1  C   UNL     1      25.702  46.411  50.039  1.00  0.00     0.258 C 
HETATM    2  N   UNL     1      25.548  46.068  51.373  1.00  0.00    -0.323 N 
HETATM    3  O   UNL     1      26.418  45.829  49.233  1.00  0.00    -0.267 OA
HETATM    4  H   UNL     1      24.835  46.541  51.909  1.00  0.00     0.169 HD
ENDROOT
BRANCH   2   5
HETATM    5  C   UNL     1      26.309  45.126  52.101  1.00  0.00     0.036 A 
HETATM    6  C   UNL     1      26.489  43.798  51.690  1.00  0.00     0.046 A 
HETATM    7  C   UNL     1      27.340  42.952  52.434  1.00  0.00     0.030 A 
HETATM    8  C   UNL     1      27.940  43.447  53.585  1.00  0.00     0.063 A 
HETATM    9  C   UNL     1      27.828  41.614  52.310  1.00  0.00     0.156 A 
HETATM   10  N   UNL     1      28.674  42.410  54.088  1.00  0.00    -0.277 N 
HETATM   11  C   UNL     1      27.766  44.757  54.033  1.00  0.00     0.034 A 
HETATM   12  H   UNL     1      29.235  42.406  54.931  1.00  0.00     0.189 HD
HETATM   13  N   UNL     1      28.644  41.294  53.340  1.00  0.00    -0.168 NA
HETATM   14  C   UNL     1      26.956  45.591  53.254  1.00  0.00     0.032 A 
BRANCH   9  15
HETATM   15  C   UNL     1      27.562  40.660  51.226  1.00  0.00     0.270 C 
HETATM   16  N   UNL     1      26.326  40.075  51.291  1.00  0.00    -0.365 N 
HETATM   17  H   UNL     1      25.720  40.309  52.069  1.00  0.00     0.159 HD
HETATM   18  H   UNL     1      26.074  39.367  50.620  1.00  0.00     0.159 HD
HETATM   19  O   UNL     1      28.355  40.368  50.338  1.00  0.00    -0.266 OA
ENDBRANCH   9  15
ENDBRANCH   2   5
BRANCH   1  20
HETATM   20  C   UNL     1      24.905  47.590  49.586  1.00  0.00     0.057 A 
HETATM   21  C   UNL     1      25.521  48.793  49.234  1.00  0.00     0.047 A 
HETATM   22  C   UNL     1      27.013  48.974  49.216  1.00  0.00     0.071 C 
HETATM   23  N   UNL     1      24.809  49.902  48.884  1.00  0.00    -0.252 NA
HETATM   24  C   UNL     1      23.468  49.849  48.868  1.00  0.00     0.070 A 
HETATM   25  C   UNL     1      22.763  48.669  49.179  1.00  0.00    -0.006 A 
HETATM   26  C   UNL     1      22.748  50.986  48.542  1.00  0.00     0.074 A 
HETATM   27  C   UNL     1      23.506  47.531  49.523  1.00  0.00     0.033 A 
HETATM   28  C   UNL     1      21.356  48.656  49.153  1.00  0.00     0.017 A 
HETATM   29  C   UNL     1      20.654  49.813  48.830  1.00  0.00     0.043 A 
HETATM   30  C   UNL     1      21.358  50.969  48.526  1.00  0.00     0.118 A 
HETATM   31  F   UNL     1      20.687  52.086  48.218  1.00  0.00    -0.206 F 
ENDBRANCH   1  20
TORSDOF 3
ENDMDL
MODEL 7
REMARK VINA RESULT:      -9.4      1.750      2.855
REMARK  3 active torsions:
REMARK  status: ('A' for Active; 'I' for Inactive)
REMARK    1  A    between atoms: C_7  and  C_8 
REMARK       I    between atoms: C_8  and  N_9 
REMARK    2  A    between atoms: N_9  and  C_10 
REMARK    3  A    between atoms: C_17  and  C_18 
REMARK       I    between atoms: C_18  and  N_19 
ROOT
HETATM    1  C   UNL     1      25.553  45.212  52.556  1.00  0.00     0.258 C 
HETATM    2  N   UNL     1      25.779  45.927  51.390  1.00  0.00    -0.323 N 
HETATM    3  O   UNL     1      24.520  44.617  52.837  1.00  0.00    -0.267 OA
HETATM    4  H   UNL     1      26.713  46.268  51.212  1.00  0.00     0.169 HD
ENDROOT
BRANCH   2   5
HETATM    5  C   UNL     1      24.826  46.267  50.405  1.00  0.00     0.036 A 
HETATM    6  C   UNL     1      24.204  45.322  49.576  1.00  0.00     0.046 A 
HETATM    7  C   UNL     1      23.196  45.743  48.681  1.00  0.00     0.030 A 
HETATM    8  C   UNL     1      22.882  47.094  48.611  1.00  0.00     0.063 A 
HETATM    9  C   UNL     1      22.303  45.109  47.762  1.00  0.00     0.156 A 
HETATM   10  N   UNL     1      21.905  47.192  47.660  1.00  0.00    -0.277 N 
HETATM   11  C   UNL     1      23.497  48.063  49.405  1.00  0.00     0.034 A 
HETATM   12  H   UNL     1      21.446  48.035  47.336  1.00  0.00     0.189 HD
HETATM   13  N   UNL     1      21.519  46.016  47.137  1.00  0.00    -0.168 NA
HETATM   14  C   UNL     1      24.459  47.616  50.319  1.00  0.00     0.032 A 
BRANCH   9  15
HETATM   15  C   UNL     1      22.163  43.671  47.497  1.00  0.00     0.270 C 
HETATM   16  N   UNL     1      22.099  43.354  46.166  1.00  0.00    -0.365 N 
HETATM   17  H   UNL     1      22.120  44.107  45.489  1.00  0.00     0.159 HD
HETATM   18  H   UNL     1      21.949  42.397  45.889  1.00  0.00     0.159 HD
HETATM   19  O   UNL     1      22.084  42.804  48.359  1.00  0.00    -0.266 OA
ENDBRANCH   9  15
ENDBRANCH   2   5
BRANCH   1  20
HETATM   20  C   UNL     1      26.695  45.185  53.520  1.00  0.00     0.057 A 
HETATM   21  C   UNL     1      26.983  46.280  54.337  1.00  0.00     0.047 A 
HETATM   22  C   UNL     1      26.144  47.526  54.361  1.00  0.00     0.071 C 
HETATM   23  N   UNL     1      28.060  46.303  55.173  1.00  0.00    -0.252 NA
HETATM   24  C   UNL     1      28.877  45.240  55.228  1.00  0.00     0.070 A 
HETATM   25  C   UNL     1      28.646  44.079  54.462  1.00  0.00    -0.006 A 
HETATM   26  C   UNL     1      29.987  45.278  56.056  1.00  0.00     0.074 A 
HETATM   27  C   UNL     1      27.528  44.062  53.617  1.00  0.00     0.033 A 
HETATM   28  C   UNL     1      29.528  42.986  54.546  1.00  0.00     0.017 A 
HETATM   29  C   UNL     1      30.641  43.051  55.380  1.00  0.00     0.043 A 
HETATM   30  C   UNL     1      30.860  44.199  56.128  1.00  0.00     0.118 A 
HETATM   31  F   UNL     1      31.931  44.267  56.928  1.00  0.00    -0.206 F 
ENDBRANCH   1  20
TORSDOF 3
ENDMDL
MODEL 8
REMARK VINA RESULT:      -9.1      5.585      6.971
REMARK  3 active torsions:
REMARK  status: ('A' for Active; 'I' for Inactive)
REMARK    1  A    between atoms: C_7  and  C_8 
REMARK       I    between atoms: C_8  and  N_9 
REMARK    2  A    between atoms: N_9  and  C_10 
REMARK    3  A    between atoms: C_17  and  C_18 
REMARK       I    between atoms: C_18  and  N_19 
ROOT
HETATM    1  C   UNL     1      27.717  41.373  51.823  1.00  0.00     0.258 C 
HETATM    2  N   UNL     1      28.770  40.846  51.091  1.00  0.00    -0.323 N 
HETATM    3  O   UNL     1      26.542  41.046  51.716  1.00  0.00    -0.267 OA
HETATM    4  H   UNL     1      29.710  41.102  51.354  1.00  0.00     0.169 HD
ENDROOT
BRANCH   2   5
HETATM    5  C   UNL     1      28.680  39.989  49.971  1.00  0.00     0.036 A 
HETATM    6  C   UNL     1      28.182  40.399  48.726  1.00  0.00     0.046 A 
HETATM    7  C   UNL     1      28.215  39.499  47.638  1.00  0.00     0.030 A 
HETATM    8  C   UNL     1      28.694  38.212  47.845  1.00  0.00     0.063 A 
HETATM    9  C   UNL     1      27.890  39.552  46.246  1.00  0.00     0.156 A 
HETATM   10  N   UNL     1      28.583  37.584  46.636  1.00  0.00    -0.277 N 
HETATM   11  C   UNL     1      29.177  37.766  49.075  1.00  0.00     0.034 A 
HETATM   12  H   UNL     1      28.828  36.625  46.417  1.00  0.00     0.189 HD
HETATM   13  N   UNL     1      28.117  38.362  45.645  1.00  0.00    -0.168 NA
HETATM   14  C   UNL     1      29.180  38.690  50.128  1.00  0.00     0.032 A 
BRANCH   9  15
HETATM   15  C   UNL     1      27.405  40.710  45.484  1.00  0.00     0.270 C 
HETATM   16  N   UNL     1      26.184  41.175  45.894  1.00  0.00    -0.365 N 
HETATM   17  H   UNL     1      25.708  40.687  46.643  1.00  0.00     0.159 HD
HETATM   18  H   UNL     1      25.747  41.933  45.395  1.00  0.00     0.159 HD
HETATM   19  O   UNL     1      27.997  41.227  44.544  1.00  0.00    -0.266 OA
ENDBRANCH   9  15
ENDBRANCH   2   5
BRANCH   1  20
HETATM   20  C   UNL     1      28.094  42.420  52.820  1.00  0.00     0.057 A 
HETATM   21  C   UNL     1      27.446  43.657  52.856  1.00  0.00     0.047 A 
HETATM   22  C   UNL     1      26.293  44.003  51.957  1.00  0.00     0.071 C 
HETATM   23  N   UNL     1      27.819  44.651  53.712  1.00  0.00    -0.252 NA
HETATM   24  C   UNL     1      28.840  44.447  54.558  1.00  0.00     0.070 A 
HETATM   25  C   UNL     1      29.532  43.219  54.612  1.00  0.00    -0.006 A 
HETATM   26  C   UNL     1      29.236  45.469  55.404  1.00  0.00     0.074 A 
HETATM   27  C   UNL     1      29.130  42.200  53.738  1.00  0.00     0.033 A 
HETATM   28  C   UNL     1      30.599  43.046  55.513  1.00  0.00     0.017 A 
HETATM   29  C   UNL     1      30.983  44.091  56.348  1.00  0.00     0.043 A 
HETATM   30  C   UNL     1      30.297  45.295  56.285  1.00  0.00     0.118 A 
HETATM   31  F   UNL     1      30.665  46.304  57.084  1.00  0.00    -0.206 F 
ENDBRANCH   1  20
TORSDOF 3
ENDMDL
MODEL 9
REMARK VINA RESULT:      -9.1      5.305      7.890
REMARK  3 active torsions:
REMARK  status: ('A' for Active; 'I' for Inactive)
REMARK    1  A    between atoms: C_7  and  C_8 
REMARK       I    between atoms: C_8  and  N_9 
REMARK    2  A    between atoms: N_9  and  C_10 
REMARK    3  A    between atoms: C_17  and  C_18 
REMARK       I    between atoms: C_18  and  N_19 
ROOT
HETATM    1  C   UNL     1      27.813  42.447  52.677  1.00  0.00     0.258 C 
HETATM    2  N   UNL     1      27.965  42.492  51.300  1.00  0.00    -0.323 N 
HETATM    3  O   UNL     1      27.671  41.430  53.344  1.00  0.00    -0.267 OA
HETATM    4  H   UNL     1      28.201  43.377  50.874  1.00  0.00     0.169 HD
ENDROOT
BRANCH   2   5
HETATM    5  C   UNL     1      27.798  41.423  50.392  1.00  0.00     0.036 A 
HETATM    6  C   UNL     1      28.369  40.157  50.579  1.00  0.00     0.046 A 
HETATM    7  C   UNL     1      28.074  39.121  49.666  1.00  0.00     0.030 A 
HETATM    8  C   UNL     1      27.261  39.401  48.574  1.00  0.00     0.063 A 
HETATM    9  C   UNL     1      28.379  37.729  49.551  1.00  0.00     0.156 A 
HETATM   10  N   UNL     1      27.177  38.230  47.875  1.00  0.00    -0.277 N 
HETATM   11  C   UNL     1      26.694  40.655  48.346  1.00  0.00     0.034 A 
HETATM   12  H   UNL     1      26.674  38.066  47.010  1.00  0.00     0.189 HD
HETATM   13  N   UNL     1      27.824  37.197  48.439  1.00  0.00    -0.168 NA
HETATM   14  C   UNL     1      26.962  41.653  49.291  1.00  0.00     0.032 A 
BRANCH   9  15
HETATM   15  C   UNL     1      29.152  36.902  50.487  1.00  0.00     0.270 C 
HETATM   16  N   UNL     1      28.467  35.819  50.967  1.00  0.00    -0.365 N 
HETATM   17  H   UNL     1      27.505  35.688  50.679  1.00  0.00     0.159 HD
HETATM   18  H   UNL     1      28.898  35.223  51.657  1.00  0.00     0.159 HD
HETATM   19  O   UNL     1      30.299  37.138  50.848  1.00  0.00    -0.266 OA
ENDBRANCH   9  15
ENDBRANCH   2   5
BRANCH   1  20
HETATM   20  C   UNL     1      27.838  43.772  53.366  1.00  0.00     0.057 A 
HETATM   21  C   UNL     1      28.855  44.106  54.265  1.00  0.00     0.047 A 
HETATM   22  C   UNL     1      30.020  43.203  54.553  1.00  0.00     0.071 C 
HETATM   23  N   UNL     1      28.860  45.282  54.956  1.00  0.00    -0.252 NA
HETATM   24  C   UNL     1      27.864  46.161  54.773  1.00  0.00     0.070 A 
HETATM   25  C   UNL     1      26.813  45.921  53.864  1.00  0.00    -0.006 A 
HETATM   26  C   UNL     1      27.856  47.340  55.500  1.00  0.00     0.074 A 
HETATM   27  C   UNL     1      26.825  44.716  53.149  1.00  0.00     0.033 A 
HETATM   28  C   UNL     1      25.784  46.869  53.703  1.00  0.00     0.017 A 
HETATM   29  C   UNL     1      25.795  48.043  54.450  1.00  0.00     0.043 A 
HETATM   30  C   UNL     1      26.833  48.268  55.342  1.00  0.00     0.118 A 
HETATM   31  F   UNL     1      26.846  49.394  56.066  1.00  0.00    -0.206 F 
ENDBRANCH   1  20
TORSDOF 3
ENDMDL
MODEL 10
REMARK VINA RESULT:      -9.1      4.119      9.554
REMARK  3 active torsions:
REMARK  status: ('A' for Active; 'I' for Inactive)
REMARK    1  A    between atoms: C_7  and  C_8 
REMARK       I    between atoms: C_8  and  N_9 
REMARK    2  A    between atoms: N_9  and  C_10 
REMARK    3  A    between atoms: C_17  and  C_18 
REMARK       I    between atoms: C_18  and  N_19 
ROOT
HETATM    1  C   UNL     1      25.076  46.613  50.252  1.00  0.00     0.258 C 
HETATM    2  N   UNL     1      24.880  46.223  51.567  1.00  0.00    -0.323 N 
HETATM    3  O   UNL     1      26.112  46.469  49.614  1.00  0.00    -0.267 OA
HETATM    4  H   UNL     1      23.946  46.277  51.947  1.00  0.00     0.169 HD
ENDROOT
BRANCH   2   5
HETATM    5  C   UNL     1      25.863  45.769  52.474  1.00  0.00     0.036 A 
HETATM    6  C   UNL     1      26.376  44.464  52.464  1.00  0.00     0.046 A 
HETATM    7  C   UNL     1      27.423  44.125  53.349  1.00  0.00     0.030 A 
HETATM    8  C   UNL     1      27.883  45.084  54.243  1.00  0.00     0.063 A 
HETATM    9  C   UNL     1      28.239  42.976  53.589  1.00  0.00     0.156 A 
HETATM   10  N   UNL     1      28.864  44.465  54.967  1.00  0.00    -0.277 N 
HETATM   11  C   UNL     1      27.381  46.384  54.293  1.00  0.00     0.034 A 
HETATM   12  H   UNL     1      29.413  44.861  55.721  1.00  0.00     0.189 HD
HETATM   13  N   UNL     1      29.117  43.200  54.593  1.00  0.00    -0.168 NA
HETATM   14  C   UNL     1      26.377  46.711  53.374  1.00  0.00     0.032 A 
BRANCH   9  15
HETATM   15  C   UNL     1      28.220  41.697  52.866  1.00  0.00     0.270 C 
HETATM   16  N   UNL     1      27.536  40.703  53.514  1.00  0.00    -0.365 N 
HETATM   17  H   UNL     1      27.136  40.903  54.422  1.00  0.00     0.159 HD
HETATM   18  H   UNL     1      27.514  39.776  53.119  1.00  0.00     0.159 HD
HETATM   19  O   UNL     1      28.772  41.491  51.792  1.00  0.00    -0.266 OA
ENDBRANCH   9  15
ENDBRANCH   2   5
BRANCH   1  20
HETATM   20  C   UNL     1      23.898  47.252  49.592  1.00  0.00     0.057 A 
HETATM   21  C   UNL     1      22.997  46.505  48.829  1.00  0.00     0.047 A 
HETATM   22  C   UNL     1      23.100  45.015  48.670  1.00  0.00     0.071 C 
HETATM   23  N   UNL     1      21.954  47.079  48.163  1.00  0.00    -0.252 NA
HETATM   24  C   UNL     1      21.772  48.406  48.238  1.00  0.00     0.070 A 
HETATM   25  C   UNL     1      22.613  49.234  49.008  1.00  0.00    -0.006 A 
HETATM   26  C   UNL     1      20.730  48.988  47.535  1.00  0.00     0.074 A 
HETATM   27  C   UNL     1      23.673  48.632  49.700  1.00  0.00     0.033 A 
HETATM   28  C   UNL     1      22.389  50.623  49.059  1.00  0.00     0.017 A 
HETATM   29  C   UNL     1      21.340  51.186  48.338  1.00  0.00     0.043 A 
HETATM   30  C   UNL     1      20.519  50.362  47.582  1.00  0.00     0.118 A 
HETATM   31  F   UNL     1      19.511  50.899  46.884  1.00  0.00    -0.206 F 
ENDBRANCH   1  20
TORSDOF 3
ENDMDL
