MODEL 1
REMARK VINA RESULT:      -9.3      0.000      0.000
REMARK  2 active torsions:
REMARK  status: ('A' for Active; 'I' for Inactive)
REMARK    1  A    between atoms: C_4  and  C_5 
REMARK    2  A    between atoms: N_11  and  C_12 
ROOT
HETATM    1  C   UNL     1      25.445  47.511  50.225  1.00  0.00     0.069 A 
HETATM    2  N   UNL     1      24.070  47.654  50.305  1.00  0.00    -0.343 N 
HETATM    3  C   UNL     1      23.402  48.596  49.576  1.00  0.00     0.119 A 
HETATM    4  C   UNL     1      24.051  49.372  48.692  1.00  0.00     0.125 A 
HETATM    5  C   UNL     1      23.034  50.201  48.024  1.00  0.00     0.280 A 
HETATM    6  O   UNL     1      23.261  51.011  47.144  1.00  0.00    -0.265 OA
HETATM    7  N   UNL     1      21.814  49.834  48.612  1.00  0.00    -0.236 N 
HETATM    8  N   UNL     1      22.047  48.858  49.605  1.00  0.00    -0.179 NA
HETATM    9  C   UNL     1      25.501  49.252  48.495  1.00  0.00     0.215 A 
HETATM   10  O   UNL     1      26.106  49.926  47.670  1.00  0.00    -0.285 OA
HETATM   11  C   UNL     1      26.197  48.243  49.374  1.00  0.00     0.112 A 
HETATM   12 CL   UNL     1      27.909  48.111  49.223  1.00  0.00    -0.077 Cl
HETATM   13  H   UNL     1      23.579  47.187  51.061  1.00  0.00     0.167 HD
HETATM   14  H   UNL     1      21.510  48.006  49.444  1.00  0.00     0.155 HD
ENDROOT
BRANCH   1  15
HETATM   15  C   UNL     1      26.028  46.510  51.134  1.00  0.00    -0.008 A 
HETATM   16  C   UNL     1      26.067  46.747  52.514  1.00  0.00     0.014 A 
HETATM   17  C   UNL     1      26.613  45.793  53.374  1.00  0.00     0.001 A 
HETATM   18  C   UNL     1      27.121  44.599  52.861  1.00  0.00     0.000 A 
HETATM   19  C   UNL     1      27.084  44.356  51.489  1.00  0.00     0.001 A 
HETATM   20  C   UNL     1      26.538  45.308  50.625  1.00  0.00     0.014 A 
ENDBRANCH   1  15
BRANCH   7  21
HETATM   21  C   UNL     1      20.511  50.324  48.374  1.00  0.00     0.055 A 
HETATM   22  C   UNL     1      19.497  49.487  47.895  1.00  0.00     0.031 A 
HETATM   23  C   UNL     1      18.205  49.977  47.672  1.00  0.00     0.002 A 
HETATM   24  C   UNL     1      17.909  51.313  47.923  1.00  0.00     0.000 A 
HETATM   25  C   UNL     1      18.906  52.162  48.393  1.00  0.00     0.002 A 
HETATM   26  C   UNL     1      20.197  51.671  48.616  1.00  0.00     0.031 A 
ENDBRANCH   7  21
TORSDOF 2
ENDMDL
MODEL 2
REMARK VINA RESULT:      -9.0      8.088     10.217
REMARK  2 active torsions:
REMARK  status: ('A' for Active; 'I' for Inactive)
REMARK    1  A    between atoms: C_4  and  C_5 
REMARK    2  A    between atoms: N_11  and  C_12 
ROOT
HETATM    1  C   UNL     1      29.247  43.675  54.278  1.00  0.00     0.069 A 
HETATM    2  N   UNL     1      29.522  42.448  53.698  1.00  0.00    -0.343 N 
HETATM    3  C   UNL     1      28.843  42.003  52.601  1.00  0.00     0.119 A 
HETATM    4  C   UNL     1      27.929  42.778  51.993  1.00  0.00     0.125 A 
HETATM    5  C   UNL     1      27.462  42.038  50.809  1.00  0.00     0.280 A 
HETATM    6  O   UNL     1      26.643  42.450  50.007  1.00  0.00    -0.265 OA
HETATM    7  N   UNL     1      28.165  40.824  50.830  1.00  0.00    -0.236 N 
HETATM    8  N   UNL     1      29.001  40.786  51.967  1.00  0.00    -0.179 NA
HETATM    9  C   UNL     1      27.612  44.119  52.500  1.00  0.00     0.215 A 
HETATM   10  O   UNL     1      26.808  44.854  51.940  1.00  0.00    -0.285 OA
HETATM   11  C   UNL     1      28.342  44.532  53.753  1.00  0.00     0.112 A 
HETATM   12 CL   UNL     1      27.956  46.073  54.421  1.00  0.00    -0.077 Cl
HETATM   13  H   UNL     1      30.097  41.789  54.215  1.00  0.00     0.167 HD
HETATM   14  H   UNL     1      29.979  40.629  51.723  1.00  0.00     0.155 HD
ENDROOT
BRANCH   1  15
HETATM   15  C   UNL     1      30.002  43.978  55.504  1.00  0.00    -0.008 A 
HETATM   16  C   UNL     1      29.753  45.161  56.212  1.00  0.00     0.014 A 
HETATM   17  C   UNL     1      30.465  45.442  57.380  1.00  0.00     0.001 A 
HETATM   18  C   UNL     1      31.426  44.545  57.846  1.00  0.00     0.000 A 
HETATM   19  C   UNL     1      31.678  43.365  57.146  1.00  0.00     0.001 A 
HETATM   20  C   UNL     1      30.967  43.080  55.978  1.00  0.00     0.014 A 
ENDBRANCH   1  15
BRANCH   7  21
HETATM   21  C   UNL     1      28.097  39.724  49.948  1.00  0.00     0.055 A 
HETATM   22  C   UNL     1      29.223  39.290  49.239  1.00  0.00     0.031 A 
HETATM   23  C   UNL     1      29.150  38.190  48.375  1.00  0.00     0.002 A 
HETATM   24  C   UNL     1      27.947  37.511  48.206  1.00  0.00     0.000 A 
HETATM   25  C   UNL     1      26.816  37.932  48.896  1.00  0.00     0.002 A 
HETATM   26  C   UNL     1      26.890  39.030  49.760  1.00  0.00     0.031 A 
ENDBRANCH   7  21
TORSDOF 2
ENDMDL
MODEL 3
REMARK VINA RESULT:      -9.0      3.249      5.129
REMARK  2 active torsions:
REMARK  status: ('A' for Active; 'I' for Inactive)
REMARK    1  A    between atoms: C_4  and  C_5 
REMARK    2  A    between atoms: N_11  and  C_12 
ROOT
HETATM    1  C   UNL     1      27.160  45.211  53.499  1.00  0.00     0.069 A 
HETATM    2  N   UNL     1      26.786  46.435  52.971  1.00  0.00    -0.343 N 
HETATM    3  C   UNL     1      25.962  46.528  51.887  1.00  0.00     0.119 A 
HETATM    4  C   UNL     1      25.420  45.429  51.336  1.00  0.00     0.125 A 
HETATM    5  C   UNL     1      24.526  45.889  50.259  1.00  0.00     0.280 A 
HETATM    6  O   UNL     1      23.848  45.160  49.556  1.00  0.00    -0.265 OA
HETATM    7  N   UNL     1      24.635  47.287  50.260  1.00  0.00    -0.236 N 
HETATM    8  N   UNL     1      25.558  47.685  51.251  1.00  0.00    -0.179 NA
HETATM    9  C   UNL     1      25.711  44.090  51.864  1.00  0.00     0.215 A 
HETATM   10  O   UNL     1      25.200  43.079  51.397  1.00  0.00    -0.285 OA
HETATM   11  C   UNL     1      26.679  44.042  53.019  1.00  0.00     0.112 A 
HETATM   12 CL   UNL     1      27.101  42.487  53.632  1.00  0.00    -0.077 Cl
HETATM   13  H   UNL     1      27.289  47.264  53.272  1.00  0.00     0.167 HD
HETATM   14  H   UNL     1      25.150  48.341  51.918  1.00  0.00     0.155 HD
ENDROOT
BRANCH   1  15
HETATM   15  C   UNL     1      28.118  45.271  54.615  1.00  0.00    -0.008 A 
HETATM   16  C   UNL     1      29.257  44.454  54.612  1.00  0.00     0.014 A 
HETATM   17  C   UNL     1      30.168  44.519  55.667  1.00  0.00     0.001 A 
HETATM   18  C   UNL     1      29.950  45.400  56.726  1.00  0.00     0.000 A 
HETATM   19  C   UNL     1      28.820  46.216  56.734  1.00  0.00     0.001 A 
HETATM   20  C   UNL     1      27.906  46.155  55.681  1.00  0.00     0.014 A 
ENDBRANCH   1  15
BRANCH   7  21
HETATM   21  C   UNL     1      24.018  48.243  49.423  1.00  0.00     0.055 A 
HETATM   22  C   UNL     1      22.640  48.211  49.176  1.00  0.00     0.031 A 
HETATM   23  C   UNL     1      22.034  49.168  48.355  1.00  0.00     0.002 A 
HETATM   24  C   UNL     1      22.798  50.171  47.766  1.00  0.00     0.000 A 
HETATM   25  C   UNL     1      24.169  50.215  47.994  1.00  0.00     0.002 A 
HETATM   26  C   UNL     1      24.774  49.258  48.815  1.00  0.00     0.031 A 
ENDBRANCH   7  21
TORSDOF 2
ENDMDL
MODEL 4
REMARK VINA RESULT:      -8.7      5.986      9.615
REMARK  2 active torsions:
REMARK  status: ('A' for Active; 'I' for Inactive)
REMARK    1  A    between atoms: C_4  and  C_5 
REMARK    2  A    between atoms: N_11  and  C_12 
ROOT
HETATM    1  C   UNL     1      25.696  44.153  51.372  1.00  0.00     0.069 A 
HETATM    2  N   UNL     1      26.596  43.577  52.252  1.00  0.00    -0.343 N 
HETATM    3  C   UNL     1      27.272  44.319  53.178  1.00  0.00     0.119 A 
HETATM    4  C   UNL     1      27.029  45.633  53.319  1.00  0.00     0.125 A 
HETATM    5  C   UNL     1      27.851  46.099  54.449  1.00  0.00     0.280 A 
HETATM    6  O   UNL     1      27.867  47.240  54.876  1.00  0.00    -0.265 OA
HETATM    7  N   UNL     1      28.553  44.966  54.888  1.00  0.00    -0.236 N 
HETATM    8  N   UNL     1      28.220  43.863  54.073  1.00  0.00    -0.179 NA
HETATM    9  C   UNL     1      26.048  46.321  52.471  1.00  0.00     0.215 A 
HETATM   10  O   UNL     1      25.787  47.510  52.608  1.00  0.00    -0.285 OA
HETATM   11  C   UNL     1      25.381  45.467  51.422  1.00  0.00     0.112 A 
HETATM   12 CL   UNL     1      24.268  46.245  50.360  1.00  0.00    -0.077 Cl
HETATM   13  H   UNL     1      26.903  42.626  52.074  1.00  0.00     0.167 HD
HETATM   14  H   UNL     1      27.858  43.078  54.615  1.00  0.00     0.155 HD
ENDROOT
BRANCH   1  15
HETATM   15  C   UNL     1      25.111  43.238  50.379  1.00  0.00    -0.008 A 
HETATM   16  C   UNL     1      23.728  43.011  50.357  1.00  0.00     0.014 A 
HETATM   17  C   UNL     1      23.174  42.150  49.408  1.00  0.00     0.001 A 
HETATM   18  C   UNL     1      23.996  41.514  48.478  1.00  0.00     0.000 A 
HETATM   19  C   UNL     1      25.372  41.736  48.494  1.00  0.00     0.001 A 
HETATM   20  C   UNL     1      25.930  42.598  49.440  1.00  0.00     0.014 A 
ENDBRANCH   1  15
BRANCH   7  21
HETATM   21  C   UNL     1      29.502  44.836  55.925  1.00  0.00     0.055 A 
HETATM   22  C   UNL     1      29.437  45.635  57.073  1.00  0.00     0.031 A 
HETATM   23  C   UNL     1      30.375  45.492  58.103  1.00  0.00     0.002 A 
HETATM   24  C   UNL     1      31.393  44.550  57.998  1.00  0.00     0.000 A 
HETATM   25  C   UNL     1      31.478  43.752  56.862  1.00  0.00     0.002 A 
HETATM   26  C   UNL     1      30.540  43.895  55.834  1.00  0.00     0.031 A 
ENDBRANCH   7  21
TORSDOF 2
ENDMDL
MODEL 5
REMARK VINA RESULT:      -8.7      4.572      9.290
REMARK  2 active torsions:
REMARK  status: ('A' for Active; 'I' for Inactive)
REMARK    1  A    between atoms: C_4  and  C_5 
REMARK    2  A    between atoms: N_11  and  C_12 
ROOT
HETATM    1  C   UNL     1      26.282  46.163  50.277  1.00  0.00     0.069 A 
HETATM    2  N   UNL     1      26.444  45.106  49.397  1.00  0.00    -0.343 N 
HETATM    3  C   UNL     1      26.805  43.862  49.827  1.00  0.00     0.119 A 
HETATM    4  C   UNL     1      26.944  43.597  51.136  1.00  0.00     0.125 A 
HETATM    5  C   UNL     1      27.247  42.161  51.251  1.00  0.00     0.280 A 
HETATM    6  O   UNL     1      27.415  41.565  52.301  1.00  0.00    -0.265 OA
HETATM    7  N   UNL     1      27.276  41.682  49.933  1.00  0.00    -0.236 N 
HETATM    8  N   UNL     1      27.036  42.749  49.041  1.00  0.00    -0.179 NA
HETATM    9  C   UNL     1      26.735  44.639  52.149  1.00  0.00     0.215 A 
HETATM   10  O   UNL     1      26.823  44.410  53.349  1.00  0.00    -0.285 OA
HETATM   11  C   UNL     1      26.404  46.010  51.615  1.00  0.00     0.112 A 
HETATM   12 CL   UNL     1      26.213  47.281  52.764  1.00  0.00    -0.077 Cl
HETATM   13  H   UNL     1      26.487  45.309  48.403  1.00  0.00     0.167 HD
HETATM   14  H   UNL     1      26.241  42.569  48.427  1.00  0.00     0.155 HD
ENDROOT
BRANCH   1  15
HETATM   15  C   UNL     1      25.974  47.461  49.655  1.00  0.00    -0.008 A 
HETATM   16  C   UNL     1      27.010  48.302  49.227  1.00  0.00     0.014 A 
HETATM   17  C   UNL     1      26.715  49.528  48.630  1.00  0.00     0.001 A 
HETATM   18  C   UNL     1      25.387  49.920  48.456  1.00  0.00     0.000 A 
HETATM   19  C   UNL     1      24.352  49.087  48.879  1.00  0.00     0.001 A 
HETATM   20  C   UNL     1      24.643  47.859  49.476  1.00  0.00     0.014 A 
ENDBRANCH   1  15
BRANCH   7  21
HETATM   21  C   UNL     1      27.543  40.383  49.448  1.00  0.00     0.055 A 
HETATM   22  C   UNL     1      28.731  40.091  48.768  1.00  0.00     0.031 A 
HETATM   23  C   UNL     1      28.994  38.799  48.300  1.00  0.00     0.002 A 
HETATM   24  C   UNL     1      28.069  37.779  48.504  1.00  0.00     0.000 A 
HETATM   25  C   UNL     1      26.880  38.050  49.171  1.00  0.00     0.002 A 
HETATM   26  C   UNL     1      26.618  39.343  49.639  1.00  0.00     0.031 A 
ENDBRANCH   7  21
TORSDOF 2
ENDMDL
MODEL 6
REMARK VINA RESULT:      -8.1      4.197      6.648
REMARK  2 active torsions:
REMARK  status: ('A' for Active; 'I' for Inactive)
REMARK    1  A    between atoms: C_4  and  C_5 
REMARK    2  A    between atoms: N_11  and  C_12 
ROOT
HETATM    1  C   UNL     1      27.265  41.968  50.511  1.00  0.00     0.069 A 
HETATM    2  N   UNL     1      26.860  42.936  49.608  1.00  0.00    -0.343 N 
HETATM    3  C   UNL     1      26.530  44.199  50.007  1.00  0.00     0.119 A 
HETATM    4  C   UNL     1      26.662  44.573  51.290  1.00  0.00     0.125 A 
HETATM    5  C   UNL     1      26.312  46.002  51.355  1.00  0.00     0.280 A 
HETATM    6  O   UNL     1      26.340  46.682  52.366  1.00  0.00    -0.265 OA
HETATM    7  N   UNL     1      25.974  46.361  50.042  1.00  0.00    -0.236 N 
HETATM    8  N   UNL     1      26.075  45.228  49.206  1.00  0.00    -0.179 NA
HETATM    9  C   UNL     1      27.141  43.634  52.311  1.00  0.00     0.215 A 
HETATM   10  O   UNL     1      27.301  43.965  53.480  1.00  0.00    -0.285 OA
HETATM   11  C   UNL     1      27.425  42.234  51.827  1.00  0.00     0.112 A 
HETATM   12 CL   UNL     1      27.929  41.078  53.002  1.00  0.00    -0.077 Cl
HETATM   13  H   UNL     1      26.615  42.644  48.666  1.00  0.00     0.167 HD
HETATM   14  H   UNL     1      26.708  45.383  48.421  1.00  0.00     0.155 HD
ENDROOT
BRANCH   1  15
HETATM   15  C   UNL     1      27.504  40.632  49.941  1.00  0.00    -0.008 A 
HETATM   16  C   UNL     1      28.711  40.349  49.287  1.00  0.00     0.014 A 
HETATM   17  C   UNL     1      28.939  39.080  48.755  1.00  0.00     0.001 A 
HETATM   18  C   UNL     1      27.966  38.087  48.874  1.00  0.00     0.000 A 
HETATM   19  C   UNL     1      26.763  38.361  49.525  1.00  0.00     0.001 A 
HETATM   20  C   UNL     1      26.532  39.630  50.059  1.00  0.00     0.014 A 
ENDBRANCH   1  15
BRANCH   7  21
HETATM   21  C   UNL     1      25.537  47.601  49.527  1.00  0.00     0.055 A 
HETATM   22  C   UNL     1      24.177  47.925  49.469  1.00  0.00     0.031 A 
HETATM   23  C   UNL     1      23.752  49.161  48.968  1.00  0.00     0.002 A 
HETATM   24  C   UNL     1      24.683  50.090  48.513  1.00  0.00     0.000 A 
HETATM   25  C   UNL     1      26.039  49.783  48.556  1.00  0.00     0.002 A 
HETATM   26  C   UNL     1      26.463  48.548  49.058  1.00  0.00     0.031 A 
ENDBRANCH   7  21
TORSDOF 2
ENDMDL
MODEL 7
REMARK VINA RESULT:      -7.9      2.922      3.337
REMARK  2 active torsions:
REMARK  status: ('A' for Active; 'I' for Inactive)
REMARK    1  A    between atoms: C_4  and  C_5 
REMARK    2  A    between atoms: N_11  and  C_12 
ROOT
HETATM    1  C   UNL     1      23.714  45.484  49.105  1.00  0.00     0.069 A 
HETATM    2  N   UNL     1      23.256  46.669  49.654  1.00  0.00    -0.343 N 
HETATM    3  C   UNL     1      22.247  47.386  49.079  1.00  0.00     0.119 A 
HETATM    4  C   UNL     1      21.605  46.924  47.993  1.00  0.00     0.125 A 
HETATM    5  C   UNL     1      20.530  47.884  47.691  1.00  0.00     0.280 A 
HETATM    6  O   UNL     1      19.730  47.773  46.779  1.00  0.00    -0.265 OA
HETATM    7  N   UNL     1      20.646  48.887  48.666  1.00  0.00    -0.236 N 
HETATM    8  N   UNL     1      21.739  48.595  49.511  1.00  0.00    -0.179 NA
HETATM    9  C   UNL     1      21.981  45.647  47.373  1.00  0.00     0.215 A 
HETATM   10  O   UNL     1      21.386  45.192  46.403  1.00  0.00    -0.285 OA
HETATM   11  C   UNL     1      23.146  44.931  48.009  1.00  0.00     0.112 A 
HETATM   12 CL   UNL     1      23.664  43.459  47.278  1.00  0.00    -0.077 Cl
HETATM   13  H   UNL     1      23.811  47.109  50.382  1.00  0.00     0.167 HD
HETATM   14  H   UNL     1      21.465  48.543  50.493  1.00  0.00     0.155 HD
ENDROOT
BRANCH   1  15
HETATM   15  C   UNL     1      24.863  44.871  49.792  1.00  0.00    -0.008 A 
HETATM   16  C   UNL     1      26.162  45.330  49.541  1.00  0.00     0.014 A 
HETATM   17  C   UNL     1      27.249  44.754  50.200  1.00  0.00     0.001 A 
HETATM   18  C   UNL     1      27.044  43.720  51.113  1.00  0.00     0.000 A 
HETATM   19  C   UNL     1      25.753  43.259  51.369  1.00  0.00     0.001 A 
HETATM   20  C   UNL     1      24.663  43.834  50.712  1.00  0.00     0.014 A 
ENDBRANCH   1  15
BRANCH   7  21
HETATM   21  C   UNL     1      19.891  50.066  48.845  1.00  0.00     0.055 A 
HETATM   22  C   UNL     1      20.215  51.246  48.165  1.00  0.00     0.031 A 
HETATM   23  C   UNL     1      19.455  52.409  48.338  1.00  0.00     0.002 A 
HETATM   24  C   UNL     1      18.360  52.408  49.197  1.00  0.00     0.000 A 
HETATM   25  C   UNL     1      18.027  51.248  49.887  1.00  0.00     0.002 A 
HETATM   26  C   UNL     1      18.787  50.086  49.713  1.00  0.00     0.031 A 
ENDBRANCH   7  21
TORSDOF 2
ENDMDL
MODEL 8
REMARK VINA RESULT:      -7.8      7.127      9.153
REMARK  2 active torsions:
REMARK  status: ('A' for Active; 'I' for Inactive)
REMARK    1  A    between atoms: C_4  and  C_5 
REMARK    2  A    between atoms: N_11  and  C_12 
ROOT
HETATM    1  C   UNL     1      27.531  41.284  49.497  1.00  0.00     0.069 A 
HETATM    2  N   UNL     1      27.157  42.573  49.833  1.00  0.00    -0.343 N 
HETATM    3  C   UNL     1      27.307  43.058  51.100  1.00  0.00     0.119 A 
HETATM    4  C   UNL     1      27.898  42.322  52.055  1.00  0.00     0.125 A 
HETATM    5  C   UNL     1      27.977  43.167  53.258  1.00  0.00     0.280 A 
HETATM    6  O   UNL     1      28.476  42.829  54.317  1.00  0.00    -0.265 OA
HETATM    7  N   UNL     1      27.383  44.385  52.894  1.00  0.00    -0.236 N 
HETATM    8  N   UNL     1      26.933  44.306  51.559  1.00  0.00    -0.179 NA
HETATM    9  C   UNL     1      28.382  40.963  51.778  1.00  0.00     0.215 A 
HETATM   10  O   UNL     1      28.954  40.289  52.625  1.00  0.00    -0.285 OA
HETATM   11  C   UNL     1      28.129  40.454  50.381  1.00  0.00     0.112 A 
HETATM   12 CL   UNL     1      28.623  38.841  50.027  1.00  0.00    -0.077 Cl
HETATM   13  H   UNL     1      26.583  43.095  49.178  1.00  0.00     0.167 HD
HETATM   14  H   UNL     1      27.329  45.041  50.973  1.00  0.00     0.155 HD
ENDROOT
BRANCH   1  15
HETATM   15  C   UNL     1      27.230  40.878  48.114  1.00  0.00    -0.008 A 
HETATM   16  C   UNL     1      28.200  41.011  47.112  1.00  0.00     0.014 A 
HETATM   17  C   UNL     1      27.915  40.618  45.804  1.00  0.00     0.001 A 
HETATM   18  C   UNL     1      26.662  40.090  45.490  1.00  0.00     0.000 A 
HETATM   19  C   UNL     1      25.693  39.954  46.483  1.00  0.00     0.001 A 
HETATM   20  C   UNL     1      25.975  40.345  47.793  1.00  0.00     0.014 A 
ENDBRANCH   1  15
BRANCH   7  21
HETATM   21  C   UNL     1      27.165  45.550  53.661  1.00  0.00     0.055 A 
HETATM   22  C   UNL     1      28.036  45.912  54.696  1.00  0.00     0.031 A 
HETATM   23  C   UNL     1      27.820  47.075  55.445  1.00  0.00     0.002 A 
HETATM   24  C   UNL     1      26.726  47.891  55.171  1.00  0.00     0.000 A 
HETATM   25  C   UNL     1      25.846  47.544  54.152  1.00  0.00     0.002 A 
HETATM   26  C   UNL     1      26.063  46.382  53.404  1.00  0.00     0.031 A 
ENDBRANCH   7  21
TORSDOF 2
ENDMDL
MODEL 9
REMARK VINA RESULT:      -7.8      4.670      6.498
REMARK  2 active torsions:
REMARK  status: ('A' for Active; 'I' for Inactive)
REMARK    1  A    between atoms: C_4  and  C_5 
REMARK    2  A    between atoms: N_11  and  C_12 
ROOT
HETATM    1  C   UNL     1      27.774  43.408  53.083  1.00  0.00     0.069 A 
HETATM    2  N   UNL     1      26.898  44.395  52.666  1.00  0.00    -0.343 N 
HETATM    3  C   UNL     1      26.000  44.181  51.660  1.00  0.00     0.119 A 
HETATM    4  C   UNL     1      25.881  42.972  51.087  1.00  0.00     0.125 A 
HETATM    5  C   UNL     1      24.776  43.066  50.118  1.00  0.00     0.280 A 
HETATM    6  O   UNL     1      24.373  42.146  49.428  1.00  0.00    -0.265 OA
HETATM    7  N   UNL     1      24.325  44.392  50.198  1.00  0.00    -0.236 N 
HETATM    8  N   UNL     1      25.111  45.098  51.134  1.00  0.00    -0.179 NA
HETATM    9  C   UNL     1      26.727  41.846  51.504  1.00  0.00     0.215 A 
HETATM   10  O   UNL     1      26.611  40.728  51.017  1.00  0.00    -0.285 OA
HETATM   11  C   UNL     1      27.747  42.157  52.570  1.00  0.00     0.112 A 
HETATM   12 CL   UNL     1      28.805  40.883  53.047  1.00  0.00    -0.077 Cl
HETATM   13  H   UNL     1      27.061  45.348  52.977  1.00  0.00     0.167 HD
HETATM   14  H   UNL     1      24.547  45.520  51.872  1.00  0.00     0.155 HD
ENDROOT
BRANCH   1  15
HETATM   15  C   UNL     1      28.738  43.816  54.118  1.00  0.00    -0.008 A 
HETATM   16  C   UNL     1      29.880  43.041  54.364  1.00  0.00     0.014 A 
HETATM   17  C   UNL     1      30.796  43.435  55.340  1.00  0.00     0.001 A 
HETATM   18  C   UNL     1      30.580  44.602  56.073  1.00  0.00     0.000 A 
HETATM   19  C   UNL     1      29.446  45.377  55.832  1.00  0.00     0.001 A 
HETATM   20  C   UNL     1      28.527  44.988  54.857  1.00  0.00     0.014 A 
ENDBRANCH   1  15
BRANCH   7  21
HETATM   21  C   UNL     1      23.302  45.044  49.477  1.00  0.00     0.055 A 
HETATM   22  C   UNL     1      23.446  46.370  49.051  1.00  0.00     0.031 A 
HETATM   23  C   UNL     1      22.431  47.007  48.326  1.00  0.00     0.002 A 
HETATM   24  C   UNL     1      21.256  46.327  48.020  1.00  0.00     0.000 A 
HETATM   25  C   UNL     1      21.092  45.012  48.441  1.00  0.00     0.002 A 
HETATM   26  C   UNL     1      22.107  44.376  49.164  1.00  0.00     0.031 A 
ENDBRANCH   7  21
TORSDOF 2
ENDMDL
MODEL 10
REMARK VINA RESULT:      -7.8      3.267      8.304
REMARK  2 active torsions:
REMARK  status: ('A' for Active; 'I' for Inactive)
REMARK    1  A    between atoms: C_4  and  C_5 
REMARK    2  A    between atoms: N_11  and  C_12 
ROOT
HETATM    1  C   UNL     1      18.877  49.457  47.255  1.00  0.00     0.069 A 
HETATM    2  N   UNL     1      20.133  48.910  47.060  1.00  0.00    -0.343 N 
HETATM    3  C   UNL     1      21.208  49.291  47.810  1.00  0.00     0.119 A 
HETATM    4  C   UNL     1      21.068  50.162  48.823  1.00  0.00     0.125 A 
HETATM    5  C   UNL     1      22.386  50.282  49.469  1.00  0.00     0.280 A 
HETATM    6  O   UNL     1      22.626  50.974  50.442  1.00  0.00    -0.265 OA
HETATM    7  N   UNL     1      23.235  49.440  48.735  1.00  0.00    -0.236 N 
HETATM    8  N   UNL     1      22.510  48.848  47.678  1.00  0.00    -0.179 NA
HETATM    9  C   UNL     1      19.762  50.752  49.144  1.00  0.00     0.215 A 
HETATM   10  O   UNL     1      19.606  51.521  50.085  1.00  0.00    -0.285 OA
HETATM   11  C   UNL     1      18.624  50.347  48.241  1.00  0.00     0.112 A 
HETATM   12 CL   UNL     1      17.084  51.062  48.539  1.00  0.00    -0.077 Cl
HETATM   13  H   UNL     1      20.297  48.365  46.218  1.00  0.00     0.167 HD
HETATM   14  H   UNL     1      22.549  47.829  47.704  1.00  0.00     0.155 HD
ENDROOT
BRANCH   1  15
HETATM   15  C   UNL     1      17.839  49.007  46.313  1.00  0.00    -0.008 A 
HETATM   16  C   UNL     1      17.682  49.647  45.076  1.00  0.00     0.014 A 
HETATM   17  C   UNL     1      16.703  49.213  44.181  1.00  0.00     0.001 A 
HETATM   18  C   UNL     1      15.878  48.138  44.515  1.00  0.00     0.000 A 
HETATM   19  C   UNL     1      16.030  47.496  45.743  1.00  0.00     0.001 A 
HETATM   20  C   UNL     1      17.009  47.927  46.641  1.00  0.00     0.014 A 
ENDBRANCH   1  15
BRANCH   7  21
HETATM   21  C   UNL     1      24.614  49.183  48.895  1.00  0.00     0.055 A 
HETATM   22  C   UNL     1      25.579  50.018  48.320  1.00  0.00     0.031 A 
HETATM   23  C   UNL     1      26.945  49.765  48.492  1.00  0.00     0.002 A 
HETATM   24  C   UNL     1      27.365  48.670  49.241  1.00  0.00     0.000 A 
HETATM   25  C   UNL     1      26.421  47.825  49.815  1.00  0.00     0.002 A 
HETATM   26  C   UNL     1      25.056  48.080  49.642  1.00  0.00     0.031 A 
ENDBRANCH   7  21
TORSDOF 2
ENDMDL
