MODEL 1
REMARK VINA RESULT:      -8.4      0.000      0.000
REMARK  4 active torsions:
REMARK  status: ('A' for Active; 'I' for Inactive)
REMARK    1  A    between atoms: C_4  and  N_5 
REMARK       I    between atoms: N_5  and  C_6 
REMARK    2  A    between atoms: C_6  and  C_7 
REMARK    3  A    between atoms: C_11  and  C_12 
REMARK    4  A    between atoms: C_18  and  N_19 
REMARK       I    between atoms: N_19  and  C_20 
ROOT
HETATM    1  N   UNL     1      29.317  42.441  53.030  1.00  0.00    -0.320 N 
HETATM    2  C   UNL     1      28.442  41.383  52.902  1.00  0.00     0.276 C 
HETATM    3  O   UNL     1      27.629  41.023  53.747  1.00  0.00    -0.266 OA
HETATM    4  H   UNL     1      29.768  42.735  52.167  1.00  0.00     0.169 HD
ENDROOT
BRANCH   1   5
HETATM    5  C   UNL     1      29.535  43.293  54.141  1.00  0.00     0.062 A 
HETATM    6  C   UNL     1      30.569  43.026  55.058  1.00  0.00     0.038 A 
HETATM    7  C   UNL     1      30.853  43.876  56.137  1.00  0.00    -0.060 A 
HETATM    8  C   UNL     1      31.967  43.559  57.091  1.00  0.00     0.048 C 
HETATM    9  C   UNL     1      30.119  45.046  56.282  1.00  0.00     0.009 A 
HETATM   10  C   UNL     1      29.096  45.340  55.382  1.00  0.00     0.032 A 
HETATM   11  C   UNL     1      28.767  44.470  54.321  1.00  0.00     0.061 A 
BRANCH  11  12
HETATM   12  N   UNL     1      27.680  44.933  53.530  1.00  0.00    -0.326 N 
HETATM   13  C   UNL     1      26.345  44.609  53.594  1.00  0.00     0.218 C 
HETATM   14  C   UNL     1      25.522  45.301  52.538  1.00  0.00     0.117 C 
HETATM   15  O   UNL     1      25.820  43.868  54.417  1.00  0.00    -0.274 OA
HETATM   16  H   UNL     1      27.894  45.727  52.938  1.00  0.00     0.169 HD
ENDBRANCH  11  12
ENDBRANCH   1   5
BRANCH   2  17
HETATM   17  C   UNL     1      28.484  40.707  51.629  1.00  0.00     0.142 A 
HETATM   18  N   UNL     1      29.167  39.525  51.495  1.00  0.00    -0.271 N 
HETATM   19  H   UNL     1      29.690  39.046  52.222  1.00  0.00     0.189 HD
HETATM   20  N   UNL     1      29.091  38.971  50.276  1.00  0.00    -0.177 NA
HETATM   21  C   UNL     1      28.373  39.860  49.579  1.00  0.00     0.083 A 
HETATM   22  C   UNL     1      28.002  40.979  50.363  1.00  0.00     0.094 A 
HETATM   23 CL   UNL     1      27.185  42.362  49.811  1.00  0.00    -0.079 Cl
BRANCH  21  24
HETATM   24  C   UNL     1      28.013  39.660  48.109  1.00  0.00     0.041 A 
HETATM   25  C   UNL     1      28.054  38.261  47.528  1.00  0.00     0.011 A 
HETATM   26  C   UNL     1      26.736  38.911  47.777  1.00  0.00     0.011 A 
ENDBRANCH  21  24
ENDBRANCH   2  17
TORSDOF 4
ENDMDL
MODEL 2
REMARK VINA RESULT:      -8.1      4.471      7.308
REMARK  4 active torsions:
REMARK  status: ('A' for Active; 'I' for Inactive)
REMARK    1  A    between atoms: C_4  and  N_5 
REMARK       I    between atoms: N_5  and  C_6 
REMARK    2  A    between atoms: C_6  and  C_7 
REMARK    3  A    between atoms: C_11  and  C_12 
REMARK    4  A    between atoms: C_18  and  N_19 
REMARK       I    between atoms: N_19  and  C_20 
ROOT
HETATM    1  N   UNL     1      25.779  46.280  51.809  1.00  0.00    -0.320 N 
HETATM    2  C   UNL     1      26.023  46.498  50.469  1.00  0.00     0.276 C 
HETATM    3  O   UNL     1      26.934  45.996  49.819  1.00  0.00    -0.266 OA
HETATM    4  H   UNL     1      24.872  46.600  52.139  1.00  0.00     0.169 HD
ENDROOT
BRANCH   1   5
HETATM    5  C   UNL     1      26.522  45.515  52.742  1.00  0.00     0.062 A 
HETATM    6  C   UNL     1      27.100  46.125  53.871  1.00  0.00     0.038 A 
HETATM    7  C   UNL     1      27.793  45.393  54.846  1.00  0.00    -0.060 A 
HETATM    8  C   UNL     1      28.391  46.078  56.039  1.00  0.00     0.048 C 
HETATM    9  C   UNL     1      27.875  44.012  54.718  1.00  0.00     0.009 A 
HETATM   10  C   UNL     1      27.303  43.382  53.614  1.00  0.00     0.032 A 
HETATM   11  C   UNL     1      26.645  44.110  52.601  1.00  0.00     0.061 A 
BRANCH  11  12
HETATM   12  N   UNL     1      26.152  43.291  51.549  1.00  0.00    -0.326 N 
HETATM   13  C   UNL     1      24.865  43.133  51.088  1.00  0.00     0.218 C 
HETATM   14  C   UNL     1      24.763  42.130  49.967  1.00  0.00     0.117 C 
HETATM   15  O   UNL     1      23.876  43.737  51.486  1.00  0.00    -0.274 OA
HETATM   16  H   UNL     1      26.866  42.885  50.957  1.00  0.00     0.169 HD
ENDBRANCH  11  12
ENDBRANCH   1   5
BRANCH   2  17
HETATM   17  C   UNL     1      25.069  47.351  49.805  1.00  0.00     0.142 A 
HETATM   18  N   UNL     1      23.742  47.008  49.768  1.00  0.00    -0.271 N 
HETATM   19  H   UNL     1      23.325  46.169  50.162  1.00  0.00     0.189 HD
HETATM   20  N   UNL     1      22.949  47.906  49.164  1.00  0.00    -0.177 NA
HETATM   21  C   UNL     1      23.809  48.843  48.747  1.00  0.00     0.083 A 
HETATM   22  C   UNL     1      25.148  48.527  49.085  1.00  0.00     0.094 A 
HETATM   23 CL   UNL     1      26.528  49.410  48.636  1.00  0.00    -0.079 Cl
BRANCH  21  24
HETATM   24  C   UNL     1      23.365  50.094  47.994  1.00  0.00     0.041 A 
HETATM   25  C   UNL     1      21.893  50.453  47.973  1.00  0.00     0.011 A 
HETATM   26  C   UNL     1      22.831  51.264  48.798  1.00  0.00     0.011 A 
ENDBRANCH  21  24
ENDBRANCH   2  17
TORSDOF 4
ENDMDL
MODEL 3
REMARK VINA RESULT:      -7.9      3.814      6.712
REMARK  4 active torsions:
REMARK  status: ('A' for Active; 'I' for Inactive)
REMARK    1  A    between atoms: C_4  and  N_5 
REMARK       I    between atoms: N_5  and  C_6 
REMARK    2  A    between atoms: C_6  and  C_7 
REMARK    3  A    between atoms: C_11  and  C_12 
REMARK    4  A    between atoms: C_18  and  N_19 
REMARK       I    between atoms: N_19  and  C_20 
ROOT
HETATM    1  N   UNL     1      26.495  45.320  51.649  1.00  0.00    -0.320 N 
HETATM    2  C   UNL     1      25.137  45.322  51.408  1.00  0.00     0.276 C 
HETATM    3  O   UNL     1      24.321  44.565  51.922  1.00  0.00    -0.266 OA
HETATM    4  H   UNL     1      26.994  46.138  51.310  1.00  0.00     0.169 HD
ENDROOT
BRANCH   1   5
HETATM    5  C   UNL     1      27.260  44.442  52.457  1.00  0.00     0.062 A 
HETATM    6  C   UNL     1      27.537  43.131  52.028  1.00  0.00     0.038 A 
HETATM    7  C   UNL     1      28.338  42.252  52.773  1.00  0.00    -0.060 A 
HETATM    8  C   UNL     1      28.614  40.862  52.280  1.00  0.00     0.048 C 
HETATM    9  C   UNL     1      28.916  42.704  53.953  1.00  0.00     0.009 A 
HETATM   10  C   UNL     1      28.666  44.003  54.394  1.00  0.00     0.032 A 
HETATM   11  C   UNL     1      27.823  44.881  53.682  1.00  0.00     0.061 A 
BRANCH  11  12
HETATM   12  N   UNL     1      27.675  46.149  54.306  1.00  0.00    -0.326 N 
HETATM   13  C   UNL     1      26.531  46.824  54.666  1.00  0.00     0.218 C 
HETATM   14  C   UNL     1      26.812  48.173  55.276  1.00  0.00     0.117 C 
HETATM   15  O   UNL     1      25.383  46.409  54.555  1.00  0.00    -0.274 OA
HETATM   16  H   UNL     1      28.531  46.543  54.676  1.00  0.00     0.169 HD
ENDBRANCH  11  12
ENDBRANCH   1   5
BRANCH   2  17
HETATM   17  C   UNL     1      24.678  46.354  50.512  1.00  0.00     0.142 A 
HETATM   18  N   UNL     1      23.454  46.246  49.903  1.00  0.00    -0.271 N 
HETATM   19  H   UNL     1      22.798  45.477  49.999  1.00  0.00     0.189 HD
HETATM   20  N   UNL     1      23.120  47.292  49.131  1.00  0.00    -0.177 NA
HETATM   21  C   UNL     1      24.198  48.083  49.203  1.00  0.00     0.083 A 
HETATM   22  C   UNL     1      25.213  47.527  50.019  1.00  0.00     0.094 A 
HETATM   23 CL   UNL     1      26.764  48.177  50.268  1.00  0.00    -0.079 Cl
BRANCH  21  24
HETATM   24  C   UNL     1      24.289  49.422  48.477  1.00  0.00     0.041 A 
HETATM   25  C   UNL     1      23.064  49.950  47.758  1.00  0.00     0.011 A 
HETATM   26  C   UNL     1      23.499  50.594  49.029  1.00  0.00     0.011 A 
ENDBRANCH  21  24
ENDBRANCH   2  17
TORSDOF 4
ENDMDL
MODEL 4
REMARK VINA RESULT:      -7.8      2.700      7.391
REMARK  4 active torsions:
REMARK  status: ('A' for Active; 'I' for Inactive)
REMARK    1  A    between atoms: C_4  and  N_5 
REMARK       I    between atoms: N_5  and  C_6 
REMARK    2  A    between atoms: C_6  and  C_7 
REMARK    3  A    between atoms: C_11  and  C_12 
REMARK    4  A    between atoms: C_18  and  N_19 
REMARK       I    between atoms: N_19  and  C_20 
ROOT
HETATM    1  N   UNL     1      26.802  45.269  52.530  1.00  0.00    -0.320 N 
HETATM    2  C   UNL     1      26.645  44.886  53.846  1.00  0.00     0.276 C 
HETATM    3  O   UNL     1      25.603  44.487  54.354  1.00  0.00    -0.266 OA
HETATM    4  H   UNL     1      27.766  45.369  52.222  1.00  0.00     0.169 HD
ENDROOT
BRANCH   1   5
HETATM    5  C   UNL     1      25.831  45.358  51.502  1.00  0.00     0.062 A 
HETATM    6  C   UNL     1      25.292  46.605  51.131  1.00  0.00     0.038 A 
HETATM    7  C   UNL     1      24.372  46.741  50.080  1.00  0.00    -0.060 A 
HETATM    8  C   UNL     1      23.824  48.088  49.711  1.00  0.00     0.048 C 
HETATM    9  C   UNL     1      24.014  45.615  49.350  1.00  0.00     0.009 A 
HETATM   10  C   UNL     1      24.541  44.370  49.691  1.00  0.00     0.032 A 
HETATM   11  C   UNL     1      25.429  44.210  50.775  1.00  0.00     0.061 A 
BRANCH  11  12
HETATM   12  N   UNL     1      25.835  42.863  50.977  1.00  0.00    -0.326 N 
HETATM   13  C   UNL     1      26.688  42.081  50.233  1.00  0.00     0.218 C 
HETATM   14  C   UNL     1      26.822  40.680  50.773  1.00  0.00     0.117 C 
HETATM   15  O   UNL     1      27.322  42.440  49.247  1.00  0.00    -0.274 OA
HETATM   16  H   UNL     1      25.580  42.473  51.876  1.00  0.00     0.169 HD
ENDBRANCH  11  12
ENDBRANCH   1   5
BRANCH   2  17
HETATM   17  C   UNL     1      27.848  44.924  54.640  1.00  0.00     0.142 A 
HETATM   18  N   UNL     1      27.971  45.822  55.669  1.00  0.00    -0.271 N 
HETATM   19  H   UNL     1      27.284  46.516  55.948  1.00  0.00     0.189 HD
HETATM   20  N   UNL     1      29.116  45.725  56.362  1.00  0.00    -0.177 NA
HETATM   21  C   UNL     1      29.783  44.759  55.719  1.00  0.00     0.083 A 
HETATM   22  C   UNL     1      29.055  44.252  54.615  1.00  0.00     0.094 A 
HETATM   23 CL   UNL     1      29.609  43.100  53.495  1.00  0.00    -0.079 Cl
BRANCH  21  24
HETATM   24  C   UNL     1      31.166  44.282  56.152  1.00  0.00     0.041 A 
HETATM   25  C   UNL     1      31.491  44.222  57.631  1.00  0.00     0.011 A 
HETATM   26  C   UNL     1      31.274  42.955  56.879  1.00  0.00     0.011 A 
ENDBRANCH  21  24
ENDBRANCH   2  17
TORSDOF 4
ENDMDL
MODEL 5
REMARK VINA RESULT:      -7.7      3.744      6.585
REMARK  4 active torsions:
REMARK  status: ('A' for Active; 'I' for Inactive)
REMARK    1  A    between atoms: C_4  and  N_5 
REMARK       I    between atoms: N_5  and  C_6 
REMARK    2  A    between atoms: C_6  and  C_7 
REMARK    3  A    between atoms: C_11  and  C_12 
REMARK    4  A    between atoms: C_18  and  N_19 
REMARK       I    between atoms: N_19  and  C_20 
ROOT
HETATM    1  N   UNL     1      26.510  44.686  51.630  1.00  0.00    -0.320 N 
HETATM    2  C   UNL     1      26.693  45.366  50.443  1.00  0.00     0.276 C 
HETATM    3  O   UNL     1      27.606  45.177  49.647  1.00  0.00    -0.266 OA
HETATM    4  H   UNL     1      25.599  44.814  52.063  1.00  0.00     0.169 HD
ENDROOT
BRANCH   1   5
HETATM    5  C   UNL     1      27.327  43.696  52.230  1.00  0.00     0.062 A 
HETATM    6  C   UNL     1      28.289  44.049  53.195  1.00  0.00     0.038 A 
HETATM    7  C   UNL     1      29.077  43.093  53.853  1.00  0.00    -0.060 A 
HETATM    8  C   UNL     1      30.089  43.508  54.880  1.00  0.00     0.048 C 
HETATM    9  C   UNL     1      28.870  41.747  53.578  1.00  0.00     0.009 A 
HETATM   10  C   UNL     1      27.916  41.370  52.633  1.00  0.00     0.032 A 
HETATM   11  C   UNL     1      27.152  42.322  51.928  1.00  0.00     0.061 A 
BRANCH  11  12
HETATM   12  N   UNL     1      26.253  41.742  50.993  1.00  0.00    -0.326 N 
HETATM   13  C   UNL     1      26.340  41.663  49.622  1.00  0.00     0.218 C 
HETATM   14  C   UNL     1      25.143  40.992  48.996  1.00  0.00     0.117 C 
HETATM   15  O   UNL     1      27.276  42.052  48.934  1.00  0.00    -0.274 OA
HETATM   16  H   UNL     1      25.522  41.172  51.403  1.00  0.00     0.169 HD
ENDBRANCH  11  12
ENDBRANCH   1   5
BRANCH   2  17
HETATM   17  C   UNL     1      25.670  46.332  50.129  1.00  0.00     0.142 A 
HETATM   18  N   UNL     1      25.951  47.674  50.166  1.00  0.00    -0.271 N 
HETATM   19  H   UNL     1      26.840  48.097  50.416  1.00  0.00     0.189 HD
HETATM   20  N   UNL     1      24.931  48.468  49.807  1.00  0.00    -0.177 NA
HETATM   21  C   UNL     1      23.934  47.604  49.581  1.00  0.00     0.083 A 
HETATM   22  C   UNL     1      24.329  46.263  49.805  1.00  0.00     0.094 A 
HETATM   23 CL   UNL     1      23.321  44.896  49.730  1.00  0.00    -0.079 Cl
BRANCH  21  24
HETATM   24  C   UNL     1      22.543  48.046  49.135  1.00  0.00     0.041 A 
HETATM   25  C   UNL     1      22.421  49.107  48.059  1.00  0.00     0.011 A 
HETATM   26  C   UNL     1      22.092  47.692  47.730  1.00  0.00     0.011 A 
ENDBRANCH  21  24
ENDBRANCH   2  17
TORSDOF 4
ENDMDL
MODEL 6
REMARK VINA RESULT:      -7.7      2.011      2.147
REMARK  4 active torsions:
REMARK  status: ('A' for Active; 'I' for Inactive)
REMARK    1  A    between atoms: C_4  and  N_5 
REMARK       I    between atoms: N_5  and  C_6 
REMARK    2  A    between atoms: C_6  and  C_7 
REMARK    3  A    between atoms: C_11  and  C_12 
REMARK    4  A    between atoms: C_18  and  N_19 
REMARK       I    between atoms: N_19  and  C_20 
ROOT
HETATM    1  N   UNL     1      28.830  43.486  53.108  1.00  0.00    -0.320 N 
HETATM    2  C   UNL     1      28.148  42.325  52.807  1.00  0.00     0.276 C 
HETATM    3  O   UNL     1      27.733  41.510  53.624  1.00  0.00    -0.266 OA
HETATM    4  H   UNL     1      28.915  44.147  52.341  1.00  0.00     0.169 HD
ENDROOT
BRANCH   1   5
HETATM    5  C   UNL     1      29.262  43.970  54.368  1.00  0.00     0.062 A 
HETATM    6  C   UNL     1      30.388  43.413  55.002  1.00  0.00     0.038 A 
HETATM    7  C   UNL     1      30.881  43.902  56.222  1.00  0.00    -0.060 A 
HETATM    8  C   UNL     1      32.087  43.285  56.865  1.00  0.00     0.048 C 
HETATM    9  C   UNL     1      30.264  45.004  56.802  1.00  0.00     0.009 A 
HETATM   10  C   UNL     1      29.153  45.580  56.189  1.00  0.00     0.032 A 
HETATM   11  C   UNL     1      28.617  45.068  54.989  1.00  0.00     0.061 A 
BRANCH  11  12
HETATM   12  N   UNL     1      27.471  45.778  54.536  1.00  0.00    -0.326 N 
HETATM   13  C   UNL     1      27.265  47.133  54.420  1.00  0.00     0.218 C 
HETATM   14  C   UNL     1      25.882  47.476  53.930  1.00  0.00     0.117 C 
HETATM   15  O   UNL     1      28.090  48.011  54.647  1.00  0.00    -0.274 OA
HETATM   16  H   UNL     1      26.764  45.203  54.094  1.00  0.00     0.169 HD
ENDBRANCH  11  12
ENDBRANCH   1   5
BRANCH   2  17
HETATM   17  C   UNL     1      27.875  42.123  51.406  1.00  0.00     0.142 A 
HETATM   18  N   UNL     1      27.224  43.089  50.682  1.00  0.00    -0.271 N 
HETATM   19  H   UNL     1      26.876  43.976  51.035  1.00  0.00     0.189 HD
HETATM   20  N   UNL     1      27.073  42.803  49.379  1.00  0.00    -0.177 NA
HETATM   21  C   UNL     1      27.601  41.578  49.270  1.00  0.00     0.083 A 
HETATM   22  C   UNL     1      28.080  41.091  50.511  1.00  0.00     0.094 A 
HETATM   23 CL   UNL     1      28.717  39.543  50.800  1.00  0.00    -0.079 Cl
BRANCH  21  24
HETATM   24  C   UNL     1      27.664  40.821  47.947  1.00  0.00     0.041 A 
HETATM   25  C   UNL     1      26.974  39.476  47.839  1.00  0.00     0.011 A 
HETATM   26  C   UNL     1      26.382  40.657  47.151  1.00  0.00     0.011 A 
ENDBRANCH  21  24
ENDBRANCH   2  17
TORSDOF 4
ENDMDL
MODEL 7
REMARK VINA RESULT:      -7.6      3.593      6.459
REMARK  4 active torsions:
REMARK  status: ('A' for Active; 'I' for Inactive)
REMARK    1  A    between atoms: C_4  and  N_5 
REMARK       I    between atoms: N_5  and  C_6 
REMARK    2  A    between atoms: C_6  and  C_7 
REMARK    3  A    between atoms: C_11  and  C_12 
REMARK    4  A    between atoms: C_18  and  N_19 
REMARK       I    between atoms: N_19  and  C_20 
ROOT
HETATM    1  N   UNL     1      26.582  44.445  51.593  1.00  0.00    -0.320 N 
HETATM    2  C   UNL     1      25.225  44.640  51.742  1.00  0.00     0.276 C 
HETATM    3  O   UNL     1      24.524  44.142  52.617  1.00  0.00    -0.266 OA
HETATM    4  H   UNL     1      27.043  45.090  50.956  1.00  0.00     0.169 HD
ENDROOT
BRANCH   1   5
HETATM    5  C   UNL     1      27.453  43.609  52.334  1.00  0.00     0.062 A 
HETATM    6  C   UNL     1      28.295  44.148  53.325  1.00  0.00     0.038 A 
HETATM    7  C   UNL     1      29.129  43.345  54.118  1.00  0.00    -0.060 A 
HETATM    8  C   UNL     1      30.009  43.956  55.168  1.00  0.00     0.048 C 
HETATM    9  C   UNL     1      29.090  41.966  53.953  1.00  0.00     0.009 A 
HETATM   10  C   UNL     1      28.257  41.406  52.985  1.00  0.00     0.032 A 
HETATM   11  C   UNL     1      27.450  42.204  52.147  1.00  0.00     0.061 A 
BRANCH  11  12
HETATM   12  N   UNL     1      26.693  41.449  51.211  1.00  0.00    -0.326 N 
HETATM   13  C   UNL     1      26.618  41.567  49.842  1.00  0.00     0.218 C 
HETATM   14  C   UNL     1      25.657  40.585  49.221  1.00  0.00     0.117 C 
HETATM   15  O   UNL     1      27.260  42.346  49.148  1.00  0.00    -0.274 OA
HETATM   16  H   UNL     1      26.268  40.610  51.587  1.00  0.00     0.169 HD
ENDBRANCH  11  12
ENDBRANCH   1   5
BRANCH   2  17
HETATM   17  C   UNL     1      24.632  45.557  50.799  1.00  0.00     0.142 A 
HETATM   18  N   UNL     1      23.525  45.189  50.079  1.00  0.00    -0.271 N 
HETATM   19  H   UNL     1      23.051  44.292  50.118  1.00  0.00     0.189 HD
HETATM   20  N   UNL     1      23.041  46.146  49.272  1.00  0.00    -0.177 NA
HETATM   21  C   UNL     1      23.904  47.155  49.440  1.00  0.00     0.083 A 
HETATM   22  C   UNL     1      24.937  46.827  50.351  1.00  0.00     0.094 A 
HETATM   23 CL   UNL     1      26.275  47.801  50.740  1.00  0.00    -0.079 Cl
BRANCH  21  24
HETATM   24  C   UNL     1      23.762  48.491  48.717  1.00  0.00     0.041 A 
HETATM   25  C   UNL     1      22.415  48.872  48.137  1.00  0.00     0.011 A 
HETATM   26  C   UNL     1      22.908  49.569  49.358  1.00  0.00     0.011 A 
ENDBRANCH  21  24
ENDBRANCH   2  17
TORSDOF 4
ENDMDL
MODEL 8
REMARK VINA RESULT:      -7.6      2.544      7.213
REMARK  4 active torsions:
REMARK  status: ('A' for Active; 'I' for Inactive)
REMARK    1  A    between atoms: C_4  and  N_5 
REMARK       I    between atoms: N_5  and  C_6 
REMARK    2  A    between atoms: C_6  and  C_7 
REMARK    3  A    between atoms: C_11  and  C_12 
REMARK    4  A    between atoms: C_18  and  N_19 
REMARK       I    between atoms: N_19  and  C_20 
ROOT
HETATM    1  N   UNL     1      28.019  43.421  52.250  1.00  0.00    -0.320 N 
HETATM    2  C   UNL     1      27.291  43.925  53.308  1.00  0.00     0.276 C 
HETATM    3  O   UNL     1      26.085  43.780  53.477  1.00  0.00    -0.266 OA
HETATM    4  H   UNL     1      29.028  43.450  52.369  1.00  0.00     0.169 HD
ENDROOT
BRANCH   1   5
HETATM    5  C   UNL     1      27.568  42.706  51.113  1.00  0.00     0.062 A 
HETATM    6  C   UNL     1      28.001  41.387  50.877  1.00  0.00     0.038 A 
HETATM    7  C   UNL     1      27.533  40.627  49.795  1.00  0.00    -0.060 A 
HETATM    8  C   UNL     1      28.015  39.222  49.579  1.00  0.00     0.048 C 
HETATM    9  C   UNL     1      26.576  41.176  48.951  1.00  0.00     0.009 A 
HETATM   10  C   UNL     1      26.122  42.476  49.169  1.00  0.00     0.032 A 
HETATM   11  C   UNL     1      26.620  43.270  50.223  1.00  0.00     0.061 A 
BRANCH  11  12
HETATM   12  N   UNL     1      26.052  44.573  50.264  1.00  0.00    -0.326 N 
HETATM   13  C   UNL     1      26.572  45.772  49.834  1.00  0.00     0.218 C 
HETATM   14  C   UNL     1      25.653  46.937  50.097  1.00  0.00     0.117 C 
HETATM   15  O   UNL     1      27.646  45.931  49.266  1.00  0.00    -0.274 OA
HETATM   16  H   UNL     1      25.068  44.600  50.501  1.00  0.00     0.169 HD
ENDBRANCH  11  12
ENDBRANCH   1   5
BRANCH   2  17
HETATM   17  C   UNL     1      28.064  44.627  54.302  1.00  0.00     0.142 A 
HETATM   18  N   UNL     1      27.601  45.802  54.835  1.00  0.00    -0.271 N 
HETATM   19  H   UNL     1      26.736  46.276  54.592  1.00  0.00     0.189 HD
HETATM   20  N   UNL     1      28.388  46.333  55.785  1.00  0.00    -0.177 NA
HETATM   21  C   UNL     1      29.428  45.491  55.827  1.00  0.00     0.083 A 
HETATM   22  C   UNL     1      29.296  44.432  54.896  1.00  0.00     0.094 A 
HETATM   23 CL   UNL     1      30.454  43.231  54.576  1.00  0.00    -0.079 Cl
BRANCH  21  24
HETATM   24  C   UNL     1      30.605  45.681  56.780  1.00  0.00     0.041 A 
HETATM   25  C   UNL     1      30.327  46.041  58.225  1.00  0.00     0.011 A 
HETATM   26  C   UNL     1      30.799  44.668  57.892  1.00  0.00     0.011 A 
ENDBRANCH  21  24
ENDBRANCH   2  17
TORSDOF 4
ENDMDL
MODEL 9
REMARK VINA RESULT:      -7.3      2.229      7.980
REMARK  4 active torsions:
REMARK  status: ('A' for Active; 'I' for Inactive)
REMARK    1  A    between atoms: C_4  and  N_5 
REMARK       I    between atoms: N_5  and  C_6 
REMARK    2  A    between atoms: C_6  and  C_7 
REMARK    3  A    between atoms: C_11  and  C_12 
REMARK    4  A    between atoms: C_18  and  N_19 
REMARK       I    between atoms: N_19  and  C_20 
ROOT
HETATM    1  N   UNL     1      28.599  40.379  49.491  1.00  0.00    -0.320 N 
HETATM    2  C   UNL     1      27.713  40.666  50.509  1.00  0.00     0.276 C 
HETATM    3  O   UNL     1      26.602  40.165  50.650  1.00  0.00    -0.266 OA
HETATM    4  H   UNL     1      29.547  40.717  49.637  1.00  0.00     0.169 HD
ENDROOT
BRANCH   1   5
HETATM    5  C   UNL     1      28.430  39.530  48.370  1.00  0.00     0.062 A 
HETATM    6  C   UNL     1      28.165  40.067  47.097  1.00  0.00     0.038 A 
HETATM    7  C   UNL     1      28.049  39.263  45.953  1.00  0.00    -0.060 A 
HETATM    8  C   UNL     1      27.771  39.873  44.611  1.00  0.00     0.048 C 
HETATM    9  C   UNL     1      28.246  37.893  46.071  1.00  0.00     0.009 A 
HETATM   10  C   UNL     1      28.520  37.337  47.320  1.00  0.00     0.032 A 
HETATM   11  C   UNL     1      28.591  38.126  48.486  1.00  0.00     0.061 A 
BRANCH  11  12
HETATM   12  N   UNL     1      28.855  37.372  49.662  1.00  0.00    -0.326 N 
HETATM   13  C   UNL     1      29.930  37.427  50.519  1.00  0.00     0.218 C 
HETATM   14  C   UNL     1      29.841  36.420  51.637  1.00  0.00     0.117 C 
HETATM   15  O   UNL     1      30.871  38.209  50.448  1.00  0.00    -0.274 OA
HETATM   16  H   UNL     1      28.072  36.826  50.001  1.00  0.00     0.169 HD
ENDBRANCH  11  12
ENDBRANCH   1   5
BRANCH   2  17
HETATM   17  C   UNL     1      28.199  41.596  51.498  1.00  0.00     0.142 A 
HETATM   18  N   UNL     1      29.362  41.339  52.177  1.00  0.00    -0.271 N 
HETATM   19  H   UNL     1      29.951  40.518  52.075  1.00  0.00     0.189 HD
HETATM   20  N   UNL     1      29.733  42.303  53.035  1.00  0.00    -0.177 NA
HETATM   21  C   UNL     1      28.739  43.194  52.943  1.00  0.00     0.083 A 
HETATM   22  C   UNL     1      27.737  42.785  52.029  1.00  0.00     0.094 A 
HETATM   23 CL   UNL     1      26.273  43.591  51.721  1.00  0.00    -0.079 Cl
BRANCH  21  24
HETATM   24  C   UNL     1      28.717  44.492  53.745  1.00  0.00     0.041 A 
HETATM   25  C   UNL     1      27.791  44.599  54.940  1.00  0.00     0.011 A 
HETATM   26  C   UNL     1      29.258  44.470  55.163  1.00  0.00     0.011 A 
ENDBRANCH  21  24
ENDBRANCH   2  17
TORSDOF 4
ENDMDL
MODEL 10
REMARK VINA RESULT:      -7.3      1.408      1.495
REMARK  4 active torsions:
REMARK  status: ('A' for Active; 'I' for Inactive)
REMARK    1  A    between atoms: C_4  and  N_5 
REMARK       I    between atoms: N_5  and  C_6 
REMARK    2  A    between atoms: C_6  and  C_7 
REMARK    3  A    between atoms: C_11  and  C_12 
REMARK    4  A    between atoms: C_18  and  N_19 
REMARK       I    between atoms: N_19  and  C_20 
ROOT
HETATM    1  N   UNL     1      28.513  42.149  52.838  1.00  0.00    -0.320 N 
HETATM    2  C   UNL     1      28.153  42.265  51.512  1.00  0.00     0.276 C 
HETATM    3  O   UNL     1      28.034  43.318  50.894  1.00  0.00    -0.266 OA
HETATM    4  H   UNL     1      28.771  41.211  53.135  1.00  0.00     0.169 HD
ENDROOT
BRANCH   1   5
HETATM    5  C   UNL     1      28.754  43.168  53.793  1.00  0.00     0.062 A 
HETATM    6  C   UNL     1      29.825  43.063  54.700  1.00  0.00     0.038 A 
HETATM    7  C   UNL     1      30.130  44.076  55.621  1.00  0.00    -0.060 A 
HETATM    8  C   UNL     1      31.283  43.929  56.569  1.00  0.00     0.048 C 
HETATM    9  C   UNL     1      29.378  45.245  55.609  1.00  0.00     0.009 A 
HETATM   10  C   UNL     1      28.318  45.378  54.713  1.00  0.00     0.032 A 
HETATM   11  C   UNL     1      27.969  44.348  53.815  1.00  0.00     0.061 A 
BRANCH  11  12
HETATM   12  N   UNL     1      26.846  44.666  53.003  1.00  0.00    -0.326 N 
HETATM   13  C   UNL     1      25.504  44.491  53.251  1.00  0.00     0.218 C 
HETATM   14  C   UNL     1      24.634  44.931  52.102  1.00  0.00     0.117 C 
HETATM   15  O   UNL     1      25.012  44.058  54.286  1.00  0.00    -0.274 OA
HETATM   16  H   UNL     1      27.056  45.241  52.196  1.00  0.00     0.169 HD
ENDBRANCH  11  12
ENDBRANCH   1   5
BRANCH   2  17
HETATM   17  C   UNL     1      27.967  41.015  50.818  1.00  0.00     0.142 A 
HETATM   18  N   UNL     1      28.994  40.110  50.734  1.00  0.00    -0.271 N 
HETATM   19  H   UNL     1      29.931  40.225  51.109  1.00  0.00     0.189 HD
HETATM   20  N   UNL     1      28.682  38.966  50.106  1.00  0.00    -0.177 NA
HETATM   21  C   UNL     1      27.415  39.163  49.722  1.00  0.00     0.083 A 
HETATM   22  C   UNL     1      26.933  40.439  50.106  1.00  0.00     0.094 A 
HETATM   23 CL   UNL     1      25.418  41.098  49.708  1.00  0.00    -0.079 Cl
BRANCH  21  24
HETATM   24  C   UNL     1      26.611  38.115  48.960  1.00  0.00     0.041 A 
HETATM   25  C   UNL     1      27.342  37.155  48.041  1.00  0.00     0.011 A 
HETATM   26  C   UNL     1      26.795  36.656  49.334  1.00  0.00     0.011 A 
ENDBRANCH  21  24
ENDBRANCH   2  17
TORSDOF 4
ENDMDL
