MODEL 1
REMARK VINA RESULT:      -9.0      0.000      0.000
REMARK  3 active torsions:
REMARK  status: ('A' for Active; 'I' for Inactive)
REMARK    1  A    between atoms: C_3  and  N_4 
REMARK       I    between atoms: N_4  and  C_5 
REMARK    2  A    between atoms: C_5  and  C_6 
REMARK    3  A    between atoms: C_7  and  C_8 
ROOT
HETATM    1  C   UNL     1      26.015  44.366  51.590  1.00  0.00     0.063 A 
HETATM    2  C   UNL     1      25.375  43.038  51.202  1.00  0.00     0.216 A 
HETATM    3  N   UNL     1      24.140  43.239  50.451  1.00  0.00    -0.091 N 
HETATM    4  C   UNL     1      23.569  44.458  50.216  1.00  0.00     0.735 A 
HETATM    5  N   UNL     1      24.193  45.570  50.650  1.00  0.00    -0.191 N 
HETATM    6  N   UNL     1      23.333  42.259  50.013  1.00  0.00     0.012 NA
HETATM    7  N   UNL     1      22.308  42.896  49.456  1.00  0.00     0.033 NA
HETATM    8  N   UNL     1      22.441  44.265  49.579  1.00  0.00     0.030 NA
HETATM    9  C   UNL     1      25.418  45.551  51.309  1.00  0.00     0.037 A 
HETATM   10  C   UNL     1      25.985  46.901  51.677  1.00  0.00     0.070 C 
HETATM   11  H   UNL     1      23.782  46.479  50.448  1.00  0.00     0.184 HD
ENDROOT
BRANCH   1  12
HETATM   12  C   UNL     1      27.388  44.328  52.170  1.00  0.00     0.256 C 
HETATM   13  N   UNL     1      27.408  44.392  53.546  1.00  0.00    -0.323 N 
HETATM   14  H   UNL     1      26.521  44.452  54.022  1.00  0.00     0.169 HD
HETATM   15  O   UNL     1      28.346  44.249  51.410  1.00  0.00    -0.267 OA
BRANCH  13  16
HETATM   16  C   UNL     1      28.541  44.329  54.397  1.00  0.00     0.041 A 
HETATM   17  C   UNL     1      28.866  45.461  55.179  1.00  0.00    -0.035 A 
HETATM   18  C   UNL     1      28.053  46.728  55.147  1.00  0.00     0.050 C 
HETATM   19  C   UNL     1      29.982  45.413  56.034  1.00  0.00     0.009 A 
HETATM   20  C   UNL     1      30.770  44.268  56.119  1.00  0.00     0.001 A 
HETATM   21  C   UNL     1      30.451  43.157  55.351  1.00  0.00     0.002 A 
HETATM   22  C   UNL     1      29.345  43.188  54.496  1.00  0.00     0.030 A 
ENDBRANCH  13  16
ENDBRANCH   1  12
BRANCH   2  23
HETATM   23  C   UNL     1      26.323  42.110  50.467  1.00  0.00     0.064 A 
HETATM   24  N   UNL     1      26.566  42.424  49.165  1.00  0.00    -0.263 NA
HETATM   25  C   UNL     1      27.358  41.587  48.457  1.00  0.00     0.117 A 
HETATM   26  C   UNL     1      27.923  40.439  48.980  1.00  0.00     0.019 A 
HETATM   27  C   UNL     1      27.661  40.124  50.307  1.00  0.00     0.003 A 
HETATM   28  C   UNL     1      26.848  40.962  51.064  1.00  0.00     0.030 A 
ENDBRANCH   2  23
TORSDOF 3
ENDMDL
MODEL 2
REMARK VINA RESULT:      -8.6      1.940      4.466
REMARK  3 active torsions:
REMARK  status: ('A' for Active; 'I' for Inactive)
REMARK    1  A    between atoms: C_3  and  N_4 
REMARK       I    between atoms: N_4  and  C_5 
REMARK    2  A    between atoms: C_5  and  C_6 
REMARK    3  A    between atoms: C_7  and  C_8 
ROOT
HETATM    1  C   UNL     1      27.391  42.498  51.558  1.00  0.00     0.063 A 
HETATM    2  C   UNL     1      27.178  42.709  50.064  1.00  0.00     0.216 A 
HETATM    3  N   UNL     1      27.641  41.563  49.289  1.00  0.00    -0.091 N 
HETATM    4  C   UNL     1      28.284  40.480  49.822  1.00  0.00     0.735 A 
HETATM    5  N   UNL     1      28.468  40.416  51.154  1.00  0.00    -0.191 N 
HETATM    6  N   UNL     1      27.626  41.477  47.949  1.00  0.00     0.012 NA
HETATM    7  N   UNL     1      28.201  40.308  47.684  1.00  0.00     0.033 NA
HETATM    8  N   UNL     1      28.618  39.680  48.841  1.00  0.00     0.030 NA
HETATM    9  C   UNL     1      28.011  41.390  52.037  1.00  0.00     0.037 A 
HETATM   10  C   UNL     1      28.269  41.121  53.499  1.00  0.00     0.070 C 
HETATM   11  H   UNL     1      28.919  39.595  51.553  1.00  0.00     0.184 HD
ENDROOT
BRANCH   1  12
HETATM   12  C   UNL     1      26.773  43.483  52.492  1.00  0.00     0.256 C 
HETATM   13  N   UNL     1      27.610  44.523  52.827  1.00  0.00    -0.323 N 
HETATM   14  H   UNL     1      28.533  44.528  52.422  1.00  0.00     0.169 HD
HETATM   15  O   UNL     1      25.623  43.294  52.869  1.00  0.00    -0.267 OA
BRANCH  13  16
HETATM   16  C   UNL     1      27.311  45.641  53.647  1.00  0.00     0.041 A 
HETATM   17  C   UNL     1      28.069  45.842  54.824  1.00  0.00    -0.035 A 
HETATM   18  C   UNL     1      29.183  44.918  55.237  1.00  0.00     0.050 C 
HETATM   19  C   UNL     1      27.791  46.950  55.645  1.00  0.00     0.009 A 
HETATM   20  C   UNL     1      26.780  47.849  55.316  1.00  0.00     0.001 A 
HETATM   21  C   UNL     1      26.036  47.652  54.161  1.00  0.00     0.002 A 
HETATM   22  C   UNL     1      26.300  46.556  53.333  1.00  0.00     0.030 A 
ENDBRANCH  13  16
ENDBRANCH   1  12
BRANCH   2  23
HETATM   23  C   UNL     1      25.749  43.074  49.709  1.00  0.00     0.064 A 
HETATM   24  N   UNL     1      25.542  44.370  49.349  1.00  0.00    -0.263 NA
HETATM   25  C   UNL     1      24.273  44.751  49.084  1.00  0.00     0.117 A 
HETATM   26  C   UNL     1      23.184  43.902  49.164  1.00  0.00     0.019 A 
HETATM   27  C   UNL     1      23.406  42.584  49.539  1.00  0.00     0.003 A 
HETATM   28  C   UNL     1      24.700  42.159  49.822  1.00  0.00     0.030 A 
ENDBRANCH   2  23
TORSDOF 3
ENDMDL
MODEL 3
REMARK VINA RESULT:      -8.6      1.415      2.107
REMARK  3 active torsions:
REMARK  status: ('A' for Active; 'I' for Inactive)
REMARK    1  A    between atoms: C_3  and  N_4 
REMARK       I    between atoms: N_4  and  C_5 
REMARK    2  A    between atoms: C_5  and  C_6 
REMARK    3  A    between atoms: C_7  and  C_8 
ROOT
HETATM    1  C   UNL     1      25.595  45.107  52.394  1.00  0.00     0.063 A 
HETATM    2  C   UNL     1      24.880  44.191  51.408  1.00  0.00     0.216 A 
HETATM    3  N   UNL     1      24.270  44.947  50.320  1.00  0.00    -0.091 N 
HETATM    4  C   UNL     1      24.246  46.311  50.246  1.00  0.00     0.735 A 
HETATM    5  N   UNL     1      24.866  47.031  51.201  1.00  0.00    -0.191 N 
HETATM    6  N   UNL     1      23.536  44.418  49.328  1.00  0.00     0.012 NA
HETATM    7  N   UNL     1      23.128  45.467  48.620  1.00  0.00     0.033 NA
HETATM    8  N   UNL     1      23.561  46.652  49.183  1.00  0.00     0.030 NA
HETATM    9  C   UNL     1      25.563  46.457  52.259  1.00  0.00     0.037 A 
HETATM   10  C   UNL     1      26.234  47.425  53.203  1.00  0.00     0.070 C 
HETATM   11  H   UNL     1      24.874  48.046  51.129  1.00  0.00     0.184 HD
ENDROOT
BRANCH   1  12
HETATM   12  C   UNL     1      26.449  44.471  53.438  1.00  0.00     0.256 C 
HETATM   13  N   UNL     1      27.779  44.814  53.347  1.00  0.00    -0.323 N 
HETATM   14  H   UNL     1      28.047  45.448  52.610  1.00  0.00     0.169 HD
HETATM   15  O   UNL     1      25.921  43.724  54.254  1.00  0.00    -0.267 OA
BRANCH  13  16
HETATM   16  C   UNL     1      28.833  44.421  54.212  1.00  0.00     0.041 A 
HETATM   17  C   UNL     1      29.595  43.279  53.877  1.00  0.00    -0.035 A 
HETATM   18  C   UNL     1      29.335  42.467  52.636  1.00  0.00     0.050 C 
HETATM   19  C   UNL     1      30.649  42.880  54.720  1.00  0.00     0.009 A 
HETATM   20  C   UNL     1      30.949  43.593  55.878  1.00  0.00     0.001 A 
HETATM   21  C   UNL     1      30.200  44.714  56.206  1.00  0.00     0.002 A 
HETATM   22  C   UNL     1      29.150  45.125  55.380  1.00  0.00     0.030 A 
ENDBRANCH  13  16
ENDBRANCH   1  12
BRANCH   2  23
HETATM   23  C   UNL     1      25.764  43.077  50.879  1.00  0.00     0.064 A 
HETATM   24  N   UNL     1      26.702  43.451  49.966  1.00  0.00    -0.263 NA
HETATM   25  C   UNL     1      27.469  42.479  49.424  1.00  0.00     0.117 A 
HETATM   26  C   UNL     1      27.349  41.139  49.742  1.00  0.00     0.019 A 
HETATM   27  C   UNL     1      26.383  40.768  50.669  1.00  0.00     0.003 A 
HETATM   28  C   UNL     1      25.574  41.743  51.244  1.00  0.00     0.030 A 
ENDBRANCH   2  23
TORSDOF 3
ENDMDL
MODEL 4
REMARK VINA RESULT:      -8.4      1.731      3.992
REMARK  3 active torsions:
REMARK  status: ('A' for Active; 'I' for Inactive)
REMARK    1  A    between atoms: C_3  and  N_4 
REMARK       I    between atoms: N_4  and  C_5 
REMARK    2  A    between atoms: C_5  and  C_6 
REMARK    3  A    between atoms: C_7  and  C_8 
ROOT
HETATM    1  C   UNL     1      28.186  42.520  51.873  1.00  0.00     0.063 A 
HETATM    2  C   UNL     1      27.201  43.435  51.153  1.00  0.00     0.216 A 
HETATM    3  N   UNL     1      26.126  42.675  50.525  1.00  0.00    -0.091 N 
HETATM    4  C   UNL     1      26.063  41.311  50.490  1.00  0.00     0.735 A 
HETATM    5  N   UNL     1      27.016  40.593  51.115  1.00  0.00    -0.191 N 
HETATM    6  N   UNL     1      25.138  43.202  49.783  1.00  0.00     0.012 NA
HETATM    7  N   UNL     1      24.443  42.150  49.359  1.00  0.00     0.033 NA
HETATM    8  N   UNL     1      25.011  40.967  49.790  1.00  0.00     0.030 NA
HETATM    9  C   UNL     1      28.062  41.170  51.829  1.00  0.00     0.037 A 
HETATM   10  C   UNL     1      29.005  40.204  52.503  1.00  0.00     0.070 C 
HETATM   11  H   UNL     1      26.951  39.577  51.115  1.00  0.00     0.184 HD
ENDROOT
BRANCH   1  12
HETATM   12  C   UNL     1      29.215  43.159  52.743  1.00  0.00     0.256 C 
HETATM   13  N   UNL     1      28.900  43.127  54.083  1.00  0.00    -0.323 N 
HETATM   14  H   UNL     1      28.033  42.685  54.347  1.00  0.00     0.169 HD
HETATM   15  O   UNL     1      30.212  43.640  52.218  1.00  0.00    -0.267 OA
BRANCH  13  16
HETATM   16  C   UNL     1      29.685  43.600  55.166  1.00  0.00     0.041 A 
HETATM   17  C   UNL     1      29.536  44.945  55.575  1.00  0.00    -0.035 A 
HETATM   18  C   UNL     1      28.574  45.892  54.909  1.00  0.00     0.050 C 
HETATM   19  C   UNL     1      30.302  45.429  56.651  1.00  0.00     0.009 A 
HETATM   20  C   UNL     1      31.203  44.602  57.318  1.00  0.00     0.001 A 
HETATM   21  C   UNL     1      31.349  43.281  56.916  1.00  0.00     0.002 A 
HETATM   22  C   UNL     1      30.596  42.785  55.848  1.00  0.00     0.030 A 
ENDBRANCH  13  16
ENDBRANCH   1  12
BRANCH   2  23
HETATM   23  C   UNL     1      26.653  44.538  52.039  1.00  0.00     0.064 A 
HETATM   24  N   UNL     1      26.014  44.126  53.168  1.00  0.00    -0.263 NA
HETATM   25  C   UNL     1      25.459  45.075  53.954  1.00  0.00     0.117 A 
HETATM   26  C   UNL     1      25.500  46.427  53.671  1.00  0.00     0.019 A 
HETATM   27  C   UNL     1      26.147  46.836  52.511  1.00  0.00     0.003 A 
HETATM   28  C   UNL     1      26.728  45.884  51.679  1.00  0.00     0.030 A 
ENDBRANCH   2  23
TORSDOF 3
ENDMDL
MODEL 5
REMARK VINA RESULT:      -8.4      2.086      3.016
REMARK  3 active torsions:
REMARK  status: ('A' for Active; 'I' for Inactive)
REMARK    1  A    between atoms: C_3  and  N_4 
REMARK       I    between atoms: N_4  and  C_5 
REMARK    2  A    between atoms: C_5  and  C_6 
REMARK    3  A    between atoms: C_7  and  C_8 
ROOT
HETATM    1  C   UNL     1      26.381  45.536  53.734  1.00  0.00     0.063 A 
HETATM    2  C   UNL     1      25.724  44.669  52.665  1.00  0.00     0.216 A 
HETATM    3  N   UNL     1      25.161  45.479  51.591  1.00  0.00    -0.091 N 
HETATM    4  C   UNL     1      25.126  46.845  51.591  1.00  0.00     0.735 A 
HETATM    5  N   UNL     1      25.691  47.516  52.613  1.00  0.00    -0.191 N 
HETATM    6  N   UNL     1      24.482  45.000  50.536  1.00  0.00     0.012 NA
HETATM    7  N   UNL     1      24.099  46.083  49.867  1.00  0.00     0.033 NA
HETATM    8  N   UNL     1      24.491  47.238  50.515  1.00  0.00     0.030 NA
HETATM    9  C   UNL     1      26.341  46.890  53.672  1.00  0.00     0.037 A 
HETATM   10  C   UNL     1      26.954  47.811  54.699  1.00  0.00     0.070 C 
HETATM   11  H   UNL     1      25.692  48.534  52.596  1.00  0.00     0.184 HD
ENDROOT
BRANCH   1  12
HETATM   12  C   UNL     1      27.188  44.849  54.783  1.00  0.00     0.256 C 
HETATM   13  N   UNL     1      28.485  45.304  54.865  1.00  0.00    -0.323 N 
HETATM   14  H   UNL     1      28.762  46.039  54.233  1.00  0.00     0.169 HD
HETATM   15  O   UNL     1      26.656  43.973  55.455  1.00  0.00    -0.267 OA
BRANCH  13  16
HETATM   16  C   UNL     1      29.486  44.895  55.783  1.00  0.00     0.041 A 
HETATM   17  C   UNL     1      30.307  43.794  55.448  1.00  0.00    -0.035 A 
HETATM   18  C   UNL     1      30.163  43.042  54.152  1.00  0.00     0.050 C 
HETATM   19  C   UNL     1      31.309  43.380  56.344  1.00  0.00     0.009 A 
HETATM   20  C   UNL     1      31.503  44.039  57.556  1.00  0.00     0.001 A 
HETATM   21  C   UNL     1      30.697  45.120  57.885  1.00  0.00     0.002 A 
HETATM   22  C   UNL     1      29.696  45.544  57.006  1.00  0.00     0.030 A 
ENDBRANCH  13  16
ENDBRANCH   1  12
BRANCH   2  23
HETATM   23  C   UNL     1      26.645  43.593  52.121  1.00  0.00     0.064 A 
HETATM   24  N   UNL     1      26.326  42.315  52.464  1.00  0.00    -0.263 NA
HETATM   25  C   UNL     1      27.156  41.331  52.050  1.00  0.00     0.117 A 
HETATM   26  C   UNL     1      28.301  41.554  51.307  1.00  0.00     0.019 A 
HETATM   27  C   UNL     1      28.620  42.863  50.970  1.00  0.00     0.003 A 
HETATM   28  C   UNL     1      27.789  43.900  51.383  1.00  0.00     0.030 A 
ENDBRANCH   2  23
TORSDOF 3
ENDMDL
MODEL 6
REMARK VINA RESULT:      -8.4      2.827      6.046
REMARK  3 active torsions:
REMARK  status: ('A' for Active; 'I' for Inactive)
REMARK    1  A    between atoms: C_3  and  N_4 
REMARK       I    between atoms: N_4  and  C_5 
REMARK    2  A    between atoms: C_5  and  C_6 
REMARK    3  A    between atoms: C_7  and  C_8 
ROOT
HETATM    1  C   UNL     1      26.512  45.632  52.196  1.00  0.00     0.063 A 
HETATM    2  C   UNL     1      26.669  44.425  51.278  1.00  0.00     0.216 A 
HETATM    3  N   UNL     1      27.179  43.265  52.001  1.00  0.00    -0.091 N 
HETATM    4  C   UNL     1      27.572  43.283  53.309  1.00  0.00     0.735 A 
HETATM    5  N   UNL     1      27.440  44.419  54.019  1.00  0.00    -0.191 N 
HETATM    6  N   UNL     1      27.461  42.074  51.450  1.00  0.00     0.012 NA
HETATM    7  N   UNL     1      27.963  41.355  52.450  1.00  0.00     0.033 NA
HETATM    8  N   UNL     1      28.040  42.097  53.612  1.00  0.00     0.030 NA
HETATM    9  C   UNL     1      26.894  45.587  53.497  1.00  0.00     0.037 A 
HETATM   10  C   UNL     1      26.784  46.745  54.459  1.00  0.00     0.070 C 
HETATM   11  H   UNL     1      27.705  44.423  55.002  1.00  0.00     0.184 HD
ENDROOT
BRANCH   1  12
HETATM   12  C   UNL     1      25.800  46.825  51.656  1.00  0.00     0.256 C 
HETATM   13  N   UNL     1      26.102  47.099  50.341  1.00  0.00    -0.323 N 
HETATM   14  H   UNL     1      26.753  46.486  49.876  1.00  0.00     0.169 HD
HETATM   15  O   UNL     1      25.038  47.439  52.394  1.00  0.00    -0.267 OA
BRANCH  13  16
HETATM   16  C   UNL     1      25.560  48.126  49.527  1.00  0.00     0.041 A 
HETATM   17  C   UNL     1      26.442  49.060  48.935  1.00  0.00    -0.035 A 
HETATM   18  C   UNL     1      27.933  49.002  49.131  1.00  0.00     0.050 C 
HETATM   19  C   UNL     1      25.921  50.080  48.118  1.00  0.00     0.009 A 
HETATM   20  C   UNL     1      24.552  50.184  47.887  1.00  0.00     0.001 A 
HETATM   21  C   UNL     1      23.686  49.268  48.469  1.00  0.00     0.002 A 
HETATM   22  C   UNL     1      24.187  48.247  49.282  1.00  0.00     0.030 A 
ENDBRANCH  13  16
ENDBRANCH   1  12
BRANCH   2  23
HETATM   23  C   UNL     1      25.401  44.086  50.516  1.00  0.00     0.064 A 
HETATM   24  N   UNL     1      25.395  44.430  49.198  1.00  0.00    -0.263 NA
HETATM   25  C   UNL     1      24.262  44.200  48.498  1.00  0.00     0.117 A 
HETATM   26  C   UNL     1      23.120  43.646  49.045  1.00  0.00     0.019 A 
HETATM   27  C   UNL     1      23.134  43.307  50.392  1.00  0.00     0.003 A 
HETATM   28  C   UNL     1      24.284  43.532  51.143  1.00  0.00     0.030 A 
ENDBRANCH   2  23
TORSDOF 3
ENDMDL
MODEL 7
REMARK VINA RESULT:      -8.3      2.308      6.742
REMARK  3 active torsions:
REMARK  status: ('A' for Active; 'I' for Inactive)
REMARK    1  A    between atoms: C_3  and  N_4 
REMARK       I    between atoms: N_4  and  C_5 
REMARK    2  A    between atoms: C_5  and  C_6 
REMARK    3  A    between atoms: C_7  and  C_8 
ROOT
HETATM    1  C   UNL     1      26.608  44.868  52.188  1.00  0.00     0.063 A 
HETATM    2  C   UNL     1      25.710  46.070  52.455  1.00  0.00     0.216 A 
HETATM    3  N   UNL     1      26.150  46.818  53.627  1.00  0.00    -0.091 N 
HETATM    4  C   UNL     1      27.172  46.433  54.449  1.00  0.00     0.735 A 
HETATM    5  N   UNL     1      27.871  45.321  54.151  1.00  0.00    -0.191 N 
HETATM    6  N   UNL     1      25.532  47.897  54.134  1.00  0.00     0.012 NA
HETATM    7  N   UNL     1      26.228  48.197  55.227  1.00  0.00     0.033 NA
HETATM    8  N   UNL     1      27.250  47.291  55.436  1.00  0.00     0.030 NA
HETATM    9  C   UNL     1      27.627  44.545  53.022  1.00  0.00     0.037 A 
HETATM   10  C   UNL     1      28.546  43.363  52.830  1.00  0.00     0.070 C 
HETATM   11  H   UNL     1      28.651  45.052  54.747  1.00  0.00     0.184 HD
ENDROOT
BRANCH   1  12
HETATM   12  C   UNL     1      26.418  44.134  50.904  1.00  0.00     0.256 C 
HETATM   13  N   UNL     1      25.396  43.211  50.943  1.00  0.00    -0.323 N 
HETATM   14  H   UNL     1      24.882  43.121  51.806  1.00  0.00     0.169 HD
HETATM   15  O   UNL     1      27.154  44.397  49.961  1.00  0.00    -0.267 OA
BRANCH  13  16
HETATM   16  C   UNL     1      24.932  42.392  49.883  1.00  0.00     0.041 A 
HETATM   17  C   UNL     1      23.636  42.620  49.366  1.00  0.00    -0.035 A 
HETATM   18  C   UNL     1      22.732  43.702  49.895  1.00  0.00     0.050 C 
HETATM   19  C   UNL     1      23.162  41.821  48.309  1.00  0.00     0.009 A 
HETATM   20  C   UNL     1      23.951  40.810  47.767  1.00  0.00     0.001 A 
HETATM   21  C   UNL     1      25.224  40.586  48.274  1.00  0.00     0.002 A 
HETATM   22  C   UNL     1      25.710  41.371  49.324  1.00  0.00     0.030 A 
ENDBRANCH  13  16
ENDBRANCH   1  12
BRANCH   2  23
HETATM   23  C   UNL     1      25.552  46.978  51.249  1.00  0.00     0.064 A 
HETATM   24  N   UNL     1      24.317  46.989  50.676  1.00  0.00    -0.263 NA
HETATM   25  C   UNL     1      24.151  47.738  49.563  1.00  0.00     0.117 A 
HETATM   26  C   UNL     1      25.160  48.481  48.980  1.00  0.00     0.019 A 
HETATM   27  C   UNL     1      26.418  48.456  49.568  1.00  0.00     0.003 A 
HETATM   28  C   UNL     1      26.625  47.693  50.714  1.00  0.00     0.030 A 
ENDBRANCH   2  23
TORSDOF 3
ENDMDL
MODEL 8
REMARK VINA RESULT:      -8.1     13.030     15.435
REMARK  3 active torsions:
REMARK  status: ('A' for Active; 'I' for Inactive)
REMARK    1  A    between atoms: C_3  and  N_4 
REMARK       I    between atoms: N_4  and  C_5 
REMARK    2  A    between atoms: C_5  and  C_6 
REMARK    3  A    between atoms: C_7  and  C_8 
ROOT
HETATM    1  C   UNL     1      31.836  50.292  41.047  1.00  0.00     0.063 A 
HETATM    2  C   UNL     1      31.863  51.774  40.690  1.00  0.00     0.216 A 
HETATM    3  N   UNL     1      33.155  52.169  40.139  1.00  0.00    -0.091 N 
HETATM    4  C   UNL     1      34.242  51.345  40.054  1.00  0.00     0.735 A 
HETATM    5  N   UNL     1      34.126  50.062  40.447  1.00  0.00    -0.191 N 
HETATM    6  N   UNL     1      33.493  53.417  39.776  1.00  0.00     0.012 NA
HETATM    7  N   UNL     1      34.767  53.324  39.409  1.00  0.00     0.033 NA
HETATM    8  N   UNL     1      35.246  52.040  39.580  1.00  0.00     0.030 NA
HETATM    9  C   UNL     1      32.938  49.511  40.917  1.00  0.00     0.037 A 
HETATM   10  C   UNL     1      32.990  48.043  41.266  1.00  0.00     0.070 C 
HETATM   11  H   UNL     1      34.928  49.441  40.355  1.00  0.00     0.184 HD
ENDROOT
BRANCH   1  12
HETATM   12  C   UNL     1      30.522  49.693  41.416  1.00  0.00     0.256 C 
HETATM   13  N   UNL     1      29.925  48.998  40.388  1.00  0.00    -0.323 N 
HETATM   14  H   UNL     1      30.416  48.955  39.508  1.00  0.00     0.169 HD
HETATM   15  O   UNL     1      30.097  49.861  42.553  1.00  0.00    -0.267 OA
BRANCH  13  16
HETATM   16  C   UNL     1      28.705  48.276  40.428  1.00  0.00     0.041 A 
HETATM   17  C   UNL     1      27.489  48.996  40.411  1.00  0.00    -0.035 A 
HETATM   18  C   UNL     1      27.439  50.499  40.346  1.00  0.00     0.050 C 
HETATM   19  C   UNL     1      26.269  48.295  40.443  1.00  0.00     0.009 A 
HETATM   20  C   UNL     1      26.245  46.903  40.493  1.00  0.00     0.001 A 
HETATM   21  C   UNL     1      27.439  46.196  40.510  1.00  0.00     0.002 A 
HETATM   22  C   UNL     1      28.660  46.877  40.478  1.00  0.00     0.030 A 
ENDBRANCH  13  16
ENDBRANCH   1  12
BRANCH   2  23
HETATM   23  C   UNL     1      30.725  52.189  39.777  1.00  0.00     0.064 A 
HETATM   24  N   UNL     1      30.663  51.545  38.579  1.00  0.00    -0.263 NA
HETATM   25  C   UNL     1      29.700  51.928  37.712  1.00  0.00     0.117 A 
HETATM   26  C   UNL     1      28.787  52.933  37.973  1.00  0.00     0.019 A 
HETATM   27  C   UNL     1      28.864  53.589  39.195  1.00  0.00     0.003 A 
HETATM   28  C   UNL     1      29.846  53.221  40.110  1.00  0.00     0.030 A 
ENDBRANCH   2  23
TORSDOF 3
ENDMDL
MODEL 9
REMARK VINA RESULT:      -8.1      5.413      8.182
REMARK  3 active torsions:
REMARK  status: ('A' for Active; 'I' for Inactive)
REMARK    1  A    between atoms: C_3  and  N_4 
REMARK       I    between atoms: N_4  and  C_5 
REMARK    2  A    between atoms: C_5  and  C_6 
REMARK    3  A    between atoms: C_7  and  C_8 
ROOT
HETATM    1  C   UNL     1      21.618  49.111  49.062  1.00  0.00     0.063 A 
HETATM    2  C   UNL     1      20.199  48.710  49.449  1.00  0.00     0.216 A 
HETATM    3  N   UNL     1      19.338  49.875  49.612  1.00  0.00    -0.091 N 
HETATM    4  C   UNL     1      19.769  51.170  49.536  1.00  0.00     0.735 A 
HETATM    5  N   UNL     1      21.059  51.416  49.239  1.00  0.00    -0.191 N 
HETATM    6  N   UNL     1      18.051  49.839  49.994  1.00  0.00     0.012 NA
HETATM    7  N   UNL     1      17.693  51.117  50.081  1.00  0.00     0.033 NA
HETATM    8  N   UNL     1      18.754  51.955  49.801  1.00  0.00     0.030 NA
HETATM    9  C   UNL     1      21.987  50.413  48.974  1.00  0.00     0.037 A 
HETATM   10  C   UNL     1      23.374  50.885  48.612  1.00  0.00     0.070 C 
HETATM   11  H   UNL     1      21.372  52.381  49.152  1.00  0.00     0.184 HD
ENDROOT
BRANCH   1  12
HETATM   12  C   UNL     1      22.556  48.028  48.649  1.00  0.00     0.256 C 
HETATM   13  N   UNL     1      23.249  47.470  49.699  1.00  0.00    -0.323 N 
HETATM   14  H   UNL     1      23.064  47.829  50.623  1.00  0.00     0.169 HD
HETATM   15  O   UNL     1      22.631  47.738  47.461  1.00  0.00    -0.267 OA
BRANCH  13  16
HETATM   16  C   UNL     1      24.173  46.395  49.648  1.00  0.00     0.041 A 
HETATM   17  C   UNL     1      25.555  46.683  49.724  1.00  0.00    -0.035 A 
HETATM   18  C   UNL     1      26.084  48.085  49.861  1.00  0.00     0.050 C 
HETATM   19  C   UNL     1      26.485  45.627  49.683  1.00  0.00     0.009 A 
HETATM   20  C   UNL     1      26.062  44.305  49.567  1.00  0.00     0.001 A 
HETATM   21  C   UNL     1      24.705  44.022  49.493  1.00  0.00     0.002 A 
HETATM   22  C   UNL     1      23.768  45.060  49.533  1.00  0.00     0.030 A 
ENDBRANCH  13  16
ENDBRANCH   1  12
BRANCH   2  23
HETATM   23  C   UNL     1      19.584  47.698  48.500  1.00  0.00     0.064 A 
HETATM   24  N   UNL     1      19.549  46.413  48.948  1.00  0.00    -0.263 NA
HETATM   25  C   UNL     1      19.065  45.471  48.108  1.00  0.00     0.117 A 
HETATM   26  C   UNL     1      18.613  45.741  46.829  1.00  0.00     0.019 A 
HETATM   27  C   UNL     1      18.661  47.055  46.380  1.00  0.00     0.003 A 
HETATM   28  C   UNL     1      19.157  48.049  47.218  1.00  0.00     0.030 A 
ENDBRANCH   2  23
TORSDOF 3
ENDMDL
MODEL 10
REMARK VINA RESULT:      -8.0      2.656      4.173
REMARK  3 active torsions:
REMARK  status: ('A' for Active; 'I' for Inactive)
REMARK    1  A    between atoms: C_3  and  N_4 
REMARK       I    between atoms: N_4  and  C_5 
REMARK    2  A    between atoms: C_5  and  C_6 
REMARK    3  A    between atoms: C_7  and  C_8 
ROOT
HETATM    1  C   UNL     1      25.543  47.157  49.837  1.00  0.00     0.063 A 
HETATM    2  C   UNL     1      24.048  46.860  49.817  1.00  0.00     0.216 A 
HETATM    3  N   UNL     1      23.317  47.840  49.023  1.00  0.00    -0.091 N 
HETATM    4  C   UNL     1      23.880  48.949  48.456  1.00  0.00     0.735 A 
HETATM    5  N   UNL     1      25.207  49.146  48.577  1.00  0.00    -0.191 N 
HETATM    6  N   UNL     1      21.984  47.865  48.860  1.00  0.00     0.012 NA
HETATM    7  N   UNL     1      21.758  48.957  48.135  1.00  0.00     0.033 NA
HETATM    8  N   UNL     1      22.930  49.642  47.880  1.00  0.00     0.030 NA
HETATM    9  C   UNL     1      26.054  48.259  49.234  1.00  0.00     0.037 A 
HETATM   10  C   UNL     1      27.519  48.625  49.225  1.00  0.00     0.070 C 
HETATM   11  H   UNL     1      25.630  49.956  48.129  1.00  0.00     0.184 HD
ENDROOT
BRANCH   1  12
HETATM   12  C   UNL     1      26.446  46.126  50.424  1.00  0.00     0.256 C 
HETATM   13  N   UNL     1      26.234  45.908  51.766  1.00  0.00    -0.323 N 
HETATM   14  H   UNL     1      25.508  46.443  52.216  1.00  0.00     0.169 HD
HETATM   15  O   UNL     1      27.270  45.583  49.697  1.00  0.00    -0.267 OA
BRANCH  13  16
HETATM   16  C   UNL     1      26.887  44.965  52.601  1.00  0.00     0.041 A 
HETATM   17  C   UNL     1      27.385  45.397  53.852  1.00  0.00    -0.035 A 
HETATM   18  C   UNL     1      27.245  46.816  54.334  1.00  0.00     0.050 C 
HETATM   19  C   UNL     1      28.030  44.474  54.696  1.00  0.00     0.009 A 
HETATM   20  C   UNL     1      28.184  43.143  54.316  1.00  0.00     0.001 A 
HETATM   21  C   UNL     1      27.695  42.719  53.087  1.00  0.00     0.002 A 
HETATM   22  C   UNL     1      27.052  43.624  52.237  1.00  0.00     0.030 A 
ENDBRANCH  13  16
ENDBRANCH   1  12
BRANCH   2  23
HETATM   23  C   UNL     1      23.726  45.443  49.378  1.00  0.00     0.064 A 
HETATM   24  N   UNL     1      23.520  44.546  50.381  1.00  0.00    -0.263 NA
HETATM   25  C   UNL     1      23.291  43.261  50.033  1.00  0.00     0.117 A 
HETATM   26  C   UNL     1      23.260  42.813  48.725  1.00  0.00     0.019 A 
HETATM   27  C   UNL     1      23.479  43.735  47.710  1.00  0.00     0.003 A 
HETATM   28  C   UNL     1      23.721  45.067  48.034  1.00  0.00     0.030 A 
ENDBRANCH   2  23
TORSDOF 3
ENDMDL
