MODEL 1
REMARK VINA RESULT:      -8.4      0.000      0.000
REMARK  9 active torsions:
REMARK  status: ('A' for Active; 'I' for Inactive)
REMARK    1  A    between atoms: O_2  and  C_3 
REMARK    2  A    between atoms: C_6  and  C_7 
REMARK    3  A    between atoms: C_13  and  C_14 
REMARK       I    between atoms: C_14  and  N_15 
REMARK    4  A    between atoms: N_15  and  N_16 
REMARK    5  A    between atoms: N_16  and  C_17 
REMARK    6  A    between atoms: C_17  and  N_18 
REMARK    7  A    between atoms: N_18  and  C_19 
REMARK    8  A    between atoms: C_19  and  C_20 
REMARK    9  A    between atoms: C_27  and  C_28 
ROOT
HETATM    1  C   UNL     1      26.280  43.902  54.048  1.00  0.00     0.118 C 
HETATM    2  N   UNL     1      26.159  42.981  52.920  1.00  0.00    -0.365 N 
HETATM    3  C   UNL     1      26.457  43.390  51.661  1.00  0.00     0.138 A 
HETATM    4  N   UNL     1      26.520  44.726  51.356  1.00  0.00    -0.240 N 
HETATM    5  N   UNL     1      26.886  44.967  50.088  1.00  0.00    -0.181 NA
HETATM    6  C   UNL     1      26.996  43.740  49.567  1.00  0.00     0.160 A 
HETATM    7  C   UNL     1      26.765  42.703  50.501  1.00  0.00     0.098 A 
HETATM    8  C   UNL     1      26.359  45.788  52.335  1.00  0.00     0.221 C 
HETATM    9  C   UNL     1      25.672  45.246  53.607  1.00  0.00     0.066 C 
HETATM   10  H   UNL     1      26.232  41.985  53.147  1.00  0.00     0.161 HD
ENDROOT
BRANCH   7  11
HETATM   11  C   UNL     1      26.799  41.259  50.356  1.00  0.00     0.275 C 
HETATM   12  N   UNL     1      25.622  40.561  50.125  1.00  0.00    -0.263 N 
HETATM   13  H   UNL     1      25.813  39.588  49.899  1.00  0.00     0.190 HD
HETATM   14  O   UNL     1      27.848  40.617  50.441  1.00  0.00    -0.266 OA
BRANCH  12  15
HETATM   15  N   UNL     1      24.538  41.116  49.412  1.00  0.00    -0.274 N 
HETATM   16  H   UNL     1      23.781  41.507  49.965  1.00  0.00     0.189 HD
BRANCH  15  17
HETATM   17  C   UNL     1      24.402  40.932  48.059  1.00  0.00     0.186 C 
HETATM   18  S   UNL     1      23.838  42.072  46.972  1.00  0.00    -0.040 SA
BRANCH  17  19
HETATM   19  N   UNL     1      24.772  39.720  47.562  1.00  0.00    -0.360 N 
HETATM   20  H   UNL     1      24.092  38.985  47.716  1.00  0.00     0.162 HD
BRANCH  19  21
HETATM   21  C   UNL     1      25.896  39.399  46.703  1.00  0.00     0.187 C 
BRANCH  21  22
HETATM   22  C   UNL     1      26.937  38.696  47.484  1.00  0.00     0.070 A 
HETATM   23  O   UNL     1      26.514  38.019  48.592  1.00  0.00    -0.325 OA
HETATM   24  C   UNL     1      27.617  37.455  49.152  1.00  0.00     0.142 A 
HETATM   25  C   UNL     1      28.739  37.757  48.418  1.00  0.00     0.027 A 
HETATM   26  C   UNL     1      28.303  38.561  47.340  1.00  0.00     0.036 A 
ENDBRANCH  21  22
ENDBRANCH  19  21
ENDBRANCH  17  19
ENDBRANCH  15  17
ENDBRANCH  12  15
ENDBRANCH   7  11
BRANCH   1  27
HETATM   27  C   UNL     1      27.704  44.017  54.583  1.00  0.00    -0.035 A 
HETATM   28  C   UNL     1      28.165  45.145  55.282  1.00  0.00     0.012 A 
HETATM   29  C   UNL     1      29.473  45.207  55.770  1.00  0.00     0.037 A 
HETATM   30  C   UNL     1      30.359  44.150  55.574  1.00  0.00     0.068 A 
HETATM   31  C   UNL     1      29.935  43.041  54.847  1.00  0.00     0.037 A 
HETATM   32  C   UNL     1      28.626  42.980  54.350  1.00  0.00     0.012 A 
BRANCH  30  33
HETATM   33  O   UNL     1      31.599  44.328  56.119  1.00  0.00    -0.356 OA
HETATM   34  C   UNL     1      31.985  43.410  57.135  1.00  0.00     0.210 C 
ENDBRANCH  30  33
ENDBRANCH   1  27
BRANCH   8  35
HETATM   35  C   UNL     1      25.559  46.948  51.785  1.00  0.00     0.409 C 
HETATM   36  F   UNL     1      24.516  46.549  51.023  1.00  0.00    -0.169 F 
HETATM   37  F   UNL     1      25.027  47.660  52.819  1.00  0.00    -0.169 F 
HETATM   38  F   UNL     1      26.294  47.827  51.073  1.00  0.00    -0.169 F 
ENDBRANCH   8  35
TORSDOF 9
ENDMDL
MODEL 2
REMARK VINA RESULT:      -8.3      2.203      3.609
REMARK  9 active torsions:
REMARK  status: ('A' for Active; 'I' for Inactive)
REMARK    1  A    between atoms: O_2  and  C_3 
REMARK    2  A    between atoms: C_6  and  C_7 
REMARK    3  A    between atoms: C_13  and  C_14 
REMARK       I    between atoms: C_14  and  N_15 
REMARK    4  A    between atoms: N_15  and  N_16 
REMARK    5  A    between atoms: N_16  and  C_17 
REMARK    6  A    between atoms: C_17  and  N_18 
REMARK    7  A    between atoms: N_18  and  C_19 
REMARK    8  A    between atoms: C_19  and  C_20 
REMARK    9  A    between atoms: C_27  and  C_28 
ROOT
HETATM    1  C   UNL     1      26.197  44.008  54.057  1.00  0.00     0.118 C 
HETATM    2  N   UNL     1      26.004  43.053  52.968  1.00  0.00    -0.365 N 
HETATM    3  C   UNL     1      26.294  43.399  51.688  1.00  0.00     0.138 A 
HETATM    4  N   UNL     1      26.415  44.719  51.332  1.00  0.00    -0.240 N 
HETATM    5  N   UNL     1      26.763  44.893  50.048  1.00  0.00    -0.181 NA
HETATM    6  C   UNL     1      26.801  43.645  49.571  1.00  0.00     0.160 A 
HETATM    7  C   UNL     1      26.541  42.656  50.549  1.00  0.00     0.098 A 
HETATM    8  C   UNL     1      26.330  45.823  52.272  1.00  0.00     0.221 C 
HETATM    9  C   UNL     1      25.646  45.364  53.578  1.00  0.00     0.066 C 
HETATM   10  H   UNL     1      26.034  42.064  53.231  1.00  0.00     0.161 HD
ENDROOT
BRANCH   7  11
HETATM   11  C   UNL     1      26.500  41.207  50.458  1.00  0.00     0.275 C 
HETATM   12  N   UNL     1      25.559  40.593  49.643  1.00  0.00    -0.263 N 
HETATM   13  H   UNL     1      25.742  39.596  49.563  1.00  0.00     0.190 HD
HETATM   14  O   UNL     1      27.274  40.490  51.095  1.00  0.00    -0.266 OA
BRANCH  12  15
HETATM   15  N   UNL     1      25.078  41.189  48.458  1.00  0.00    -0.274 N 
HETATM   16  H   UNL     1      25.692  41.858  48.003  1.00  0.00     0.189 HD
BRANCH  15  17
HETATM   17  C   UNL     1      23.770  41.050  48.068  1.00  0.00     0.186 C 
HETATM   18  S   UNL     1      23.239  40.224  46.713  1.00  0.00    -0.040 SA
BRANCH  17  19
HETATM   19  N   UNL     1      22.826  41.626  48.862  1.00  0.00    -0.360 N 
HETATM   20  H   UNL     1      21.956  41.108  48.912  1.00  0.00     0.162 HD
BRANCH  19  21
HETATM   21  C   UNL     1      22.968  42.750  49.767  1.00  0.00     0.187 C 
BRANCH  21  22
HETATM   22  C   UNL     1      22.610  44.003  49.066  1.00  0.00     0.070 A 
HETATM   23  O   UNL     1      21.299  44.380  49.123  1.00  0.00    -0.325 OA
HETATM   24  C   UNL     1      21.192  45.541  48.424  1.00  0.00     0.142 A 
HETATM   25  C   UNL     1      22.416  45.917  47.924  1.00  0.00     0.027 A 
HETATM   26  C   UNL     1      23.335  44.923  48.336  1.00  0.00     0.036 A 
ENDBRANCH  21  22
ENDBRANCH  19  21
ENDBRANCH  17  19
ENDBRANCH  15  17
ENDBRANCH  12  15
ENDBRANCH   7  11
BRANCH   1  27
HETATM   27  C   UNL     1      27.637  44.071  54.558  1.00  0.00    -0.035 A 
HETATM   28  C   UNL     1      28.154  45.179  55.247  1.00  0.00     0.012 A 
HETATM   29  C   UNL     1      29.475  45.194  55.704  1.00  0.00     0.037 A 
HETATM   30  C   UNL     1      30.318  44.107  55.483  1.00  0.00     0.068 A 
HETATM   31  C   UNL     1      29.838  43.016  54.765  1.00  0.00     0.037 A 
HETATM   32  C   UNL     1      28.515  43.003  54.300  1.00  0.00     0.012 A 
BRANCH  30  33
HETATM   33  O   UNL     1      31.576  44.240  55.999  1.00  0.00    -0.356 OA
HETATM   34  C   UNL     1      31.888  43.437  57.131  1.00  0.00     0.210 C 
ENDBRANCH  30  33
ENDBRANCH   1  27
BRANCH   8  35
HETATM   35  C   UNL     1      25.575  47.000  51.696  1.00  0.00     0.409 C 
HETATM   36  F   UNL     1      24.531  46.625  50.923  1.00  0.00    -0.169 F 
HETATM   37  F   UNL     1      25.051  47.742  52.712  1.00  0.00    -0.169 F 
HETATM   38  F   UNL     1      26.349  47.846  50.985  1.00  0.00    -0.169 F 
ENDBRANCH   8  35
TORSDOF 9
ENDMDL
MODEL 3
REMARK VINA RESULT:      -8.2     12.768     13.999
REMARK  9 active torsions:
REMARK  status: ('A' for Active; 'I' for Inactive)
REMARK    1  A    between atoms: O_2  and  C_3 
REMARK    2  A    between atoms: C_6  and  C_7 
REMARK    3  A    between atoms: C_13  and  C_14 
REMARK       I    between atoms: C_14  and  N_15 
REMARK    4  A    between atoms: N_15  and  N_16 
REMARK    5  A    between atoms: N_16  and  C_17 
REMARK    6  A    between atoms: C_17  and  N_18 
REMARK    7  A    between atoms: N_18  and  C_19 
REMARK    8  A    between atoms: C_19  and  C_20 
REMARK    9  A    between atoms: C_27  and  C_28 
ROOT
HETATM    1  C   UNL     1      32.123  50.994  43.137  1.00  0.00     0.118 C 
HETATM    2  N   UNL     1      31.677  49.848  42.347  1.00  0.00    -0.365 N 
HETATM    3  C   UNL     1      31.488  49.966  41.008  1.00  0.00     0.138 A 
HETATM    4  N   UNL     1      31.350  51.201  40.428  1.00  0.00    -0.240 N 
HETATM    5  N   UNL     1      31.231  51.151  39.092  1.00  0.00    -0.181 NA
HETATM    6  C   UNL     1      31.235  49.839  38.836  1.00  0.00     0.160 A 
HETATM    7  C   UNL     1      31.416  49.037  39.987  1.00  0.00     0.098 A 
HETATM    8  C   UNL     1      31.470  52.454  41.152  1.00  0.00     0.221 C 
HETATM    9  C   UNL     1      31.310  52.215  42.669  1.00  0.00     0.066 C 
HETATM   10  H   UNL     1      31.893  48.927  42.737  1.00  0.00     0.161 HD
ENDROOT
BRANCH   7  11
HETATM   11  C   UNL     1      31.495  47.595  40.147  1.00  0.00     0.275 C 
HETATM   12  N   UNL     1      30.556  46.781  39.528  1.00  0.00    -0.263 N 
HETATM   13  H   UNL     1      30.819  45.800  39.603  1.00  0.00     0.190 HD
HETATM   14  O   UNL     1      32.370  47.059  40.829  1.00  0.00    -0.266 OA
BRANCH  12  15
HETATM   15  N   UNL     1      29.945  47.122  38.304  1.00  0.00    -0.274 N 
HETATM   16  H   UNL     1      30.371  47.878  37.776  1.00  0.00     0.189 HD
BRANCH  15  17
HETATM   17  C   UNL     1      28.715  46.623  37.954  1.00  0.00     0.186 C 
HETATM   18  S   UNL     1      28.440  45.176  37.160  1.00  0.00    -0.040 SA
BRANCH  17  19
HETATM   19  N   UNL     1      27.628  47.367  38.298  1.00  0.00    -0.360 N 
HETATM   20  H   UNL     1      26.909  46.847  38.787  1.00  0.00     0.162 HD
BRANCH  19  21
HETATM   21  C   UNL     1      27.456  48.806  38.224  1.00  0.00     0.187 C 
BRANCH  21  22
HETATM   22  C   UNL     1      27.654  49.401  39.563  1.00  0.00     0.070 A 
HETATM   23  O   UNL     1      27.981  48.540  40.571  1.00  0.00    -0.325 OA
HETATM   24  C   UNL     1      28.115  49.287  41.699  1.00  0.00     0.142 A 
HETATM   25  C   UNL     1      27.883  50.615  41.429  1.00  0.00     0.027 A 
HETATM   26  C   UNL     1      27.583  50.692  40.049  1.00  0.00     0.036 A 
ENDBRANCH  21  22
ENDBRANCH  19  21
ENDBRANCH  17  19
ENDBRANCH  15  17
ENDBRANCH  12  15
ENDBRANCH   7  11
BRANCH   1  27
HETATM   27  C   UNL     1      33.633  51.208  43.093  1.00  0.00    -0.035 A 
HETATM   28  C   UNL     1      34.470  50.536  42.187  1.00  0.00     0.012 A 
HETATM   29  C   UNL     1      35.848  50.770  42.167  1.00  0.00     0.037 A 
HETATM   30  C   UNL     1      36.430  51.677  43.050  1.00  0.00     0.068 A 
HETATM   31  C   UNL     1      35.625  52.321  43.984  1.00  0.00     0.037 A 
HETATM   32  C   UNL     1      34.244  52.082  44.011  1.00  0.00     0.012 A 
BRANCH  30  33
HETATM   33  O   UNL     1      37.781  51.829  42.912  1.00  0.00    -0.356 OA
HETATM   34  C   UNL     1      38.574  50.662  43.095  1.00  0.00     0.210 C 
ENDBRANCH  30  33
ENDBRANCH   1  27
BRANCH   8  35
HETATM   35  C   UNL     1      30.452  53.474  40.693  1.00  0.00     0.409 C 
HETATM   36  F   UNL     1      29.977  53.218  39.453  1.00  0.00    -0.169 F 
HETATM   37  F   UNL     1      29.375  53.445  41.528  1.00  0.00    -0.169 F 
HETATM   38  F   UNL     1      30.904  54.745  40.722  1.00  0.00    -0.169 F 
ENDBRANCH   8  35
TORSDOF 9
ENDMDL
MODEL 4
REMARK VINA RESULT:      -8.1      3.535      6.845
REMARK  9 active torsions:
REMARK  status: ('A' for Active; 'I' for Inactive)
REMARK    1  A    between atoms: O_2  and  C_3 
REMARK    2  A    between atoms: C_6  and  C_7 
REMARK    3  A    between atoms: C_13  and  C_14 
REMARK       I    between atoms: C_14  and  N_15 
REMARK    4  A    between atoms: N_15  and  N_16 
REMARK    5  A    between atoms: N_16  and  C_17 
REMARK    6  A    between atoms: C_17  and  N_18 
REMARK    7  A    between atoms: N_18  and  C_19 
REMARK    8  A    between atoms: C_19  and  C_20 
REMARK    9  A    between atoms: C_27  and  C_28 
ROOT
HETATM    1  C   UNL     1      26.112  47.341  49.788  1.00  0.00     0.118 C 
HETATM    2  N   UNL     1      26.152  45.907  49.509  1.00  0.00    -0.365 N 
HETATM    3  C   UNL     1      25.548  45.025  50.346  1.00  0.00     0.138 A 
HETATM    4  N   UNL     1      25.215  45.391  51.625  1.00  0.00    -0.240 N 
HETATM    5  N   UNL     1      24.572  44.429  52.304  1.00  0.00    -0.181 NA
HETATM    6  C   UNL     1      24.556  43.408  51.441  1.00  0.00     0.160 A 
HETATM    7  C   UNL     1      25.130  43.717  50.185  1.00  0.00     0.098 A 
HETATM    8  C   UNL     1      25.396  46.731  52.157  1.00  0.00     0.221 C 
HETATM    9  C   UNL     1      26.398  47.522  51.290  1.00  0.00     0.066 C 
HETATM   10  H   UNL     1      26.284  45.647  48.528  1.00  0.00     0.161 HD
ENDROOT
BRANCH   7  11
HETATM   11  C   UNL     1      25.298  42.916  48.986  1.00  0.00     0.275 C 
HETATM   12  N   UNL     1      26.527  42.332  48.713  1.00  0.00    -0.263 N 
HETATM   13  H   UNL     1      26.458  41.687  47.930  1.00  0.00     0.190 HD
HETATM   14  O   UNL     1      24.379  42.739  48.183  1.00  0.00    -0.266 OA
BRANCH  12  15
HETATM   15  N   UNL     1      27.411  41.914  49.729  1.00  0.00    -0.274 N 
HETATM   16  H   UNL     1      28.237  42.486  49.880  1.00  0.00     0.189 HD
BRANCH  15  17
HETATM   17  C   UNL     1      27.287  40.683  50.323  1.00  0.00     0.186 C 
HETATM   18  S   UNL     1      26.854  39.265  49.547  1.00  0.00    -0.040 SA
BRANCH  17  19
HETATM   19  N   UNL     1      27.553  40.613  51.657  1.00  0.00    -0.360 N 
HETATM   20  H   UNL     1      26.756  40.346  52.223  1.00  0.00     0.162 HD
BRANCH  19  21
HETATM   21  C   UNL     1      28.836  40.684  52.329  1.00  0.00     0.187 C 
BRANCH  21  22
HETATM   22  C   UNL     1      28.901  41.912  53.151  1.00  0.00     0.070 A 
HETATM   23  O   UNL     1      27.732  42.323  53.726  1.00  0.00    -0.325 OA
HETATM   24  C   UNL     1      28.015  43.453  54.427  1.00  0.00     0.142 A 
HETATM   25  C   UNL     1      29.348  43.770  54.314  1.00  0.00     0.027 A 
HETATM   26  C   UNL     1      29.923  42.776  53.488  1.00  0.00     0.036 A 
ENDBRANCH  21  22
ENDBRANCH  19  21
ENDBRANCH  17  19
ENDBRANCH  15  17
ENDBRANCH  12  15
ENDBRANCH   7  11
BRANCH   1  27
HETATM   27  C   UNL     1      24.822  48.011  49.323  1.00  0.00    -0.035 A 
HETATM   28  C   UNL     1      23.589  47.341  49.284  1.00  0.00     0.012 A 
HETATM   29  C   UNL     1      22.425  47.994  48.866  1.00  0.00     0.037 A 
HETATM   30  C   UNL     1      22.459  49.330  48.474  1.00  0.00     0.068 A 
HETATM   31  C   UNL     1      23.678  50.000  48.465  1.00  0.00     0.037 A 
HETATM   32  C   UNL     1      24.848  49.345  48.876  1.00  0.00     0.012 A 
BRANCH  30  33
HETATM   33  O   UNL     1      21.251  49.854  48.109  1.00  0.00    -0.356 OA
HETATM   34  C   UNL     1      20.971  51.176  48.554  1.00  0.00     0.210 C 
ENDBRANCH  30  33
ENDBRANCH   1  27
BRANCH   8  35
HETATM   35  C   UNL     1      25.877  46.711  53.591  1.00  0.00     0.409 C 
HETATM   36  F   UNL     1      27.216  46.550  53.691  1.00  0.00    -0.169 F 
HETATM   37  F   UNL     1      25.590  47.906  54.181  1.00  0.00    -0.169 F 
HETATM   38  F   UNL     1      25.278  45.772  54.352  1.00  0.00    -0.169 F 
ENDBRANCH   8  35
TORSDOF 9
ENDMDL
MODEL 5
REMARK VINA RESULT:      -8.0      7.102      9.497
REMARK  9 active torsions:
REMARK  status: ('A' for Active; 'I' for Inactive)
REMARK    1  A    between atoms: O_2  and  C_3 
REMARK    2  A    between atoms: C_6  and  C_7 
REMARK    3  A    between atoms: C_13  and  C_14 
REMARK       I    between atoms: C_14  and  N_15 
REMARK    4  A    between atoms: N_15  and  N_16 
REMARK    5  A    between atoms: N_16  and  C_17 
REMARK    6  A    between atoms: C_17  and  N_18 
REMARK    7  A    between atoms: N_18  and  C_19 
REMARK    8  A    between atoms: C_19  and  C_20 
REMARK    9  A    between atoms: C_27  and  C_28 
ROOT
HETATM    1  C   UNL     1      20.343  49.743  49.826  1.00  0.00     0.118 C 
HETATM    2  N   UNL     1      19.593  48.548  49.447  1.00  0.00    -0.365 N 
HETATM    3  C   UNL     1      18.914  48.504  48.272  1.00  0.00     0.138 A 
HETATM    4  N   UNL     1      18.607  49.659  47.599  1.00  0.00    -0.240 N 
HETATM    5  N   UNL     1      17.989  49.445  46.428  1.00  0.00    -0.181 NA
HETATM    6  C   UNL     1      17.852  48.115  46.396  1.00  0.00     0.160 A 
HETATM    7  C   UNL     1      18.429  47.459  47.508  1.00  0.00     0.098 A 
HETATM    8  C   UNL     1      19.034  50.981  48.023  1.00  0.00     0.221 C 
HETATM    9  C   UNL     1      19.453  50.960  49.508  1.00  0.00     0.066 C 
HETATM   10  H   UNL     1      19.909  47.670  49.868  1.00  0.00     0.161 HD
ENDROOT
BRANCH   7  11
HETATM   11  C   UNL     1      18.515  46.050  47.850  1.00  0.00     0.275 C 
HETATM   12  N   UNL     1      19.665  45.335  47.546  1.00  0.00    -0.263 N 
HETATM   13  H   UNL     1      19.643  44.411  47.972  1.00  0.00     0.190 HD
HETATM   14  O   UNL     1      17.587  45.452  48.399  1.00  0.00    -0.266 OA
BRANCH  12  15
HETATM   15  N   UNL     1      20.944  45.929  47.525  1.00  0.00    -0.274 N 
HETATM   16  H   UNL     1      21.018  46.836  47.073  1.00  0.00     0.189 HD
BRANCH  15  17
HETATM   17  C   UNL     1      22.067  45.226  47.883  1.00  0.00     0.186 C 
HETATM   18  S   UNL     1      23.018  44.316  46.850  1.00  0.00    -0.040 SA
BRANCH  17  19
HETATM   19  N   UNL     1      22.442  45.289  49.191  1.00  0.00    -0.360 N 
HETATM   20  H   UNL     1      21.826  45.847  49.771  1.00  0.00     0.162 HD
BRANCH  19  21
HETATM   21  C   UNL     1      23.470  44.529  49.875  1.00  0.00     0.187 C 
BRANCH  21  22
HETATM   22  C   UNL     1      24.608  45.414  50.206  1.00  0.00     0.070 A 
HETATM   23  O   UNL     1      25.641  45.439  49.314  1.00  0.00    -0.325 OA
HETATM   24  C   UNL     1      26.566  46.305  49.806  1.00  0.00     0.142 A 
HETATM   25  C   UNL     1      26.139  46.840  50.998  1.00  0.00     0.027 A 
HETATM   26  C   UNL     1      24.874  46.265  51.261  1.00  0.00     0.036 A 
ENDBRANCH  21  22
ENDBRANCH  19  21
ENDBRANCH  17  19
ENDBRANCH  15  17
ENDBRANCH  12  15
ENDBRANCH   7  11
BRANCH   1  27
HETATM   27  C   UNL     1      21.729  49.813  49.194  1.00  0.00    -0.035 A 
HETATM   28  C   UNL     1      22.219  50.967  48.561  1.00  0.00     0.012 A 
HETATM   29  C   UNL     1      23.502  50.997  48.006  1.00  0.00     0.037 A 
HETATM   30  C   UNL     1      24.330  49.879  48.063  1.00  0.00     0.068 A 
HETATM   31  C   UNL     1      23.848  48.712  48.648  1.00  0.00     0.037 A 
HETATM   32  C   UNL     1      22.559  48.677  49.199  1.00  0.00     0.012 A 
BRANCH  30  33
HETATM   33  O   UNL     1      25.565  50.047  47.503  1.00  0.00    -0.356 OA
HETATM   34  C   UNL     1      26.683  49.874  48.365  1.00  0.00     0.210 C 
ENDBRANCH  30  33
ENDBRANCH   1  27
BRANCH   8  35
HETATM   35  C   UNL     1      17.952  52.019  47.820  1.00  0.00     0.409 C 
HETATM   36  F   UNL     1      16.722  51.562  48.147  1.00  0.00    -0.169 F 
HETATM   37  F   UNL     1      18.191  53.086  48.633  1.00  0.00    -0.169 F 
HETATM   38  F   UNL     1      17.902  52.514  46.566  1.00  0.00    -0.169 F 
ENDBRANCH   8  35
TORSDOF 9
ENDMDL
MODEL 6
REMARK VINA RESULT:      -7.8     11.980     14.792
REMARK  9 active torsions:
REMARK  status: ('A' for Active; 'I' for Inactive)
REMARK    1  A    between atoms: O_2  and  C_3 
REMARK    2  A    between atoms: C_6  and  C_7 
REMARK    3  A    between atoms: C_13  and  C_14 
REMARK       I    between atoms: C_14  and  N_15 
REMARK    4  A    between atoms: N_15  and  N_16 
REMARK    5  A    between atoms: N_16  and  C_17 
REMARK    6  A    between atoms: C_17  and  N_18 
REMARK    7  A    between atoms: N_18  and  C_19 
REMARK    8  A    between atoms: C_19  and  C_20 
REMARK    9  A    between atoms: C_27  and  C_28 
ROOT
HETATM    1  C   UNL     1      28.887  48.553  39.096  1.00  0.00     0.118 C 
HETATM    2  N   UNL     1      30.276  48.581  39.546  1.00  0.00    -0.365 N 
HETATM    3  C   UNL     1      30.613  49.198  40.708  1.00  0.00     0.138 A 
HETATM    4  N   UNL     1      29.762  50.103  41.290  1.00  0.00    -0.240 N 
HETATM    5  N   UNL     1      30.211  50.577  42.462  1.00  0.00    -0.181 NA
HETATM    6  C   UNL     1      31.408  49.996  42.586  1.00  0.00     0.160 A 
HETATM    7  C   UNL     1      31.716  49.101  41.535  1.00  0.00     0.098 A 
HETATM    8  C   UNL     1      28.437  50.412  40.781  1.00  0.00     0.221 C 
HETATM    9  C   UNL     1      28.309  49.965  39.309  1.00  0.00     0.066 C 
HETATM   10  H   UNL     1      30.875  47.828  39.195  1.00  0.00     0.161 HD
ENDROOT
BRANCH   7  11
HETATM   11  C   UNL     1      32.882  48.269  41.296  1.00  0.00     0.275 C 
HETATM   12  N   UNL     1      34.149  48.836  41.312  1.00  0.00    -0.263 N 
HETATM   13  H   UNL     1      34.870  48.118  41.279  1.00  0.00     0.190 HD
HETATM   14  O   UNL     1      32.789  47.061  41.067  1.00  0.00    -0.266 OA
BRANCH  12  15
HETATM   15  N   UNL     1      34.474  49.943  42.123  1.00  0.00    -0.274 N 
HETATM   16  H   UNL     1      33.815  50.179  42.859  1.00  0.00     0.189 HD
BRANCH  15  17
HETATM   17  C   UNL     1      35.499  50.795  41.794  1.00  0.00     0.186 C 
HETATM   18  S   UNL     1      37.068  50.700  42.369  1.00  0.00    -0.040 SA
BRANCH  17  19
HETATM   19  N   UNL     1      35.213  51.792  40.913  1.00  0.00    -0.360 N 
HETATM   20  H   UNL     1      35.315  52.725  41.297  1.00  0.00     0.162 HD
BRANCH  19  21
HETATM   21  C   UNL     1      34.970  51.698  39.486  1.00  0.00     0.187 C 
BRANCH  21  22
HETATM   22  C   UNL     1      33.523  51.843  39.215  1.00  0.00     0.070 A 
HETATM   23  O   UNL     1      33.051  51.239  38.084  1.00  0.00    -0.325 OA
HETATM   24  C   UNL     1      31.717  51.494  38.030  1.00  0.00     0.142 A 
HETATM   25  C   UNL     1      31.325  52.248  39.111  1.00  0.00     0.027 A 
HETATM   26  C   UNL     1      32.491  52.476  39.879  1.00  0.00     0.036 A 
ENDBRANCH  21  22
ENDBRANCH  19  21
ENDBRANCH  17  19
ENDBRANCH  15  17
ENDBRANCH  12  15
ENDBRANCH   7  11
BRANCH   1  27
HETATM   27  C   UNL     1      28.063  47.447  39.748  1.00  0.00    -0.035 A 
HETATM   28  C   UNL     1      28.538  46.135  39.903  1.00  0.00     0.012 A 
HETATM   29  C   UNL     1      27.759  45.153  40.520  1.00  0.00     0.037 A 
HETATM   30  C   UNL     1      26.484  45.449  40.997  1.00  0.00     0.068 A 
HETATM   31  C   UNL     1      25.977  46.732  40.816  1.00  0.00     0.037 A 
HETATM   32  C   UNL     1      26.755  47.717  40.191  1.00  0.00     0.012 A 
BRANCH  30  33
HETATM   33  O   UNL     1      25.837  44.406  41.598  1.00  0.00    -0.356 OA
HETATM   34  C   UNL     1      25.219  44.677  42.850  1.00  0.00     0.210 C 
ENDBRANCH  30  33
ENDBRANCH   1  27
BRANCH   8  35
HETATM   35  C   UNL     1      28.120  51.887  40.888  1.00  0.00     0.409 C 
HETATM   36  F   UNL     1      29.102  52.591  41.493  1.00  0.00    -0.169 F 
HETATM   37  F   UNL     1      27.987  52.413  39.638  1.00  0.00    -0.169 F 
HETATM   38  F   UNL     1      26.957  52.148  41.521  1.00  0.00    -0.169 F 
ENDBRANCH   8  35
TORSDOF 9
ENDMDL
MODEL 7
REMARK VINA RESULT:      -7.8     12.167     14.567
REMARK  9 active torsions:
REMARK  status: ('A' for Active; 'I' for Inactive)
REMARK    1  A    between atoms: O_2  and  C_3 
REMARK    2  A    between atoms: C_6  and  C_7 
REMARK    3  A    between atoms: C_13  and  C_14 
REMARK       I    between atoms: C_14  and  N_15 
REMARK    4  A    between atoms: N_15  and  N_16 
REMARK    5  A    between atoms: N_16  and  C_17 
REMARK    6  A    between atoms: C_17  and  N_18 
REMARK    7  A    between atoms: N_18  and  C_19 
REMARK    8  A    between atoms: C_19  and  C_20 
REMARK    9  A    between atoms: C_27  and  C_28 
ROOT
HETATM    1  C   UNL     1      29.890  46.935  39.036  1.00  0.00     0.118 C 
HETATM    2  N   UNL     1      28.806  47.616  38.331  1.00  0.00    -0.365 N 
HETATM    3  C   UNL     1      27.531  47.544  38.793  1.00  0.00     0.138 A 
HETATM    4  N   UNL     1      27.164  46.567  39.684  1.00  0.00    -0.240 N 
HETATM    5  N   UNL     1      25.890  46.668  40.090  1.00  0.00    -0.181 NA
HETATM    6  C   UNL     1      25.428  47.705  39.384  1.00  0.00     0.160 A 
HETATM    7  C   UNL     1      26.407  48.318  38.568  1.00  0.00     0.098 A 
HETATM    8  C   UNL     1      28.090  45.605  40.257  1.00  0.00     0.221 C 
HETATM    9  C   UNL     1      29.379  45.532  39.411  1.00  0.00     0.066 C 
HETATM   10  H   UNL     1      29.080  48.420  37.760  1.00  0.00     0.161 HD
ENDROOT
BRANCH   7  11
HETATM   11  C   UNL     1      26.331  49.459  37.673  1.00  0.00     0.275 C 
HETATM   12  N   UNL     1      26.450  50.745  38.182  1.00  0.00    -0.263 N 
HETATM   13  H   UNL     1      26.526  51.428  37.432  1.00  0.00     0.190 HD
HETATM   14  O   UNL     1      26.152  49.329  36.460  1.00  0.00    -0.266 OA
BRANCH  12  15
HETATM   15  N   UNL     1      27.235  51.042  39.316  1.00  0.00    -0.274 N 
HETATM   16  H   UNL     1      26.891  50.704  40.210  1.00  0.00     0.189 HD
BRANCH  15  17
HETATM   17  C   UNL     1      28.277  51.932  39.251  1.00  0.00     0.186 C 
HETATM   18  S   UNL     1      28.624  52.934  37.956  1.00  0.00    -0.040 SA
BRANCH  17  19
HETATM   19  N   UNL     1      29.088  52.013  40.342  1.00  0.00    -0.360 N 
HETATM   20  H   UNL     1      29.012  51.222  40.971  1.00  0.00     0.162 HD
BRANCH  19  21
HETATM   21  C   UNL     1      30.148  52.964  40.613  1.00  0.00     0.187 C 
BRANCH  21  22
HETATM   22  C   UNL     1      31.424  52.459  40.061  1.00  0.00     0.070 A 
HETATM   23  O   UNL     1      32.519  53.258  40.229  1.00  0.00    -0.325 OA
HETATM   24  C   UNL     1      33.569  52.613  39.655  1.00  0.00     0.142 A 
HETATM   25  C   UNL     1      33.165  51.411  39.125  1.00  0.00     0.027 A 
HETATM   26  C   UNL     1      31.778  51.309  39.384  1.00  0.00     0.036 A 
ENDBRANCH  21  22
ENDBRANCH  19  21
ENDBRANCH  17  19
ENDBRANCH  15  17
ENDBRANCH  12  15
ENDBRANCH   7  11
BRANCH   1  27
HETATM   27  C   UNL     1      30.432  47.729  40.220  1.00  0.00    -0.035 A 
HETATM   28  C   UNL     1      29.623  48.557  41.015  1.00  0.00     0.012 A 
HETATM   29  C   UNL     1      30.155  49.257  42.102  1.00  0.00     0.037 A 
HETATM   30  C   UNL     1      31.506  49.154  42.426  1.00  0.00     0.068 A 
HETATM   31  C   UNL     1      32.333  48.373  41.625  1.00  0.00     0.037 A 
HETATM   32  C   UNL     1      31.804  47.676  40.530  1.00  0.00     0.012 A 
BRANCH  30  33
HETATM   33  O   UNL     1      31.892  49.871  43.523  1.00  0.00    -0.356 OA
HETATM   34  C   UNL     1      32.663  51.042  43.278  1.00  0.00     0.210 C 
ENDBRANCH  30  33
ENDBRANCH   1  27
BRANCH   8  35
HETATM   35  C   UNL     1      27.479  44.226  40.363  1.00  0.00     0.409 C 
HETATM   36  F   UNL     1      28.400  43.239  40.290  1.00  0.00    -0.169 F 
HETATM   37  F   UNL     1      26.872  44.092  41.576  1.00  0.00    -0.169 F 
HETATM   38  F   UNL     1      26.522  43.983  39.445  1.00  0.00    -0.169 F 
ENDBRANCH   8  35
TORSDOF 9
ENDMDL
MODEL 8
REMARK VINA RESULT:      -7.6      5.447      8.603
REMARK  9 active torsions:
REMARK  status: ('A' for Active; 'I' for Inactive)
REMARK    1  A    between atoms: O_2  and  C_3 
REMARK    2  A    between atoms: C_6  and  C_7 
REMARK    3  A    between atoms: C_13  and  C_14 
REMARK       I    between atoms: C_14  and  N_15 
REMARK    4  A    between atoms: N_15  and  N_16 
REMARK    5  A    between atoms: N_16  and  C_17 
REMARK    6  A    between atoms: C_17  and  N_18 
REMARK    7  A    between atoms: N_18  and  C_19 
REMARK    8  A    between atoms: C_19  and  C_20 
REMARK    9  A    between atoms: C_27  and  C_28 
ROOT
HETATM    1  C   UNL     1      24.620  43.738  51.781  1.00  0.00     0.118 C 
HETATM    2  N   UNL     1      23.805  44.633  50.963  1.00  0.00    -0.365 N 
HETATM    3  C   UNL     1      24.269  45.859  50.609  1.00  0.00     0.138 A 
HETATM    4  N   UNL     1      25.316  46.432  51.287  1.00  0.00    -0.240 N 
HETATM    5  N   UNL     1      25.696  47.614  50.779  1.00  0.00    -0.181 NA
HETATM    6  C   UNL     1      24.819  47.815  49.790  1.00  0.00     0.160 A 
HETATM    7  C   UNL     1      23.910  46.745  49.611  1.00  0.00     0.098 A 
HETATM    8  C   UNL     1      26.050  45.770  52.352  1.00  0.00     0.221 C 
HETATM    9  C   UNL     1      25.234  44.586  52.911  1.00  0.00     0.066 C 
HETATM   10  H   UNL     1      23.103  44.181  50.370  1.00  0.00     0.161 HD
ENDROOT
BRANCH   7  11
HETATM   11  C   UNL     1      22.830  46.556  48.660  1.00  0.00     0.275 C 
HETATM   12  N   UNL     1      21.623  47.217  48.845  1.00  0.00    -0.263 N 
HETATM   13  H   UNL     1      21.019  47.109  48.034  1.00  0.00     0.190 HD
HETATM   14  O   UNL     1      22.940  45.812  47.684  1.00  0.00    -0.266 OA
BRANCH  12  15
HETATM   15  N   UNL     1      21.539  48.483  49.462  1.00  0.00    -0.274 N 
HETATM   16  H   UNL     1      21.184  48.504  50.414  1.00  0.00     0.189 HD
BRANCH  15  17
HETATM   17  C   UNL     1      21.704  49.641  48.744  1.00  0.00     0.186 C 
HETATM   18  S   UNL     1      22.817  50.845  49.079  1.00  0.00    -0.040 SA
BRANCH  17  19
HETATM   19  N   UNL     1      20.900  49.813  47.659  1.00  0.00    -0.360 N 
HETATM   20  H   UNL     1      21.402  49.919  46.785  1.00  0.00     0.162 HD
BRANCH  19  21
HETATM   21  C   UNL     1      19.458  49.679  47.571  1.00  0.00     0.187 C 
BRANCH  21  22
HETATM   22  C   UNL     1      18.808  50.756  48.349  1.00  0.00     0.070 A 
HETATM   23  O   UNL     1      17.770  50.384  49.155  1.00  0.00    -0.325 OA
HETATM   24  C   UNL     1      17.325  51.512  49.769  1.00  0.00     0.142 A 
HETATM   25  C   UNL     1      18.066  52.601  49.374  1.00  0.00     0.027 A 
HETATM   26  C   UNL     1      19.024  52.115  48.454  1.00  0.00     0.036 A 
ENDBRANCH  21  22
ENDBRANCH  19  21
ENDBRANCH  17  19
ENDBRANCH  15  17
ENDBRANCH  12  15
ENDBRANCH   7  11
BRANCH   1  27
HETATM   27  C   UNL     1      25.649  42.952  50.975  1.00  0.00    -0.035 A 
HETATM   28  C   UNL     1      25.533  42.743  49.591  1.00  0.00     0.012 A 
HETATM   29  C   UNL     1      26.505  42.030  48.884  1.00  0.00     0.037 A 
HETATM   30  C   UNL     1      27.618  41.502  49.536  1.00  0.00     0.068 A 
HETATM   31  C   UNL     1      27.731  41.662  50.914  1.00  0.00     0.037 A 
HETATM   32  C   UNL     1      26.753  42.370  51.626  1.00  0.00     0.012 A 
BRANCH  30  33
HETATM   33  O   UNL     1      28.503  40.846  48.727  1.00  0.00    -0.356 OA
HETATM   34  C   UNL     1      28.766  39.485  49.046  1.00  0.00     0.210 C 
ENDBRANCH  30  33
ENDBRANCH   1  27
BRANCH   8  35
HETATM   35  C   UNL     1      26.395  46.720  53.477  1.00  0.00     0.409 C 
HETATM   36  F   UNL     1      25.371  47.542  53.799  1.00  0.00    -0.169 F 
HETATM   37  F   UNL     1      26.679  46.005  54.602  1.00  0.00    -0.169 F 
HETATM   38  F   UNL     1      27.487  47.475  53.236  1.00  0.00    -0.169 F 
ENDBRANCH   8  35
TORSDOF 9
ENDMDL
MODEL 9
REMARK VINA RESULT:      -7.5      8.305     10.175
REMARK  9 active torsions:
REMARK  status: ('A' for Active; 'I' for Inactive)
REMARK    1  A    between atoms: O_2  and  C_3 
REMARK    2  A    between atoms: C_6  and  C_7 
REMARK    3  A    between atoms: C_13  and  C_14 
REMARK       I    between atoms: C_14  and  N_15 
REMARK    4  A    between atoms: N_15  and  N_16 
REMARK    5  A    between atoms: N_16  and  C_17 
REMARK    6  A    between atoms: C_17  and  N_18 
REMARK    7  A    between atoms: N_18  and  C_19 
REMARK    8  A    between atoms: C_19  and  C_20 
REMARK    9  A    between atoms: C_27  and  C_28 
ROOT
HETATM    1  C   UNL     1      19.460  49.268  50.028  1.00  0.00     0.118 C 
HETATM    2  N   UNL     1      18.716  48.149  49.454  1.00  0.00    -0.365 N 
HETATM    3  C   UNL     1      17.930  48.331  48.362  1.00  0.00     0.138 A 
HETATM    4  N   UNL     1      17.525  49.589  47.995  1.00  0.00    -0.240 N 
HETATM    5  N   UNL     1      16.807  49.607  46.862  1.00  0.00    -0.181 NA
HETATM    6  C   UNL     1      16.709  48.312  46.543  1.00  0.00     0.160 A 
HETATM    7  C   UNL     1      17.409  47.457  47.426  1.00  0.00     0.098 A 
HETATM    8  C   UNL     1      17.948  50.805  48.667  1.00  0.00     0.221 C 
HETATM    9  C   UNL     1      18.507  50.477  50.068  1.00  0.00     0.066 C 
HETATM   10  H   UNL     1      19.098  47.217  49.638  1.00  0.00     0.161 HD
ENDROOT
BRANCH   7  11
HETATM   11  C   UNL     1      17.571  46.013  47.433  1.00  0.00     0.275 C 
HETATM   12  N   UNL     1      18.083  45.371  46.314  1.00  0.00    -0.263 N 
HETATM   13  H   UNL     1      18.278  44.392  46.513  1.00  0.00     0.190 HD
HETATM   14  O   UNL     1      17.258  45.325  48.406  1.00  0.00    -0.266 OA
BRANCH  12  15
HETATM   15  N   UNL     1      19.015  45.981  45.450  1.00  0.00    -0.274 N 
HETATM   16  H   UNL     1      18.894  46.974  45.275  1.00  0.00     0.189 HD
BRANCH  15  17
HETATM   17  C   UNL     1      19.894  45.235  44.704  1.00  0.00     0.186 C 
HETATM   18  S   UNL     1      20.903  45.826  43.507  1.00  0.00    -0.040 SA
BRANCH  17  19
HETATM   19  N   UNL     1      19.956  43.903  44.977  1.00  0.00    -0.360 N 
HETATM   20  H   UNL     1      19.230  43.355  44.529  1.00  0.00     0.162 HD
BRANCH  19  21
HETATM   21  C   UNL     1      21.007  43.165  45.651  1.00  0.00     0.187 C 
BRANCH  21  22
HETATM   22  C   UNL     1      21.455  43.914  46.845  1.00  0.00     0.070 A 
HETATM   23  O   UNL     1      20.504  44.185  47.787  1.00  0.00    -0.325 OA
HETATM   24  C   UNL     1      21.122  44.870  48.785  1.00  0.00     0.142 A 
HETATM   25  C   UNL     1      22.457  45.039  48.500  1.00  0.00     0.027 A 
HETATM   26  C   UNL     1      22.675  44.423  47.245  1.00  0.00     0.036 A 
ENDBRANCH  21  22
ENDBRANCH  19  21
ENDBRANCH  17  19
ENDBRANCH  15  17
ENDBRANCH  12  15
ENDBRANCH   7  11
BRANCH   1  27
HETATM   27  C   UNL     1      20.778  49.548  49.312  1.00  0.00    -0.035 A 
HETATM   28  C   UNL     1      21.480  48.563  48.599  1.00  0.00     0.012 A 
HETATM   29  C   UNL     1      22.677  48.863  47.942  1.00  0.00     0.037 A 
HETATM   30  C   UNL     1      23.209  50.150  47.980  1.00  0.00     0.068 A 
HETATM   31  C   UNL     1      22.551  51.130  48.717  1.00  0.00     0.037 A 
HETATM   32  C   UNL     1      21.354  50.830  49.382  1.00  0.00     0.012 A 
BRANCH  30  33
HETATM   33  O   UNL     1      24.371  50.314  47.281  1.00  0.00    -0.356 OA
HETATM   34  C   UNL     1      25.576  49.989  47.963  1.00  0.00     0.210 C 
ENDBRANCH  30  33
ENDBRANCH   1  27
BRANCH   8  35
HETATM   35  C   UNL     1      16.820  51.803  48.796  1.00  0.00     0.409 C 
HETATM   36  F   UNL     1      15.665  51.236  49.211  1.00  0.00    -0.169 F 
HETATM   37  F   UNL     1      17.146  52.736  49.735  1.00  0.00    -0.169 F 
HETATM   38  F   UNL     1      16.572  52.493  47.664  1.00  0.00    -0.169 F 
ENDBRANCH   8  35
TORSDOF 9
ENDMDL
MODEL 10
REMARK VINA RESULT:      -7.5     12.915     16.005
REMARK  9 active torsions:
REMARK  status: ('A' for Active; 'I' for Inactive)
REMARK    1  A    between atoms: O_2  and  C_3 
REMARK    2  A    between atoms: C_6  and  C_7 
REMARK    3  A    between atoms: C_13  and  C_14 
REMARK       I    between atoms: C_14  and  N_15 
REMARK    4  A    between atoms: N_15  and  N_16 
REMARK    5  A    between atoms: N_16  and  C_17 
REMARK    6  A    between atoms: C_17  and  N_18 
REMARK    7  A    between atoms: N_18  and  C_19 
REMARK    8  A    between atoms: C_19  and  C_20 
REMARK    9  A    between atoms: C_27  and  C_28 
ROOT
HETATM    1  C   UNL     1      30.630  49.911  38.466  1.00  0.00     0.118 C 
HETATM    2  N   UNL     1      31.845  49.917  39.277  1.00  0.00    -0.365 N 
HETATM    3  C   UNL     1      31.826  50.405  40.544  1.00  0.00     0.138 A 
HETATM    4  N   UNL     1      30.805  51.219  40.963  1.00  0.00    -0.240 N 
HETATM    5  N   UNL     1      30.899  51.567  42.256  1.00  0.00    -0.181 NA
HETATM    6  C   UNL     1      32.048  51.001  42.640  1.00  0.00     0.160 A 
HETATM    7  C   UNL     1      32.671  50.238  41.625  1.00  0.00     0.098 A 
HETATM    8  C   UNL     1      29.651  51.556  40.149  1.00  0.00     0.221 C 
HETATM    9  C   UNL     1      29.945  51.276  38.659  1.00  0.00     0.066 C 
HETATM   10  H   UNL     1      32.553  49.222  39.025  1.00  0.00     0.161 HD
ENDROOT
BRANCH   7  11
HETATM   11  C   UNL     1      33.900  49.463  41.627  1.00  0.00     0.275 C 
HETATM   12  N   UNL     1      35.090  50.059  42.021  1.00  0.00    -0.263 N 
HETATM   13  H   UNL     1      35.831  49.368  42.114  1.00  0.00     0.190 HD
HETATM   14  O   UNL     1      33.929  48.281  41.278  1.00  0.00    -0.266 OA
BRANCH  12  15
HETATM   15  N   UNL     1      35.141  51.092  42.980  1.00  0.00    -0.274 N 
HETATM   16  H   UNL     1      34.279  51.293  43.480  1.00  0.00     0.189 HD
BRANCH  15  17
HETATM   17  C   UNL     1      36.222  51.932  43.071  1.00  0.00     0.186 C 
HETATM   18  S   UNL     1      36.893  52.797  41.806  1.00  0.00    -0.040 SA
BRANCH  17  19
HETATM   19  N   UNL     1      36.784  52.081  44.302  1.00  0.00    -0.360 N 
HETATM   20  H   UNL     1      36.130  51.984  45.070  1.00  0.00     0.162 HD
BRANCH  19  21
HETATM   21  C   UNL     1      38.190  52.170  44.650  1.00  0.00     0.187 C 
BRANCH  21  22
HETATM   22  C   UNL     1      38.355  53.033  45.840  1.00  0.00     0.070 A 
HETATM   23  O   UNL     1      38.916  52.452  46.941  1.00  0.00    -0.325 OA
HETATM   24  C   UNL     1      38.974  53.409  47.905  1.00  0.00     0.142 A 
HETATM   25  C   UNL     1      38.463  54.597  47.437  1.00  0.00     0.027 A 
HETATM   26  C   UNL     1      38.060  54.356  46.103  1.00  0.00     0.036 A 
ENDBRANCH  21  22
ENDBRANCH  19  21
ENDBRANCH  17  19
ENDBRANCH  15  17
ENDBRANCH  12  15
ENDBRANCH   7  11
BRANCH   1  27
HETATM   27  C   UNL     1      29.719  48.720  38.751  1.00  0.00    -0.035 A 
HETATM   28  C   UNL     1      28.319  48.814  38.740  1.00  0.00     0.012 A 
HETATM   29  C   UNL     1      27.518  47.697  38.991  1.00  0.00     0.037 A 
HETATM   30  C   UNL     1      28.089  46.456  39.264  1.00  0.00     0.068 A 
HETATM   31  C   UNL     1      29.475  46.350  39.323  1.00  0.00     0.037 A 
HETATM   32  C   UNL     1      30.281  47.472  39.078  1.00  0.00     0.012 A 
BRANCH  30  33
HETATM   33  O   UNL     1      27.196  45.443  39.471  1.00  0.00    -0.356 OA
HETATM   34  C   UNL     1      26.706  45.288  40.798  1.00  0.00     0.210 C 
ENDBRANCH  30  33
ENDBRANCH   1  27
BRANCH   8  35
HETATM   35  C   UNL     1      29.241  53.002  40.317  1.00  0.00     0.409 C 
HETATM   36  F   UNL     1      30.285  53.811  40.606  1.00  0.00    -0.169 F 
HETATM   37  F   UNL     1      28.713  53.462  39.148  1.00  0.00    -0.169 F 
HETATM   38  F   UNL     1      28.286  53.190  41.252  1.00  0.00    -0.169 F 
ENDBRANCH   8  35
TORSDOF 9
ENDMDL
