MODEL 1
REMARK VINA RESULT:     -10.8      0.000      0.000
REMARK  4 active torsions:
REMARK  status: ('A' for Active; 'I' for Inactive)
REMARK    1  A    between atoms: C_2  and  C_5 
REMARK    2  A    between atoms: C_8  and  C_11 
REMARK    3  A    between atoms: C_17  and  C_18 
REMARK    4  A    between atoms: C_24  and  C_30 
ROOT
HETATM    1  C   UNL     1      27.025  44.086  51.109  1.00  0.00     0.091 A 
HETATM    2  N   UNL     1      28.135  43.442  51.456  1.00  0.00    -0.345 N 
HETATM    3  H   UNL     1      28.588  42.788  50.820  1.00  0.00     0.167 HD
HETATM    4  C   UNL     1      28.691  43.639  52.695  1.00  0.00     0.049 A 
HETATM    5  C   UNL     1      29.869  42.979  53.042  1.00  0.00     0.031 A 
HETATM    6  C   UNL     1      30.475  43.209  54.290  1.00  0.00     0.014 A 
HETATM    7  C   UNL     1      29.914  44.103  55.214  1.00  0.00    -0.022 A 
HETATM    8  C   UNL     1      28.723  44.752  54.880  1.00  0.00     0.031 A 
HETATM    9  C   UNL     1      28.133  44.508  53.635  1.00  0.00     0.059 A 
HETATM   10  C   UNL     1      26.894  45.172  53.252  1.00  0.00     0.259 A 
HETATM   11  O   UNL     1      26.242  45.946  53.918  1.00  0.00    -0.267 OA
HETATM   12  N   UNL     1      26.408  44.901  51.944  1.00  0.00    -0.312 N 
HETATM   13  H   UNL     1      25.543  45.382  51.733  1.00  0.00     0.170 HD
ENDROOT
BRANCH   1  14
HETATM   14  C   UNL     1      26.479  43.878  49.728  1.00  0.00     0.089 C 
HETATM   15  C   UNL     1      25.760  42.532  49.554  1.00  0.00     0.057 C 
HETATM   16  C   UNL     1      24.859  42.753  48.330  1.00  0.00     0.242 C 
HETATM   17  N   UNL     1      24.477  44.205  48.407  1.00  0.00    -0.074 N 
HETATM   18  H   UNL     1      24.493  44.623  47.460  1.00  0.00     0.277 HD
HETATM   19  H   UNL     1      23.490  44.302  48.705  1.00  0.00     0.277 HD
HETATM   20  C   UNL     1      25.413  44.911  49.344  1.00  0.00     0.245 C 
BRANCH  15  21
HETATM   21  C   UNL     1      26.700  41.361  49.399  1.00  0.00    -0.051 A 
HETATM   22  C   UNL     1      26.798  40.350  50.370  1.00  0.00     0.008 A 
HETATM   23  C   UNL     1      27.712  39.302  50.224  1.00  0.00     0.017 A 
HETATM   24  C   UNL     1      28.548  39.233  49.104  1.00  0.00     0.047 A 
HETATM   25  C   UNL     1      28.435  40.227  48.122  1.00  0.00     0.017 A 
HETATM   26  C   UNL     1      27.524  41.279  48.267  1.00  0.00     0.008 A 
BRANCH  24  27
HETATM   27  C   UNL     1      29.557  38.115  48.943  1.00  0.00     0.417 C 
HETATM   28  F   UNL     1      30.843  38.539  49.056  1.00  0.00    -0.166 F 
HETATM   29  F   UNL     1      29.459  37.503  47.734  1.00  0.00    -0.166 F 
HETATM   30  F   UNL     1      29.389  37.147  49.882  1.00  0.00    -0.166 F 
ENDBRANCH  24  27
ENDBRANCH  15  21
ENDBRANCH   1  14
BRANCH   7  31
HETATM   31  C   UNL     1      30.556  44.381  56.487  1.00  0.00     0.010 A 
HETATM   32  C   UNL     1      31.578  43.683  57.174  1.00  0.00     0.152 A 
HETATM   33  N   UNL     1      31.912  44.263  58.326  1.00  0.00    -0.187 NA
HETATM   34  N   UNL     1      31.113  45.337  58.390  1.00  0.00    -0.289 N 
HETATM   35  H   UNL     1      31.190  45.949  59.199  1.00  0.00     0.188 HD
HETATM   36  C   UNL     1      30.281  45.452  57.311  1.00  0.00     0.123 A 
ENDBRANCH   7  31
TORSDOF 4
ENDMDL
MODEL 2
REMARK VINA RESULT:     -10.5      4.572      8.228
REMARK  4 active torsions:
REMARK  status: ('A' for Active; 'I' for Inactive)
REMARK    1  A    between atoms: C_2  and  C_5 
REMARK    2  A    between atoms: C_8  and  C_11 
REMARK    3  A    between atoms: C_17  and  C_18 
REMARK    4  A    between atoms: C_24  and  C_30 
ROOT
HETATM    1  C   UNL     1      26.784  43.694  50.905  1.00  0.00     0.091 A 
HETATM    2  N   UNL     1      27.229  44.889  50.529  1.00  0.00    -0.345 N 
HETATM    3  H   UNL     1      28.226  45.088  50.470  1.00  0.00     0.167 HD
HETATM    4  C   UNL     1      26.344  45.892  50.220  1.00  0.00     0.049 A 
HETATM    5  C   UNL     1      26.819  47.135  49.802  1.00  0.00     0.031 A 
HETATM    6  C   UNL     1      25.923  48.154  49.436  1.00  0.00     0.014 A 
HETATM    7  C   UNL     1      24.535  47.952  49.482  1.00  0.00    -0.022 A 
HETATM    8  C   UNL     1      24.054  46.715  49.920  1.00  0.00     0.031 A 
HETATM    9  C   UNL     1      24.961  45.714  50.283  1.00  0.00     0.059 A 
HETATM   10  C   UNL     1      24.493  44.411  50.738  1.00  0.00     0.259 A 
HETATM   11  O   UNL     1      23.344  44.054  50.878  1.00  0.00    -0.267 OA
HETATM   12  N   UNL     1      25.493  43.443  51.027  1.00  0.00    -0.312 N 
HETATM   13  H   UNL     1      25.114  42.561  51.345  1.00  0.00     0.170 HD
ENDROOT
BRANCH   1  14
HETATM   14  C   UNL     1      27.784  42.614  51.187  1.00  0.00     0.089 C 
HETATM   15  C   UNL     1      27.688  42.051  52.612  1.00  0.00     0.057 C 
HETATM   16  C   UNL     1      28.369  40.678  52.510  1.00  0.00     0.242 C 
HETATM   17  N   UNL     1      28.056  40.210  51.117  1.00  0.00    -0.074 N 
HETATM   18  H   UNL     1      28.888  39.753  50.705  1.00  0.00     0.277 HD
HETATM   19  H   UNL     1      27.345  39.458  51.141  1.00  0.00     0.277 HD
HETATM   20  C   UNL     1      27.600  41.381  50.295  1.00  0.00     0.245 C 
BRANCH  15  21
HETATM   21  C   UNL     1      28.305  42.947  53.659  1.00  0.00    -0.051 A 
HETATM   22  C   UNL     1      27.614  44.043  54.203  1.00  0.00     0.008 A 
HETATM   23  C   UNL     1      28.228  44.885  55.136  1.00  0.00     0.017 A 
HETATM   24  C   UNL     1      29.543  44.652  55.553  1.00  0.00     0.047 A 
HETATM   25  C   UNL     1      30.226  43.546  55.030  1.00  0.00     0.017 A 
HETATM   26  C   UNL     1      29.617  42.704  54.094  1.00  0.00     0.008 A 
BRANCH  24  27
HETATM   27  C   UNL     1      30.227  45.569  56.547  1.00  0.00     0.417 C 
HETATM   28  F   UNL     1      29.353  46.215  57.362  1.00  0.00    -0.166 F 
HETATM   29  F   UNL     1      30.968  46.530  55.937  1.00  0.00    -0.166 F 
HETATM   30  F   UNL     1      31.074  44.885  57.361  1.00  0.00    -0.166 F 
ENDBRANCH  24  27
ENDBRANCH  15  21
ENDBRANCH   1  14
BRANCH   7  31
HETATM   31  C   UNL     1      23.603  48.984  49.064  1.00  0.00     0.010 A 
HETATM   32  C   UNL     1      22.192  49.037  49.145  1.00  0.00     0.152 A 
HETATM   33  N   UNL     1      21.690  50.172  48.658  1.00  0.00    -0.187 NA
HETATM   34  N   UNL     1      22.772  50.858  48.262  1.00  0.00    -0.289 N 
HETATM   35  H   UNL     1      22.636  51.778  47.851  1.00  0.00     0.188 HD
HETATM   36  C   UNL     1      23.943  50.188  48.484  1.00  0.00     0.123 A 
ENDBRANCH   7  31
TORSDOF 4
ENDMDL
MODEL 3
REMARK VINA RESULT:      -9.8      4.576      8.675
REMARK  4 active torsions:
REMARK  status: ('A' for Active; 'I' for Inactive)
REMARK    1  A    between atoms: C_2  and  C_5 
REMARK    2  A    between atoms: C_8  and  C_11 
REMARK    3  A    between atoms: C_17  and  C_18 
REMARK    4  A    between atoms: C_24  and  C_30 
ROOT
HETATM    1  C   UNL     1      27.048  42.945  50.508  1.00  0.00     0.091 A 
HETATM    2  N   UNL     1      25.825  42.441  50.377  1.00  0.00    -0.345 N 
HETATM    3  H   UNL     1      25.624  41.471  50.618  1.00  0.00     0.167 HD
HETATM    4  C   UNL     1      24.802  43.220  49.898  1.00  0.00     0.049 A 
HETATM    5  C   UNL     1      23.516  42.690  49.787  1.00  0.00     0.031 A 
HETATM    6  C   UNL     1      22.451  43.492  49.344  1.00  0.00     0.014 A 
HETATM    7  C   UNL     1      22.649  44.839  49.003  1.00  0.00    -0.022 A 
HETATM    8  C   UNL     1      23.938  45.369  49.093  1.00  0.00     0.031 A 
HETATM    9  C   UNL     1      24.987  44.554  49.532  1.00  0.00     0.059 A 
HETATM   10  C   UNL     1      26.343  45.077  49.644  1.00  0.00     0.259 A 
HETATM   11  O   UNL     1      26.722  46.194  49.367  1.00  0.00    -0.267 OA
HETATM   12  N   UNL     1      27.325  44.187  50.156  1.00  0.00    -0.312 N 
HETATM   13  H   UNL     1      28.249  44.597  50.206  1.00  0.00     0.170 HD
ENDROOT
BRANCH   1  14
HETATM   14  C   UNL     1      28.124  42.073  51.080  1.00  0.00     0.089 C 
HETATM   15  C   UNL     1      27.868  41.665  52.538  1.00  0.00     0.057 C 
HETATM   16  C   UNL     1      28.736  40.412  52.727  1.00  0.00     0.242 C 
HETATM   17  N   UNL     1      28.728  39.748  51.379  1.00  0.00    -0.074 N 
HETATM   18  H   UNL     1      29.672  39.382  51.162  1.00  0.00     0.277 HD
HETATM   19  H   UNL     1      28.132  38.902  51.399  1.00  0.00     0.277 HD
HETATM   20  C   UNL     1      28.261  40.733  50.347  1.00  0.00     0.245 C 
BRANCH  15  21
HETATM   21  C   UNL     1      28.173  42.758  53.534  1.00  0.00    -0.051 A 
HETATM   22  C   UNL     1      27.190  43.658  53.978  1.00  0.00     0.008 A 
HETATM   23  C   UNL     1      27.512  44.691  54.863  1.00  0.00     0.017 A 
HETATM   24  C   UNL     1      28.821  44.849  55.332  1.00  0.00     0.047 A 
HETATM   25  C   UNL     1      29.799  43.938  54.910  1.00  0.00     0.017 A 
HETATM   26  C   UNL     1      29.481  42.906  54.021  1.00  0.00     0.008 A 
BRANCH  24  27
HETATM   27  C   UNL     1      29.188  45.977  56.276  1.00  0.00     0.417 C 
HETATM   28  F   UNL     1      28.895  45.700  57.574  1.00  0.00    -0.166 F 
HETATM   29  F   UNL     1      28.542  47.132  55.973  1.00  0.00    -0.166 F 
HETATM   30  F   UNL     1      30.518  46.254  56.235  1.00  0.00    -0.166 F 
ENDBRANCH  24  27
ENDBRANCH  15  21
ENDBRANCH   1  14
BRANCH   7  31
HETATM   31  C   UNL     1      21.545  45.686  48.586  1.00  0.00     0.010 A 
HETATM   32  C   UNL     1      21.517  47.059  48.246  1.00  0.00     0.152 A 
HETATM   33  N   UNL     1      20.300  47.480  47.901  1.00  0.00    -0.187 NA
HETATM   34  N   UNL     1      19.537  46.384  48.015  1.00  0.00    -0.289 N 
HETATM   35  H   UNL     1      18.547  46.460  47.796  1.00  0.00     0.188 HD
HETATM   36  C   UNL     1      20.237  45.282  48.423  1.00  0.00     0.123 A 
ENDBRANCH   7  31
TORSDOF 4
ENDMDL
MODEL 4
REMARK VINA RESULT:      -9.8      4.636      8.566
REMARK  4 active torsions:
REMARK  status: ('A' for Active; 'I' for Inactive)
REMARK    1  A    between atoms: C_2  and  C_5 
REMARK    2  A    between atoms: C_8  and  C_11 
REMARK    3  A    between atoms: C_17  and  C_18 
REMARK    4  A    between atoms: C_24  and  C_30 
ROOT
HETATM    1  C   UNL     1      26.172  44.631  50.036  1.00  0.00     0.091 A 
HETATM    2  N   UNL     1      25.006  44.551  49.402  1.00  0.00    -0.345 N 
HETATM    3  H   UNL     1      24.674  43.669  49.015  1.00  0.00     0.167 HD
HETATM    4  C   UNL     1      24.225  45.669  49.245  1.00  0.00     0.049 A 
HETATM    5  C   UNL     1      22.992  45.571  48.602  1.00  0.00     0.031 A 
HETATM    6  C   UNL     1      22.161  46.699  48.477  1.00  0.00     0.014 A 
HETATM    7  C   UNL     1      22.547  47.945  48.994  1.00  0.00    -0.022 A 
HETATM    8  C   UNL     1      23.791  48.053  49.622  1.00  0.00     0.031 A 
HETATM    9  C   UNL     1      24.605  46.921  49.733  1.00  0.00     0.059 A 
HETATM   10  C   UNL     1      25.905  46.997  50.387  1.00  0.00     0.259 A 
HETATM   11  O   UNL     1      26.428  47.979  50.864  1.00  0.00    -0.267 OA
HETATM   12  N   UNL     1      26.630  45.779  50.501  1.00  0.00    -0.312 N 
HETATM   13  H   UNL     1      27.526  45.890  50.956  1.00  0.00     0.170 HD
ENDROOT
BRANCH   1  14
HETATM   14  C   UNL     1      26.970  43.377  50.227  1.00  0.00     0.089 C 
HETATM   15  C   UNL     1      26.690  42.673  51.562  1.00  0.00     0.057 C 
HETATM   16  C   UNL     1      27.154  41.229  51.320  1.00  0.00     0.242 C 
HETATM   17  N   UNL     1      26.868  40.986  49.865  1.00  0.00    -0.074 N 
HETATM   18  H   UNL     1      27.645  40.450  49.439  1.00  0.00     0.277 HD
HETATM   19  H   UNL     1      26.049  40.362  49.759  1.00  0.00     0.277 HD
HETATM   20  C   UNL     1      26.657  42.303  49.177  1.00  0.00     0.245 C 
BRANCH  15  21
HETATM   21  C   UNL     1      27.367  43.327  52.743  1.00  0.00    -0.051 A 
HETATM   22  C   UNL     1      26.654  44.096  53.678  1.00  0.00     0.008 A 
HETATM   23  C   UNL     1      27.314  44.731  54.735  1.00  0.00     0.017 A 
HETATM   24  C   UNL     1      28.699  44.610  54.889  1.00  0.00     0.047 A 
HETATM   25  C   UNL     1      29.409  43.823  53.971  1.00  0.00     0.017 A 
HETATM   26  C   UNL     1      28.753  43.190  52.911  1.00  0.00     0.008 A 
BRANCH  24  27
HETATM   27  C   UNL     1      29.430  45.309  56.018  1.00  0.00     0.417 C 
HETATM   28  F   UNL     1      30.370  44.525  56.608  1.00  0.00    -0.166 F 
HETATM   29  F   UNL     1      28.588  45.710  57.005  1.00  0.00    -0.166 F 
HETATM   30  F   UNL     1      30.078  46.422  55.584  1.00  0.00    -0.166 F 
ENDBRANCH  24  27
ENDBRANCH  15  21
ENDBRANCH   1  14
BRANCH   7  31
HETATM   31  C   UNL     1      21.676  49.104  48.909  1.00  0.00     0.010 A 
HETATM   32  C   UNL     1      21.916  50.399  48.391  1.00  0.00     0.152 A 
HETATM   33  N   UNL     1      20.851  51.195  48.484  1.00  0.00    -0.187 NA
HETATM   34  N   UNL     1      19.920  50.422  49.060  1.00  0.00    -0.289 N 
HETATM   35  H   UNL     1      19.001  50.822  49.235  1.00  0.00     0.188 HD
HETATM   36  C   UNL     1      20.366  49.159  49.335  1.00  0.00     0.123 A 
ENDBRANCH   7  31
TORSDOF 4
ENDMDL
MODEL 5
REMARK VINA RESULT:      -9.5      5.943      7.837
REMARK  4 active torsions:
REMARK  status: ('A' for Active; 'I' for Inactive)
REMARK    1  A    between atoms: C_2  and  C_5 
REMARK    2  A    between atoms: C_8  and  C_11 
REMARK    3  A    between atoms: C_17  and  C_18 
REMARK    4  A    between atoms: C_24  and  C_30 
ROOT
HETATM    1  C   UNL     1      24.118  44.656  50.085  1.00  0.00     0.091 A 
HETATM    2  N   UNL     1      24.010  44.605  51.408  1.00  0.00    -0.345 N 
HETATM    3  H   UNL     1      23.103  44.509  51.862  1.00  0.00     0.167 HD
HETATM    4  C   UNL     1      25.129  44.694  52.199  1.00  0.00     0.049 A 
HETATM    5  C   UNL     1      25.009  44.614  53.586  1.00  0.00     0.031 A 
HETATM    6  C   UNL     1      26.152  44.656  54.404  1.00  0.00     0.014 A 
HETATM    7  C   UNL     1      27.436  44.777  53.851  1.00  0.00    -0.022 A 
HETATM    8  C   UNL     1      27.560  44.878  52.462  1.00  0.00     0.031 A 
HETATM    9  C   UNL     1      26.411  44.839  51.665  1.00  0.00     0.059 A 
HETATM   10  C   UNL     1      26.504  44.935  50.215  1.00  0.00     0.259 A 
HETATM   11  O   UNL     1      27.510  45.077  49.554  1.00  0.00    -0.267 OA
HETATM   12  N   UNL     1      25.285  44.825  49.492  1.00  0.00    -0.312 N 
HETATM   13  H   UNL     1      25.407  44.906  48.490  1.00  0.00     0.170 HD
ENDROOT
BRANCH   1  14
HETATM   14  C   UNL     1      22.876  44.507  49.259  1.00  0.00     0.089 C 
HETATM   15  C   UNL     1      22.798  45.500  48.090  1.00  0.00     0.057 C 
HETATM   16  C   UNL     1      21.802  44.847  47.121  1.00  0.00     0.242 C 
HETATM   17  N   UNL     1      22.021  43.371  47.300  1.00  0.00    -0.074 N 
HETATM   18  H   UNL     1      21.110  42.878  47.292  1.00  0.00     0.277 HD
HETATM   19  H   UNL     1      22.522  42.980  46.484  1.00  0.00     0.277 HD
HETATM   20  C   UNL     1      22.770  43.136  48.580  1.00  0.00     0.245 C 
BRANCH  15  21
HETATM   21  C   UNL     1      22.398  46.894  48.508  1.00  0.00    -0.051 A 
HETATM   22  C   UNL     1      23.348  47.866  48.866  1.00  0.00     0.008 A 
HETATM   23  C   UNL     1      22.947  49.135  49.295  1.00  0.00     0.017 A 
HETATM   24  C   UNL     1      21.590  49.468  49.373  1.00  0.00     0.047 A 
HETATM   25  C   UNL     1      20.641  48.509  48.993  1.00  0.00     0.017 A 
HETATM   26  C   UNL     1      21.039  47.237  48.567  1.00  0.00     0.008 A 
BRANCH  24  27
HETATM   27  C   UNL     1      21.141  50.833  49.856  1.00  0.00     0.417 C 
HETATM   28  F   UNL     1      21.058  51.750  48.857  1.00  0.00    -0.166 F 
HETATM   29  F   UNL     1      21.983  51.352  50.786  1.00  0.00    -0.166 F 
HETATM   30  F   UNL     1      19.911  50.782  50.432  1.00  0.00    -0.166 F 
ENDBRANCH  24  27
ENDBRANCH  15  21
ENDBRANCH   1  14
BRANCH   7  31
HETATM   31  C   UNL     1      28.624  44.776  54.685  1.00  0.00     0.010 A 
HETATM   32  C   UNL     1      29.101  45.735  55.610  1.00  0.00     0.152 A 
HETATM   33  N   UNL     1      30.239  45.364  56.195  1.00  0.00    -0.187 NA
HETATM   34  N   UNL     1      30.504  44.166  55.656  1.00  0.00    -0.289 N 
HETATM   35  H   UNL     1      31.341  43.675  55.958  1.00  0.00     0.188 HD
HETATM   36  C   UNL     1      29.565  43.769  54.744  1.00  0.00     0.123 A 
ENDBRANCH   7  31
TORSDOF 4
ENDMDL
MODEL 6
REMARK VINA RESULT:      -9.4      4.767      6.101
REMARK  4 active torsions:
REMARK  status: ('A' for Active; 'I' for Inactive)
REMARK    1  A    between atoms: C_2  and  C_5 
REMARK    2  A    between atoms: C_8  and  C_11 
REMARK    3  A    between atoms: C_17  and  C_18 
REMARK    4  A    between atoms: C_24  and  C_30 
ROOT
HETATM    1  C   UNL     1      25.829  43.752  52.106  1.00  0.00     0.091 A 
HETATM    2  N   UNL     1      26.980  43.154  52.393  1.00  0.00    -0.345 N 
HETATM    3  H   UNL     1      27.333  42.384  51.826  1.00  0.00     0.167 HD
HETATM    4  C   UNL     1      27.719  43.557  53.478  1.00  0.00     0.049 A 
HETATM    5  C   UNL     1      28.939  42.941  53.757  1.00  0.00     0.031 A 
HETATM    6  C   UNL     1      29.727  43.378  54.836  1.00  0.00     0.014 A 
HETATM    7  C   UNL     1      29.313  44.438  55.656  1.00  0.00    -0.022 A 
HETATM    8  C   UNL     1      28.082  45.046  55.392  1.00  0.00     0.031 A 
HETATM    9  C   UNL     1      27.309  44.595  54.317  1.00  0.00     0.059 A 
HETATM   10  C   UNL     1      26.024  45.210  54.010  1.00  0.00     0.259 A 
HETATM   11  O   UNL     1      25.480  46.108  54.614  1.00  0.00    -0.267 OA
HETATM   12  N   UNL     1      25.344  44.720  52.862  1.00  0.00    -0.312 N 
HETATM   13  H   UNL     1      24.456  45.176  52.700  1.00  0.00     0.170 HD
ENDROOT
BRANCH   1  14
HETATM   14  C   UNL     1      25.078  43.311  50.886  1.00  0.00     0.089 C 
HETATM   15  C   UNL     1      25.518  44.036  49.605  1.00  0.00     0.057 C 
HETATM   16  C   UNL     1      25.055  43.101  48.478  1.00  0.00     0.242 C 
HETATM   17  N   UNL     1      25.181  41.723  49.063  1.00  0.00    -0.074 N 
HETATM   18  H   UNL     1      24.370  41.145  48.777  1.00  0.00     0.277 HD
HETATM   19  H   UNL     1      25.993  41.231  48.652  1.00  0.00     0.277 HD
HETATM   20  C   UNL     1      25.291  41.829  50.556  1.00  0.00     0.245 C 
BRANCH  15  21
HETATM   21  C   UNL     1      24.967  45.436  49.484  1.00  0.00    -0.051 A 
HETATM   22  C   UNL     1      23.633  45.682  49.117  1.00  0.00     0.008 A 
HETATM   23  C   UNL     1      23.162  46.990  48.965  1.00  0.00     0.017 A 
HETATM   24  C   UNL     1      24.007  48.084  49.180  1.00  0.00     0.047 A 
HETATM   25  C   UNL     1      25.331  47.842  49.570  1.00  0.00     0.017 A 
HETATM   26  C   UNL     1      25.807  46.535  49.719  1.00  0.00     0.008 A 
BRANCH  24  27
HETATM   27  C   UNL     1      23.515  49.506  48.999  1.00  0.00     0.417 C 
HETATM   28  F   UNL     1      24.515  50.425  49.049  1.00  0.00    -0.166 F 
HETATM   29  F   UNL     1      22.615  49.865  49.951  1.00  0.00    -0.166 F 
HETATM   30  F   UNL     1      22.899  49.676  47.800  1.00  0.00    -0.166 F 
ENDBRANCH  24  27
ENDBRANCH  15  21
ENDBRANCH   1  14
BRANCH   7  31
HETATM   31  C   UNL     1      30.141  44.925  56.745  1.00  0.00     0.010 A 
HETATM   32  C   UNL     1      30.117  46.157  57.440  1.00  0.00     0.152 A 
HETATM   33  N   UNL     1      31.043  46.226  58.396  1.00  0.00    -0.187 NA
HETATM   34  N   UNL     1      31.668  45.043  58.326  1.00  0.00    -0.289 N 
HETATM   35  H   UNL     1      32.429  44.860  58.975  1.00  0.00     0.188 HD
HETATM   36  C   UNL     1      31.164  44.227  57.351  1.00  0.00     0.123 A 
ENDBRANCH   7  31
TORSDOF 4
ENDMDL
MODEL 7
REMARK VINA RESULT:      -9.2      4.177      8.295
REMARK  4 active torsions:
REMARK  status: ('A' for Active; 'I' for Inactive)
REMARK    1  A    between atoms: C_2  and  C_5 
REMARK    2  A    between atoms: C_8  and  C_11 
REMARK    3  A    between atoms: C_17  and  C_18 
REMARK    4  A    between atoms: C_24  and  C_30 
ROOT
HETATM    1  C   UNL     1      26.712  42.906  52.537  1.00  0.00     0.091 A 
HETATM    2  N   UNL     1      25.981  42.627  51.462  1.00  0.00    -0.345 N 
HETATM    3  H   UNL     1      25.180  43.202  51.203  1.00  0.00     0.167 HD
HETATM    4  C   UNL     1      26.287  41.543  50.679  1.00  0.00     0.049 A 
HETATM    5  C   UNL     1      25.531  41.273  49.538  1.00  0.00     0.031 A 
HETATM    6  C   UNL     1      25.864  40.194  48.701  1.00  0.00     0.014 A 
HETATM    7  C   UNL     1      26.959  39.365  48.987  1.00  0.00    -0.022 A 
HETATM    8  C   UNL     1      27.707  39.619  50.139  1.00  0.00     0.031 A 
HETATM    9  C   UNL     1      27.358  40.694  50.962  1.00  0.00     0.059 A 
HETATM   10  C   UNL     1      28.121  40.991  52.167  1.00  0.00     0.259 A 
HETATM   11  O   UNL     1      29.072  40.378  52.602  1.00  0.00    -0.267 OA
HETATM   12  N   UNL     1      27.723  42.140  52.903  1.00  0.00    -0.312 N 
HETATM   13  H   UNL     1      28.281  42.296  53.733  1.00  0.00     0.170 HD
ENDROOT
BRANCH   1  14
HETATM   14  C   UNL     1      26.371  44.127  53.338  1.00  0.00     0.089 C 
HETATM   15  C   UNL     1      27.511  45.153  53.398  1.00  0.00     0.057 C 
HETATM   16  C   UNL     1      26.803  46.466  53.762  1.00  0.00     0.242 C 
HETATM   17  N   UNL     1      25.454  46.355  53.108  1.00  0.00    -0.074 N 
HETATM   18  H   UNL     1      24.725  46.729  53.741  1.00  0.00     0.277 HD
HETATM   19  H   UNL     1      25.404  46.973  52.279  1.00  0.00     0.277 HD
HETATM   20  C   UNL     1      25.199  44.920  52.749  1.00  0.00     0.245 C 
BRANCH  15  21
HETATM   21  C   UNL     1      28.609  44.780  54.365  1.00  0.00    -0.051 A 
HETATM   22  C   UNL     1      29.510  43.734  54.103  1.00  0.00     0.008 A 
HETATM   23  C   UNL     1      30.487  43.379  55.038  1.00  0.00     0.017 A 
HETATM   24  C   UNL     1      30.593  44.060  56.256  1.00  0.00     0.047 A 
HETATM   25  C   UNL     1      29.711  45.119  56.510  1.00  0.00     0.017 A 
HETATM   26  C   UNL     1      28.730  45.475  55.578  1.00  0.00     0.008 A 
BRANCH  24  27
HETATM   27  C   UNL     1      31.633  43.671  57.287  1.00  0.00     0.417 C 
HETATM   28  F   UNL     1      31.629  44.481  58.378  1.00  0.00    -0.166 F 
HETATM   29  F   UNL     1      32.894  43.708  56.785  1.00  0.00    -0.166 F 
HETATM   30  F   UNL     1      31.436  42.408  57.748  1.00  0.00    -0.166 F 
ENDBRANCH  24  27
ENDBRANCH  15  21
ENDBRANCH   1  14
BRANCH   7  31
HETATM   31  C   UNL     1      27.336  38.275  48.104  1.00  0.00     0.010 A 
HETATM   32  C   UNL     1      28.180  38.262  46.968  1.00  0.00     0.152 A 
HETATM   33  N   UNL     1      28.289  37.051  46.422  1.00  0.00    -0.187 NA
HETATM   34  N   UNL     1      27.519  36.277  47.200  1.00  0.00    -0.289 N 
HETATM   35  H   UNL     1      27.447  35.287  46.975  1.00  0.00     0.188 HD
HETATM   36  C   UNL     1      26.926  36.964  48.223  1.00  0.00     0.123 A 
ENDBRANCH   7  31
TORSDOF 4
ENDMDL
MODEL 8
REMARK VINA RESULT:      -9.1      5.534      7.131
REMARK  4 active torsions:
REMARK  status: ('A' for Active; 'I' for Inactive)
REMARK    1  A    between atoms: C_2  and  C_5 
REMARK    2  A    between atoms: C_8  and  C_11 
REMARK    3  A    between atoms: C_17  and  C_18 
REMARK    4  A    between atoms: C_24  and  C_30 
ROOT
HETATM    1  C   UNL     1      24.443  44.632  51.275  1.00  0.00     0.091 A 
HETATM    2  N   UNL     1      25.224  43.635  51.677  1.00  0.00    -0.345 N 
HETATM    3  H   UNL     1      25.101  42.689  51.319  1.00  0.00     0.167 HD
HETATM    4  C   UNL     1      26.216  43.860  52.599  1.00  0.00     0.049 A 
HETATM    5  C   UNL     1      27.048  42.814  52.996  1.00  0.00     0.031 A 
HETATM    6  C   UNL     1      28.098  43.042  53.903  1.00  0.00     0.014 A 
HETATM    7  C   UNL     1      28.336  44.320  54.430  1.00  0.00    -0.022 A 
HETATM    8  C   UNL     1      27.492  45.368  54.051  1.00  0.00     0.031 A 
HETATM    9  C   UNL     1      26.451  45.121  53.151  1.00  0.00     0.059 A 
HETATM   10  C   UNL     1      25.557  46.192  52.730  1.00  0.00     0.259 A 
HETATM   11  O   UNL     1      25.576  47.347  53.095  1.00  0.00    -0.267 OA
HETATM   12  N   UNL     1      24.568  45.851  51.767  1.00  0.00    -0.312 N 
HETATM   13  H   UNL     1      23.971  46.628  51.516  1.00  0.00     0.170 HD
ENDROOT
BRANCH   1  14
HETATM   14  C   UNL     1      23.404  44.352  50.232  1.00  0.00     0.089 C 
HETATM   15  C   UNL     1      23.654  45.090  48.909  1.00  0.00     0.057 C 
HETATM   16  C   UNL     1      22.851  44.281  47.880  1.00  0.00     0.242 C 
HETATM   17  N   UNL     1      22.921  42.867  48.382  1.00  0.00    -0.074 N 
HETATM   18  H   UNL     1      22.003  42.405  48.260  1.00  0.00     0.277 HD
HETATM   19  H   UNL     1      23.561  42.307  47.792  1.00  0.00     0.277 HD
HETATM   20  C   UNL     1      23.354  42.875  49.819  1.00  0.00     0.245 C 
BRANCH  15  21
HETATM   21  C   UNL     1      23.270  46.550  48.951  1.00  0.00    -0.051 A 
HETATM   22  C   UNL     1      21.934  46.972  48.858  1.00  0.00     0.008 A 
HETATM   23  C   UNL     1      21.611  48.333  48.851  1.00  0.00     0.017 A 
HETATM   24  C   UNL     1      22.612  49.306  48.941  1.00  0.00     0.047 A 
HETATM   25  C   UNL     1      23.945  48.887  49.059  1.00  0.00     0.017 A 
HETATM   26  C   UNL     1      24.271  47.527  49.062  1.00  0.00     0.008 A 
BRANCH  24  27
HETATM   27  C   UNL     1      22.278  50.784  48.914  1.00  0.00     0.417 C 
HETATM   28  F   UNL     1      21.778  51.194  47.719  1.00  0.00    -0.166 F 
HETATM   29  F   UNL     1      23.363  51.561  49.165  1.00  0.00    -0.166 F 
HETATM   30  F   UNL     1      21.346  51.106  49.849  1.00  0.00    -0.166 F 
ENDBRANCH  24  27
ENDBRANCH  15  21
ENDBRANCH   1  14
BRANCH   7  31
HETATM   31  C   UNL     1      29.444  44.575  55.333  1.00  0.00     0.010 A 
HETATM   32  C   UNL     1      30.607  43.813  55.600  1.00  0.00     0.152 A 
HETATM   33  N   UNL     1      31.406  44.391  56.497  1.00  0.00    -0.187 NA
HETATM   34  N   UNL     1      30.768  45.526  56.813  1.00  0.00    -0.289 N 
HETATM   35  H   UNL     1      31.197  46.148  57.493  1.00  0.00     0.188 HD
HETATM   36  C   UNL     1      29.586  45.682  56.141  1.00  0.00     0.123 A 
ENDBRANCH   7  31
TORSDOF 4
ENDMDL
MODEL 9
REMARK VINA RESULT:      -9.1      6.783      8.734
REMARK  4 active torsions:
REMARK  status: ('A' for Active; 'I' for Inactive)
REMARK    1  A    between atoms: C_2  and  C_5 
REMARK    2  A    between atoms: C_8  and  C_11 
REMARK    3  A    between atoms: C_17  and  C_18 
REMARK    4  A    between atoms: C_24  and  C_30 
ROOT
HETATM    1  C   UNL     1      23.456  45.819  49.646  1.00  0.00     0.091 A 
HETATM    2  N   UNL     1      23.625  44.922  50.612  1.00  0.00    -0.345 N 
HETATM    3  H   UNL     1      23.031  44.096  50.679  1.00  0.00     0.167 HD
HETATM    4  C   UNL     1      24.607  45.097  51.556  1.00  0.00     0.049 A 
HETATM    5  C   UNL     1      24.795  44.138  52.551  1.00  0.00     0.031 A 
HETATM    6  C   UNL     1      25.827  44.282  53.493  1.00  0.00     0.014 A 
HETATM    7  C   UNL     1      26.692  45.386  53.460  1.00  0.00    -0.022 A 
HETATM    8  C   UNL     1      26.496  46.360  52.477  1.00  0.00     0.031 A 
HETATM    9  C   UNL     1      25.460  46.201  51.550  1.00  0.00     0.059 A 
HETATM   10  C   UNL     1      25.232  47.194  50.508  1.00  0.00     0.259 A 
HETATM   11  O   UNL     1      25.843  48.225  50.333  1.00  0.00    -0.267 OA
HETATM   12  N   UNL     1      24.193  46.911  49.580  1.00  0.00    -0.312 N 
HETATM   13  H   UNL     1      24.072  47.636  48.883  1.00  0.00     0.170 HD
ENDROOT
BRANCH   1  14
HETATM   14  C   UNL     1      22.403  45.563  48.609  1.00  0.00     0.089 C 
HETATM   15  C   UNL     1      22.311  46.671  47.549  1.00  0.00     0.057 C 
HETATM   16  C   UNL     1      21.616  45.986  46.364  1.00  0.00     0.242 C 
HETATM   17  N   UNL     1      22.087  44.560  46.429  1.00  0.00    -0.074 N 
HETATM   18  H   UNL     1      21.301  43.921  46.216  1.00  0.00     0.277 HD
HETATM   19  H   UNL     1      22.772  44.373  45.676  1.00  0.00     0.277 HD
HETATM   20  C   UNL     1      22.668  44.296  47.788  1.00  0.00     0.245 C 
BRANCH  15  21
HETATM   21  C   UNL     1      21.590  47.908  48.030  1.00  0.00    -0.051 A 
HETATM   22  C   UNL     1      20.383  47.836  48.745  1.00  0.00     0.008 A 
HETATM   23  C   UNL     1      19.712  48.999  49.136  1.00  0.00     0.017 A 
HETATM   24  C   UNL     1      20.231  50.262  48.828  1.00  0.00     0.047 A 
HETATM   25  C   UNL     1      21.447  50.336  48.136  1.00  0.00     0.017 A 
HETATM   26  C   UNL     1      22.119  49.175  47.740  1.00  0.00     0.008 A 
BRANCH  24  27
HETATM   27  C   UNL     1      19.504  51.530  49.228  1.00  0.00     0.417 C 
HETATM   28  F   UNL     1      18.154  51.432  49.099  1.00  0.00    -0.166 F 
HETATM   29  F   UNL     1      19.885  52.599  48.482  1.00  0.00    -0.166 F 
HETATM   30  F   UNL     1      19.741  51.858  50.525  1.00  0.00    -0.166 F 
ENDBRANCH  24  27
ENDBRANCH  15  21
ENDBRANCH   1  14
BRANCH   7  31
HETATM   31  C   UNL     1      27.789  45.520  54.402  1.00  0.00     0.010 A 
HETATM   32  C   UNL     1      28.820  44.615  54.748  1.00  0.00     0.152 A 
HETATM   33  N   UNL     1      29.657  45.113  55.659  1.00  0.00    -0.187 NA
HETATM   34  N   UNL     1      29.173  46.338  55.905  1.00  0.00    -0.289 N 
HETATM   35  H   UNL     1      29.659  46.922  56.581  1.00  0.00     0.188 HD
HETATM   36  C   UNL     1      28.053  46.630  55.176  1.00  0.00     0.123 A 
ENDBRANCH   7  31
TORSDOF 4
ENDMDL
MODEL 10
REMARK VINA RESULT:      -8.9      6.584     10.380
REMARK  4 active torsions:
REMARK  status: ('A' for Active; 'I' for Inactive)
REMARK    1  A    between atoms: C_2  and  C_5 
REMARK    2  A    between atoms: C_8  and  C_11 
REMARK    3  A    between atoms: C_17  and  C_18 
REMARK    4  A    between atoms: C_24  and  C_30 
ROOT
HETATM    1  C   UNL     1      22.990  46.260  48.964  1.00  0.00     0.091 A 
HETATM    2  N   UNL     1      23.262  47.545  49.164  1.00  0.00    -0.345 N 
HETATM    3  H   UNL     1      24.219  47.870  49.294  1.00  0.00     0.167 HD
HETATM    4  C   UNL     1      22.247  48.469  49.210  1.00  0.00     0.049 A 
HETATM    5  C   UNL     1      22.543  49.819  49.394  1.00  0.00     0.031 A 
HETATM    6  C   UNL     1      21.517  50.780  49.395  1.00  0.00     0.014 A 
HETATM    7  C   UNL     1      20.177  50.411  49.211  1.00  0.00    -0.022 A 
HETATM    8  C   UNL     1      19.872  49.057  49.046  1.00  0.00     0.031 A 
HETATM    9  C   UNL     1      20.906  48.114  49.052  1.00  0.00     0.059 A 
HETATM   10  C   UNL     1      20.625  46.696  48.877  1.00  0.00     0.259 A 
HETATM   11  O   UNL     1      19.540  46.176  48.739  1.00  0.00    -0.267 OA
HETATM   12  N   UNL     1      21.749  45.826  48.839  1.00  0.00    -0.312 N 
HETATM   13  H   UNL     1      21.497  44.853  48.722  1.00  0.00     0.170 HD
ENDROOT
BRANCH   1  14
HETATM   14  C   UNL     1      24.131  45.293  48.873  1.00  0.00     0.089 C 
HETATM   15  C   UNL     1      24.306  44.436  50.136  1.00  0.00     0.057 C 
HETATM   16  C   UNL     1      25.109  43.222  49.646  1.00  0.00     0.242 C 
HETATM   17  N   UNL     1      24.648  43.017  48.231  1.00  0.00    -0.074 N 
HETATM   18  H   UNL     1      25.455  42.774  47.630  1.00  0.00     0.277 HD
HETATM   19  H   UNL     1      24.034  42.186  48.169  1.00  0.00     0.277 HD
HETATM   20  C   UNL     1      23.952  44.259  47.755  1.00  0.00     0.245 C 
BRANCH  15  21
HETATM   21  C   UNL     1      24.970  45.170  51.276  1.00  0.00    -0.051 A 
HETATM   22  C   UNL     1      24.957  44.673  52.590  1.00  0.00     0.008 A 
HETATM   23  C   UNL     1      25.538  45.397  53.635  1.00  0.00     0.017 A 
HETATM   24  C   UNL     1      26.151  46.632  53.396  1.00  0.00     0.047 A 
HETATM   25  C   UNL     1      26.187  47.119  52.082  1.00  0.00     0.017 A 
HETATM   26  C   UNL     1      25.604  46.399  51.034  1.00  0.00     0.008 A 
BRANCH  24  27
HETATM   27  C   UNL     1      26.767  47.437  54.523  1.00  0.00     0.417 C 
HETATM   28  F   UNL     1      27.069  46.683  55.612  1.00  0.00    -0.166 F 
HETATM   29  F   UNL     1      25.945  48.427  54.957  1.00  0.00    -0.166 F 
HETATM   30  F   UNL     1      27.925  48.035  54.139  1.00  0.00    -0.166 F 
ENDBRANCH  24  27
ENDBRANCH  15  21
ENDBRANCH   1  14
BRANCH   7  31
HETATM   31  C   UNL     1      19.116  51.401  49.166  1.00  0.00     0.010 A 
HETATM   32  C   UNL     1      17.960  51.549  49.970  1.00  0.00     0.152 A 
HETATM   33  N   UNL     1      17.222  52.603  49.621  1.00  0.00    -0.187 NA
HETATM   34  N   UNL     1      17.894  53.141  48.594  1.00  0.00    -0.289 N 
HETATM   35  H   UNL     1      17.516  53.976  48.154  1.00  0.00     0.188 HD
HETATM   36  C   UNL     1      19.037  52.457  48.282  1.00  0.00     0.123 A 
ENDBRANCH   7  31
TORSDOF 4
ENDMDL
