MODEL 1
REMARK VINA RESULT:      -9.8      0.000      0.000
REMARK  5 active torsions:
REMARK  status: ('A' for Active; 'I' for Inactive)
REMARK    1  A    between atoms: C_3  and  C_4 
REMARK    2  A    between atoms: C_8  and  C_9 
REMARK       I    between atoms: C_9  and  N_10 
REMARK    3  A    between atoms: N_10  and  C_11 
REMARK    4  A    between atoms: C_11  and  C_12 
REMARK    5  A    between atoms: C_24  and  O_25 
ROOT
HETATM    1  C   UNL     1      25.789  46.558  52.664  1.00  0.00     0.270 C 
HETATM    2  N   UNL     1      25.800  45.600  51.669  1.00  0.00    -0.342 N 
HETATM    3  O   UNL     1      25.019  47.513  52.671  1.00  0.00    -0.266 OA
HETATM    4  H   UNL     1      26.502  44.874  51.709  1.00  0.00     0.164 HD
ENDROOT
BRANCH   1   5
HETATM    5  C   UNL     1      26.795  46.395  53.680  1.00  0.00     0.120 A 
HETATM    6  N   UNL     1      27.391  47.475  54.268  1.00  0.00    -0.272 N 
HETATM    7  N   UNL     1      28.395  47.162  55.104  1.00  0.00    -0.174 NA
HETATM    8  H   UNL     1      27.174  48.453  54.097  1.00  0.00     0.189 HD
HETATM    9  C   UNL     1      28.439  45.817  55.091  1.00  0.00     0.092 A 
HETATM   10  C   UNL     1      27.429  45.299  54.231  1.00  0.00     0.071 A 
BRANCH   9  11
HETATM   11  C   UNL     1      29.468  45.080  55.838  1.00  0.00     0.028 A 
HETATM   12  C   UNL     1      30.150  44.006  55.243  1.00  0.00     0.017 A 
HETATM   13  C   UNL     1      31.168  43.333  55.928  1.00  0.00     0.001 A 
HETATM   14  C   UNL     1      31.521  43.726  57.217  1.00  0.00     0.003 A 
HETATM   15  C   UNL     1      30.850  44.781  57.829  1.00  0.00     0.037 A 
HETATM   16  C   UNL     1      29.832  45.445  57.147  1.00  0.00     0.078 A 
BRANCH  16  17
HETATM   17  O   UNL     1      29.221  46.469  57.827  1.00  0.00    -0.360 OA
HETATM   18  H   UNL     1      29.917  47.149  57.979  1.00  0.00     0.217 HD
ENDBRANCH  16  17
ENDBRANCH   9  11
ENDBRANCH   1   5
BRANCH   2  19
HETATM   19  C   UNL     1      25.230  45.844  50.370  1.00  0.00     0.064 A 
HETATM   20  C   UNL     1      25.179  44.688  49.386  1.00  0.00     0.039 A 
HETATM   21  C   UNL     1      23.911  45.209  49.979  1.00  0.00     0.039 A 
BRANCH  19  22
HETATM   22  C   UNL     1      25.576  47.229  49.843  1.00  0.00     0.011 A 
HETATM   23  C   UNL     1      24.583  48.123  49.407  1.00  0.00     0.125 A 
HETATM   24  F   UNL     1      23.291  47.763  49.485  1.00  0.00    -0.205 F 
HETATM   25  C   UNL     1      24.888  49.369  48.858  1.00  0.00     0.046 A 
HETATM   26  C   UNL     1      26.219  49.751  48.725  1.00  0.00     0.045 A 
HETATM   27  C   UNL     1      27.220  48.883  49.143  1.00  0.00     0.117 A 
HETATM   28  F   UNL     1      28.502  49.241  49.001  1.00  0.00    -0.206 F 
HETATM   29  C   UNL     1      26.912  47.641  49.694  1.00  0.00     0.055 A 
ENDBRANCH  19  22
ENDBRANCH   2  19
TORSDOF 5
ENDMDL
MODEL 2
REMARK VINA RESULT:      -9.4      3.064      8.178
REMARK  5 active torsions:
REMARK  status: ('A' for Active; 'I' for Inactive)
REMARK    1  A    between atoms: C_3  and  C_4 
REMARK    2  A    between atoms: C_8  and  C_9 
REMARK       I    between atoms: C_9  and  N_10 
REMARK    3  A    between atoms: N_10  and  C_11 
REMARK    4  A    between atoms: C_11  and  C_12 
REMARK    5  A    between atoms: C_24  and  O_25 
ROOT
HETATM    1  C   UNL     1      26.666  44.665  53.237  1.00  0.00     0.270 C 
HETATM    2  N   UNL     1      28.046  44.648  53.175  1.00  0.00    -0.342 N 
HETATM    3  O   UNL     1      26.021  44.019  54.056  1.00  0.00    -0.266 OA
HETATM    4  H   UNL     1      28.500  45.166  52.436  1.00  0.00     0.164 HD
ENDROOT
BRANCH   1   5
HETATM    5  C   UNL     1      26.020  45.458  52.226  1.00  0.00     0.120 A 
HETATM    6  N   UNL     1      25.055  44.927  51.417  1.00  0.00    -0.272 N 
HETATM    7  N   UNL     1      24.636  45.753  50.443  1.00  0.00    -0.174 NA
HETATM    8  H   UNL     1      24.679  43.984  51.464  1.00  0.00     0.189 HD
HETATM    9  C   UNL     1      25.332  46.889  50.642  1.00  0.00     0.092 A 
HETATM   10  C   UNL     1      26.188  46.751  51.771  1.00  0.00     0.071 A 
BRANCH   9  11
HETATM   11  C   UNL     1      25.206  48.030  49.724  1.00  0.00     0.028 A 
HETATM   12  C   UNL     1      26.351  48.678  49.232  1.00  0.00     0.017 A 
HETATM   13  C   UNL     1      26.241  49.731  48.317  1.00  0.00     0.001 A 
HETATM   14  C   UNL     1      24.987  50.151  47.879  1.00  0.00     0.003 A 
HETATM   15  C   UNL     1      23.839  49.528  48.363  1.00  0.00     0.037 A 
HETATM   16  C   UNL     1      23.951  48.484  49.280  1.00  0.00     0.078 A 
BRANCH  16  17
HETATM   17  O   UNL     1      22.769  47.932  49.709  1.00  0.00    -0.360 OA
HETATM   18  H   UNL     1      22.054  48.423  49.242  1.00  0.00     0.217 HD
ENDBRANCH  16  17
ENDBRANCH   9  11
ENDBRANCH   1   5
BRANCH   2  19
HETATM   19  C   UNL     1      28.821  43.582  53.754  1.00  0.00     0.064 A 
HETATM   20  C   UNL     1      28.257  42.173  53.688  1.00  0.00     0.039 A 
HETATM   21  C   UNL     1      29.456  42.527  52.870  1.00  0.00     0.039 A 
BRANCH  19  22
HETATM   22  C   UNL     1      29.535  44.018  55.024  1.00  0.00     0.011 A 
HETATM   23  C   UNL     1      29.228  45.231  55.666  1.00  0.00     0.125 A 
HETATM   24  F   UNL     1      28.257  46.012  55.168  1.00  0.00    -0.205 F 
HETATM   25  C   UNL     1      29.922  45.677  56.792  1.00  0.00     0.046 A 
HETATM   26  C   UNL     1      30.961  44.908  57.305  1.00  0.00     0.045 A 
HETATM   27  C   UNL     1      31.289  43.708  56.685  1.00  0.00     0.117 A 
HETATM   28  F   UNL     1      32.300  42.974  57.167  1.00  0.00    -0.206 F 
HETATM   29  C   UNL     1      30.592  43.264  55.563  1.00  0.00     0.055 A 
ENDBRANCH  19  22
ENDBRANCH   2  19
TORSDOF 5
ENDMDL
MODEL 3
REMARK VINA RESULT:      -9.4      3.257      8.346
REMARK  5 active torsions:
REMARK  status: ('A' for Active; 'I' for Inactive)
REMARK    1  A    between atoms: C_3  and  C_4 
REMARK    2  A    between atoms: C_8  and  C_9 
REMARK       I    between atoms: C_9  and  N_10 
REMARK    3  A    between atoms: N_10  and  C_11 
REMARK    4  A    between atoms: C_11  and  C_12 
REMARK    5  A    between atoms: C_24  and  O_25 
ROOT
HETATM    1  C   UNL     1      26.898  44.885  53.401  1.00  0.00     0.270 C 
HETATM    2  N   UNL     1      28.272  44.982  53.485  1.00  0.00    -0.342 N 
HETATM    3  O   UNL     1      26.219  44.235  54.190  1.00  0.00    -0.266 OA
HETATM    4  H   UNL     1      28.762  45.494  52.764  1.00  0.00     0.164 HD
ENDROOT
BRANCH   1   5
HETATM    5  C   UNL     1      26.305  45.559  52.277  1.00  0.00     0.120 A 
HETATM    6  N   UNL     1      25.731  44.860  51.253  1.00  0.00    -0.272 N 
HETATM    7  N   UNL     1      25.334  45.622  50.219  1.00  0.00    -0.174 NA
HETATM    8  H   UNL     1      25.626  43.850  51.194  1.00  0.00     0.189 HD
HETATM    9  C   UNL     1      25.630  46.880  50.595  1.00  0.00     0.092 A 
HETATM   10  C   UNL     1      26.213  46.883  51.894  1.00  0.00     0.071 A 
BRANCH   9  11
HETATM   11  C   UNL     1      25.409  48.018  49.691  1.00  0.00     0.028 A 
HETATM   12  C   UNL     1      26.497  48.744  49.179  1.00  0.00     0.017 A 
HETATM   13  C   UNL     1      26.297  49.794  48.276  1.00  0.00     0.001 A 
HETATM   14  C   UNL     1      25.009  50.134  47.871  1.00  0.00     0.003 A 
HETATM   15  C   UNL     1      23.916  49.434  48.375  1.00  0.00     0.037 A 
HETATM   16  C   UNL     1      24.117  48.392  49.280  1.00  0.00     0.078 A 
BRANCH  16  17
HETATM   17  O   UNL     1      22.984  47.761  49.730  1.00  0.00    -0.360 OA
HETATM   18  H   UNL     1      22.863  48.051  50.664  1.00  0.00     0.217 HD
ENDBRANCH  16  17
ENDBRANCH   9  11
ENDBRANCH   1   5
BRANCH   2  19
HETATM   19  C   UNL     1      29.062  44.023  54.213  1.00  0.00     0.064 A 
HETATM   20  C   UNL     1      28.667  42.559  54.120  1.00  0.00     0.039 A 
HETATM   21  C   UNL     1      29.931  43.026  53.474  1.00  0.00     0.039 A 
BRANCH  19  22
HETATM   22  C   UNL     1      29.526  44.565  55.556  1.00  0.00     0.011 A 
HETATM   23  C   UNL     1      30.685  44.080  56.188  1.00  0.00     0.125 A 
HETATM   24  F   UNL     1      31.423  43.138  55.579  1.00  0.00    -0.205 F 
HETATM   25  C   UNL     1      31.085  44.518  57.452  1.00  0.00     0.046 A 
HETATM   26  C   UNL     1      30.317  45.462  58.125  1.00  0.00     0.045 A 
HETATM   27  C   UNL     1      29.163  45.951  57.524  1.00  0.00     0.117 A 
HETATM   28  F   UNL     1      28.413  46.847  58.178  1.00  0.00    -0.206 F 
HETATM   29  C   UNL     1      28.768  45.515  56.262  1.00  0.00     0.055 A 
ENDBRANCH  19  22
ENDBRANCH   2  19
TORSDOF 5
ENDMDL
MODEL 4
REMARK VINA RESULT:      -9.3      5.020      8.060
REMARK  5 active torsions:
REMARK  status: ('A' for Active; 'I' for Inactive)
REMARK    1  A    between atoms: C_3  and  C_4 
REMARK    2  A    between atoms: C_8  and  C_9 
REMARK       I    between atoms: C_9  and  N_10 
REMARK    3  A    between atoms: N_10  and  C_11 
REMARK    4  A    between atoms: C_11  and  C_12 
REMARK    5  A    between atoms: C_24  and  O_25 
ROOT
HETATM    1  C   UNL     1      27.441  43.836  54.063  1.00  0.00     0.270 C 
HETATM    2  N   UNL     1      28.244  44.951  53.933  1.00  0.00    -0.342 N 
HETATM    3  O   UNL     1      26.512  43.764  54.862  1.00  0.00    -0.266 OA
HETATM    4  H   UNL     1      29.022  44.910  53.289  1.00  0.00     0.164 HD
ENDROOT
BRANCH   1   5
HETATM    5  C   UNL     1      27.803  42.721  53.229  1.00  0.00     0.120 A 
HETATM    6  N   UNL     1      28.852  41.906  53.549  1.00  0.00    -0.272 N 
HETATM    7  N   UNL     1      29.144  40.989  52.612  1.00  0.00    -0.174 NA
HETATM    8  H   UNL     1      29.431  41.966  54.383  1.00  0.00     0.189 HD
HETATM    9  C   UNL     1      28.225  41.188  51.648  1.00  0.00     0.092 A 
HETATM   10  C   UNL     1      27.347  42.247  52.014  1.00  0.00     0.071 A 
BRANCH   9  11
HETATM   11  C   UNL     1      28.251  40.414  50.398  1.00  0.00     0.028 A 
HETATM   12  C   UNL     1      27.754  40.967  49.207  1.00  0.00     0.017 A 
HETATM   13  C   UNL     1      27.824  40.258  48.002  1.00  0.00     0.001 A 
HETATM   14  C   UNL     1      28.394  38.987  47.970  1.00  0.00     0.003 A 
HETATM   15  C   UNL     1      28.883  38.417  49.142  1.00  0.00     0.037 A 
HETATM   16  C   UNL     1      28.806  39.123  50.342  1.00  0.00     0.078 A 
BRANCH  16  17
HETATM   17  O   UNL     1      29.307  38.483  51.449  1.00  0.00    -0.360 OA
HETATM   18  H   UNL     1      29.679  39.189  52.026  1.00  0.00     0.217 HD
ENDBRANCH  16  17
ENDBRANCH   9  11
ENDBRANCH   1   5
BRANCH   2  19
HETATM   19  C   UNL     1      28.350  45.940  54.974  1.00  0.00     0.064 A 
HETATM   20  C   UNL     1      28.388  47.403  54.565  1.00  0.00     0.039 A 
HETATM   21  C   UNL     1      27.188  46.865  55.274  1.00  0.00     0.039 A 
BRANCH  19  22
HETATM   22  C   UNL     1      29.251  45.482  56.110  1.00  0.00     0.011 A 
HETATM   23  C   UNL     1      29.116  45.994  57.413  1.00  0.00     0.125 A 
HETATM   24  F   UNL     1      28.146  46.885  57.673  1.00  0.00    -0.205 F 
HETATM   25  C   UNL     1      29.978  45.635  58.450  1.00  0.00     0.046 A 
HETATM   26  C   UNL     1      31.018  44.745  58.199  1.00  0.00     0.045 A 
HETATM   27  C   UNL     1      31.176  44.230  56.918  1.00  0.00     0.117 A 
HETATM   28  F   UNL     1      32.187  43.386  56.670  1.00  0.00    -0.206 F 
HETATM   29  C   UNL     1      30.312  44.588  55.886  1.00  0.00     0.055 A 
ENDBRANCH  19  22
ENDBRANCH   2  19
TORSDOF 5
ENDMDL
MODEL 5
REMARK VINA RESULT:      -8.9      4.357      6.850
REMARK  5 active torsions:
REMARK  status: ('A' for Active; 'I' for Inactive)
REMARK    1  A    between atoms: C_3  and  C_4 
REMARK    2  A    between atoms: C_8  and  C_9 
REMARK       I    between atoms: C_9  and  N_10 
REMARK    3  A    between atoms: N_10  and  C_11 
REMARK    4  A    between atoms: C_11  and  C_12 
REMARK    5  A    between atoms: C_24  and  O_25 
ROOT
HETATM    1  C   UNL     1      22.892  48.671  48.815  1.00  0.00     0.270 C 
HETATM    2  N   UNL     1      21.893  49.141  49.644  1.00  0.00    -0.342 N 
HETATM    3  O   UNL     1      23.113  49.131  47.699  1.00  0.00    -0.266 OA
HETATM    4  H   UNL     1      21.742  48.673  50.527  1.00  0.00     0.164 HD
ENDROOT
BRANCH   1   5
HETATM    5  C   UNL     1      23.636  47.552  49.328  1.00  0.00     0.120 A 
HETATM    6  N   UNL     1      23.144  46.279  49.254  1.00  0.00    -0.272 N 
HETATM    7  N   UNL     1      23.893  45.360  49.886  1.00  0.00    -0.174 NA
HETATM    8  H   UNL     1      22.271  45.993  48.817  1.00  0.00     0.189 HD
HETATM    9  C   UNL     1      24.942  46.054  50.367  1.00  0.00     0.092 A 
HETATM   10  C   UNL     1      24.830  47.427  50.011  1.00  0.00     0.071 A 
BRANCH   9  11
HETATM   11  C   UNL     1      25.970  45.406  51.194  1.00  0.00     0.028 A 
HETATM   12  C   UNL     1      26.051  45.672  52.571  1.00  0.00     0.017 A 
HETATM   13  C   UNL     1      26.992  45.019  53.374  1.00  0.00     0.001 A 
HETATM   14  C   UNL     1      27.865  44.089  52.815  1.00  0.00     0.003 A 
HETATM   15  C   UNL     1      27.809  43.819  51.450  1.00  0.00     0.037 A 
HETATM   16  C   UNL     1      26.875  44.476  50.650  1.00  0.00     0.078 A 
BRANCH  16  17
HETATM   17  O   UNL     1      26.893  44.153  49.316  1.00  0.00    -0.360 OA
HETATM   18  H   UNL     1      27.822  43.900  49.110  1.00  0.00     0.217 HD
ENDBRANCH  16  17
ENDBRANCH   9  11
ENDBRANCH   1   5
BRANCH   2  19
HETATM   19  C   UNL     1      20.773  49.892  49.139  1.00  0.00     0.064 A 
HETATM   20  C   UNL     1      20.341  51.129  49.907  1.00  0.00     0.039 A 
HETATM   21  C   UNL     1      20.977  51.279  48.563  1.00  0.00     0.039 A 
BRANCH  19  22
HETATM   22  C   UNL     1      19.698  48.991  48.550  1.00  0.00     0.011 A 
HETATM   23  C   UNL     1      18.874  48.194  49.364  1.00  0.00     0.125 A 
HETATM   24  F   UNL     1      19.014  48.250  50.699  1.00  0.00    -0.205 F 
HETATM   25  C   UNL     1      17.931  47.312  48.836  1.00  0.00     0.046 A 
HETATM   26  C   UNL     1      17.794  47.202  47.456  1.00  0.00     0.045 A 
HETATM   27  C   UNL     1      18.600  47.974  46.630  1.00  0.00     0.117 A 
HETATM   28  F   UNL     1      18.482  47.858  45.301  1.00  0.00    -0.206 F 
HETATM   29  C   UNL     1      19.539  48.856  47.160  1.00  0.00     0.055 A 
ENDBRANCH  19  22
ENDBRANCH   2  19
TORSDOF 5
ENDMDL
MODEL 6
REMARK VINA RESULT:      -8.8      4.347      5.787
REMARK  5 active torsions:
REMARK  status: ('A' for Active; 'I' for Inactive)
REMARK    1  A    between atoms: C_3  and  C_4 
REMARK    2  A    between atoms: C_8  and  C_9 
REMARK       I    between atoms: C_9  and  N_10 
REMARK    3  A    between atoms: N_10  and  C_11 
REMARK    4  A    between atoms: C_11  and  C_12 
REMARK    5  A    between atoms: C_24  and  O_25 
ROOT
HETATM    1  C   UNL     1      26.380  43.155  50.231  1.00  0.00     0.270 C 
HETATM    2  N   UNL     1      25.305  42.301  50.080  1.00  0.00    -0.342 N 
HETATM    3  O   UNL     1      26.928  43.721  49.290  1.00  0.00    -0.266 OA
HETATM    4  H   UNL     1      24.945  41.833  50.899  1.00  0.00     0.164 HD
ENDROOT
BRANCH   1   5
HETATM    5  C   UNL     1      26.862  43.297  51.579  1.00  0.00     0.120 A 
HETATM    6  N   UNL     1      25.999  43.439  52.630  1.00  0.00    -0.272 N 
HETATM    7  N   UNL     1      26.599  43.686  53.806  1.00  0.00    -0.174 NA
HETATM    8  H   UNL     1      24.984  43.417  52.585  1.00  0.00     0.189 HD
HETATM    9  C   UNL     1      27.916  43.673  53.522  1.00  0.00     0.092 A 
HETATM   10  C   UNL     1      28.119  43.402  52.140  1.00  0.00     0.071 A 
BRANCH   9  11
HETATM   11  C   UNL     1      28.920  43.978  54.551  1.00  0.00     0.028 A 
HETATM   12  C   UNL     1      29.933  43.054  54.854  1.00  0.00     0.017 A 
HETATM   13  C   UNL     1      30.924  43.358  55.794  1.00  0.00     0.001 A 
HETATM   14  C   UNL     1      30.919  44.591  56.443  1.00  0.00     0.003 A 
HETATM   15  C   UNL     1      29.917  45.517  56.164  1.00  0.00     0.037 A 
HETATM   16  C   UNL     1      28.927  45.209  55.233  1.00  0.00     0.078 A 
BRANCH  16  17
HETATM   17  O   UNL     1      27.976  46.177  55.024  1.00  0.00    -0.360 OA
HETATM   18  H   UNL     1      28.460  47.035  55.007  1.00  0.00     0.217 HD
ENDBRANCH  16  17
ENDBRANCH   9  11
ENDBRANCH   1   5
BRANCH   2  19
HETATM   19  C   UNL     1      25.003  41.671  48.820  1.00  0.00     0.064 A 
HETATM   20  C   UNL     1      23.554  41.324  48.527  1.00  0.00     0.039 A 
HETATM   21  C   UNL     1      24.222  42.417  47.758  1.00  0.00     0.039 A 
BRANCH  19  22
HETATM   22  C   UNL     1      26.084  40.688  48.398  1.00  0.00     0.011 A 
HETATM   23  C   UNL     1      26.527  39.663  49.253  1.00  0.00     0.125 A 
HETATM   24  F   UNL     1      25.960  39.524  50.463  1.00  0.00    -0.205 F 
HETATM   25  C   UNL     1      27.564  38.797  48.906  1.00  0.00     0.046 A 
HETATM   26  C   UNL     1      28.197  38.944  47.676  1.00  0.00     0.045 A 
HETATM   27  C   UNL     1      27.783  39.953  46.816  1.00  0.00     0.117 A 
HETATM   28  F   UNL     1      28.402  40.108  45.639  1.00  0.00    -0.206 F 
HETATM   29  C   UNL     1      26.745  40.815  47.164  1.00  0.00     0.055 A 
ENDBRANCH  19  22
ENDBRANCH   2  19
TORSDOF 5
ENDMDL
MODEL 7
REMARK VINA RESULT:      -8.6      3.236      8.180
REMARK  5 active torsions:
REMARK  status: ('A' for Active; 'I' for Inactive)
REMARK    1  A    between atoms: C_3  and  C_4 
REMARK    2  A    between atoms: C_8  and  C_9 
REMARK       I    between atoms: C_9  and  N_10 
REMARK    3  A    between atoms: N_10  and  C_11 
REMARK    4  A    between atoms: C_11  and  C_12 
REMARK    5  A    between atoms: C_24  and  O_25 
ROOT
HETATM    1  C   UNL     1      26.222  45.095  50.495  1.00  0.00     0.270 C 
HETATM    2  N   UNL     1      26.015  44.463  51.705  1.00  0.00    -0.342 N 
HETATM    3  O   UNL     1      27.270  45.012  49.862  1.00  0.00    -0.266 OA
HETATM    4  H   UNL     1      25.142  44.625  52.188  1.00  0.00     0.164 HD
ENDROOT
BRANCH   1   5
HETATM    5  C   UNL     1      25.132  45.918  50.041  1.00  0.00     0.120 A 
HETATM    6  N   UNL     1      24.175  45.427  49.198  1.00  0.00    -0.272 N 
HETATM    7  N   UNL     1      23.297  46.348  48.766  1.00  0.00    -0.174 NA
HETATM    8  H   UNL     1      24.105  44.473  48.853  1.00  0.00     0.189 HD
HETATM    9  C   UNL     1      23.673  47.486  49.378  1.00  0.00     0.092 A 
HETATM   10  C   UNL     1      24.803  47.249  50.210  1.00  0.00     0.071 A 
BRANCH   9  11
HETATM   11  C   UNL     1      22.992  48.760  49.104  1.00  0.00     0.028 A 
HETATM   12  C   UNL     1      23.727  49.895  48.727  1.00  0.00     0.017 A 
HETATM   13  C   UNL     1      23.081  51.097  48.414  1.00  0.00     0.001 A 
HETATM   14  C   UNL     1      21.692  51.181  48.470  1.00  0.00     0.003 A 
HETATM   15  C   UNL     1      20.945  50.069  48.852  1.00  0.00     0.037 A 
HETATM   16  C   UNL     1      21.591  48.876  49.171  1.00  0.00     0.078 A 
BRANCH  16  17
HETATM   17  O   UNL     1      20.779  47.833  49.542  1.00  0.00    -0.360 OA
HETATM   18  H   UNL     1      20.032  48.235  50.045  1.00  0.00     0.217 HD
ENDBRANCH  16  17
ENDBRANCH   9  11
ENDBRANCH   1   5
BRANCH   2  19
HETATM   19  C   UNL     1      27.108  44.016  52.528  1.00  0.00     0.064 A 
HETATM   20  C   UNL     1      27.220  42.529  52.816  1.00  0.00     0.039 A 
HETATM   21  C   UNL     1      28.228  43.187  51.931  1.00  0.00     0.039 A 
BRANCH  19  22
HETATM   22  C   UNL     1      27.421  44.996  53.648  1.00  0.00     0.011 A 
HETATM   23  C   UNL     1      26.528  46.023  54.002  1.00  0.00     0.125 A 
HETATM   24  F   UNL     1      25.353  46.125  53.361  1.00  0.00    -0.205 F 
HETATM   25  C   UNL     1      26.831  46.972  54.980  1.00  0.00     0.046 A 
HETATM   26  C   UNL     1      28.060  46.916  55.631  1.00  0.00     0.045 A 
HETATM   27  C   UNL     1      28.962  45.915  55.294  1.00  0.00     0.117 A 
HETATM   28  F   UNL     1      30.152  45.869  55.907  1.00  0.00    -0.206 F 
HETATM   29  C   UNL     1      28.655  44.967  54.320  1.00  0.00     0.055 A 
ENDBRANCH  19  22
ENDBRANCH   2  19
TORSDOF 5
ENDMDL
MODEL 8
REMARK VINA RESULT:      -8.6      3.136      8.411
REMARK  5 active torsions:
REMARK  status: ('A' for Active; 'I' for Inactive)
REMARK    1  A    between atoms: C_3  and  C_4 
REMARK    2  A    between atoms: C_8  and  C_9 
REMARK       I    between atoms: C_9  and  N_10 
REMARK    3  A    between atoms: N_10  and  C_11 
REMARK    4  A    between atoms: C_11  and  C_12 
REMARK    5  A    between atoms: C_24  and  O_25 
ROOT
HETATM    1  C   UNL     1      26.482  45.837  53.032  1.00  0.00     0.270 C 
HETATM    2  N   UNL     1      27.359  44.778  52.907  1.00  0.00    -0.342 N 
HETATM    3  O   UNL     1      26.106  46.276  54.115  1.00  0.00    -0.266 OA
HETATM    4  H   UNL     1      27.577  44.443  51.979  1.00  0.00     0.164 HD
ENDROOT
BRANCH   1   5
HETATM    5  C   UNL     1      25.982  46.367  51.792  1.00  0.00     0.120 A 
HETATM    6  N   UNL     1      26.577  46.063  50.599  1.00  0.00    -0.272 N 
HETATM    7  N   UNL     1      26.075  46.731  49.547  1.00  0.00    -0.174 NA
HETATM    8  H   UNL     1      27.363  45.434  50.459  1.00  0.00     0.189 HD
HETATM    9  C   UNL     1      25.084  47.481  50.065  1.00  0.00     0.092 A 
HETATM   10  C   UNL     1      24.976  47.255  51.467  1.00  0.00     0.071 A 
BRANCH   9  11
HETATM   11  C   UNL     1      24.324  48.422  49.230  1.00  0.00     0.028 A 
HETATM   12  C   UNL     1      24.930  49.591  48.741  1.00  0.00     0.017 A 
HETATM   13  C   UNL     1      24.230  50.465  47.902  1.00  0.00     0.001 A 
HETATM   14  C   UNL     1      22.915  50.184  47.538  1.00  0.00     0.003 A 
HETATM   15  C   UNL     1      22.293  49.036  48.021  1.00  0.00     0.037 A 
HETATM   16  C   UNL     1      22.990  48.170  48.862  1.00  0.00     0.078 A 
BRANCH  16  17
HETATM   17  O   UNL     1      22.298  47.067  49.296  1.00  0.00    -0.360 OA
HETATM   18  H   UNL     1      21.698  47.385  50.010  1.00  0.00     0.217 HD
ENDBRANCH  16  17
ENDBRANCH   9  11
ENDBRANCH   1   5
BRANCH   2  19
HETATM   19  C   UNL     1      27.577  43.838  53.975  1.00  0.00     0.064 A 
HETATM   20  C   UNL     1      26.361  43.295  54.706  1.00  0.00     0.039 A 
HETATM   21  C   UNL     1      27.155  42.391  53.821  1.00  0.00     0.039 A 
BRANCH  19  22
HETATM   22  C   UNL     1      28.821  44.170  54.785  1.00  0.00     0.011 A 
HETATM   23  C   UNL     1      30.006  43.424  54.659  1.00  0.00     0.125 A 
HETATM   24  F   UNL     1      30.058  42.413  53.777  1.00  0.00    -0.205 F 
HETATM   25  C   UNL     1      31.132  43.673  55.444  1.00  0.00     0.046 A 
HETATM   26  C   UNL     1      31.093  44.687  56.396  1.00  0.00     0.045 A 
HETATM   27  C   UNL     1      29.931  45.434  56.545  1.00  0.00     0.117 A 
HETATM   28  F   UNL     1      29.885  46.400  57.471  1.00  0.00    -0.206 F 
HETATM   29  C   UNL     1      28.810  45.186  55.757  1.00  0.00     0.055 A 
ENDBRANCH  19  22
ENDBRANCH   2  19
TORSDOF 5
ENDMDL
MODEL 9
REMARK VINA RESULT:      -8.6      4.326      7.734
REMARK  5 active torsions:
REMARK  status: ('A' for Active; 'I' for Inactive)
REMARK    1  A    between atoms: C_3  and  C_4 
REMARK    2  A    between atoms: C_8  and  C_9 
REMARK       I    between atoms: C_9  and  N_10 
REMARK    3  A    between atoms: N_10  and  C_11 
REMARK    4  A    between atoms: C_11  and  C_12 
REMARK    5  A    between atoms: C_24  and  O_25 
ROOT
HETATM    1  C   UNL     1      25.877  44.269  53.001  1.00  0.00     0.270 C 
HETATM    2  N   UNL     1      26.834  45.262  52.947  1.00  0.00    -0.342 N 
HETATM    3  O   UNL     1      25.100  44.132  53.941  1.00  0.00    -0.266 OA
HETATM    4  H   UNL     1      27.470  45.273  52.161  1.00  0.00     0.164 HD
ENDROOT
BRANCH   1   5
HETATM    5  C   UNL     1      25.884  43.352  51.892  1.00  0.00     0.120 A 
HETATM    6  N   UNL     1      24.724  42.817  51.406  1.00  0.00    -0.272 N 
HETATM    7  N   UNL     1      24.903  41.885  50.455  1.00  0.00    -0.174 NA
HETATM    8  H   UNL     1      23.782  43.026  51.725  1.00  0.00     0.189 HD
HETATM    9  C   UNL     1      26.238  41.830  50.284  1.00  0.00     0.092 A 
HETATM   10  C   UNL     1      26.884  42.759  51.147  1.00  0.00     0.071 A 
BRANCH   9  11
HETATM   11  C   UNL     1      26.849  40.862  49.361  1.00  0.00     0.028 A 
HETATM   12  C   UNL     1      27.578  41.304  48.245  1.00  0.00     0.017 A 
HETATM   13  C   UNL     1      28.208  40.391  47.392  1.00  0.00     0.001 A 
HETATM   14  C   UNL     1      28.119  39.024  47.642  1.00  0.00     0.003 A 
HETATM   15  C   UNL     1      27.392  38.565  48.737  1.00  0.00     0.037 A 
HETATM   16  C   UNL     1      26.760  39.476  49.581  1.00  0.00     0.078 A 
BRANCH  16  17
HETATM   17  O   UNL     1      26.061  38.936  50.632  1.00  0.00    -0.360 OA
HETATM   18  H   UNL     1      25.672  38.095  50.297  1.00  0.00     0.217 HD
ENDBRANCH  16  17
ENDBRANCH   9  11
ENDBRANCH   1   5
BRANCH   2  19
HETATM   19  C   UNL     1      27.293  45.944  54.129  1.00  0.00     0.064 A 
HETATM   20  C   UNL     1      27.274  47.463  54.127  1.00  0.00     0.039 A 
HETATM   21  C   UNL     1      26.318  46.713  54.997  1.00  0.00     0.039 A 
BRANCH  19  22
HETATM   22  C   UNL     1      28.471  45.234  54.779  1.00  0.00     0.011 A 
HETATM   23  C   UNL     1      29.003  45.661  56.009  1.00  0.00     0.125 A 
HETATM   24  F   UNL     1      28.440  46.700  56.646  1.00  0.00    -0.205 F 
HETATM   25  C   UNL     1      30.126  45.063  56.584  1.00  0.00     0.046 A 
HETATM   26  C   UNL     1      30.755  44.012  55.925  1.00  0.00     0.045 A 
HETATM   27  C   UNL     1      30.252  43.577  54.705  1.00  0.00     0.117 A 
HETATM   28  F   UNL     1      30.866  42.577  54.061  1.00  0.00    -0.206 F 
HETATM   29  C   UNL     1      29.129  44.173  54.135  1.00  0.00     0.055 A 
ENDBRANCH  19  22
ENDBRANCH   2  19
TORSDOF 5
ENDMDL
MODEL 10
REMARK VINA RESULT:      -8.6     11.944     13.435
REMARK  5 active torsions:
REMARK  status: ('A' for Active; 'I' for Inactive)
REMARK    1  A    between atoms: C_3  and  C_4 
REMARK    2  A    between atoms: C_8  and  C_9 
REMARK       I    between atoms: C_9  and  N_10 
REMARK    3  A    between atoms: N_10  and  C_11 
REMARK    4  A    between atoms: C_11  and  C_12 
REMARK    5  A    between atoms: C_24  and  O_25 
ROOT
HETATM    1  C   UNL     1      32.652  50.976  43.300  1.00  0.00     0.270 C 
HETATM    2  N   UNL     1      32.485  50.159  42.199  1.00  0.00    -0.342 N 
HETATM    3  O   UNL     1      31.771  51.174  44.131  1.00  0.00    -0.266 OA
HETATM    4  H   UNL     1      33.241  50.091  41.533  1.00  0.00     0.164 HD
ENDROOT
BRANCH   1   5
HETATM    5  C   UNL     1      33.926  51.638  43.382  1.00  0.00     0.120 A 
HETATM    6  N   UNL     1      34.711  51.806  42.276  1.00  0.00    -0.272 N 
HETATM    7  N   UNL     1      35.922  52.328  42.533  1.00  0.00    -0.174 NA
HETATM    8  H   UNL     1      34.478  51.538  41.323  1.00  0.00     0.189 HD
HETATM    9  C   UNL     1      35.921  52.543  43.863  1.00  0.00     0.092 A 
HETATM   10  C   UNL     1      34.673  52.151  44.424  1.00  0.00     0.071 A 
BRANCH   9  11
HETATM   11  C   UNL     1      37.115  53.050  44.554  1.00  0.00     0.028 A 
HETATM   12  C   UNL     1      37.197  54.399  44.938  1.00  0.00     0.017 A 
HETATM   13  C   UNL     1      38.307  54.877  45.644  1.00  0.00     0.001 A 
HETATM   14  C   UNL     1      39.350  54.016  45.977  1.00  0.00     0.003 A 
HETATM   15  C   UNL     1      39.292  52.678  45.595  1.00  0.00     0.037 A 
HETATM   16  C   UNL     1      38.189  52.205  44.886  1.00  0.00     0.078 A 
BRANCH  16  17
HETATM   17  O   UNL     1      38.218  50.876  44.546  1.00  0.00    -0.360 OA
HETATM   18  H   UNL     1      37.399  50.710  44.026  1.00  0.00     0.217 HD
ENDBRANCH  16  17
ENDBRANCH   9  11
ENDBRANCH   1   5
BRANCH   2  19
HETATM   19  C   UNL     1      31.180  49.814  41.697  1.00  0.00     0.064 A 
HETATM   20  C   UNL     1      31.012  48.463  41.022  1.00  0.00     0.039 A 
HETATM   21  C   UNL     1      30.375  48.710  42.351  1.00  0.00     0.039 A 
BRANCH  19  22
HETATM   22  C   UNL     1      30.457  51.014  41.106  1.00  0.00     0.011 A 
HETATM   23  C   UNL     1      31.017  51.775  40.064  1.00  0.00     0.125 A 
HETATM   24  F   UNL     1      32.204  51.416  39.551  1.00  0.00    -0.205 F 
HETATM   25  C   UNL     1      30.397  52.919  39.558  1.00  0.00     0.046 A 
HETATM   26  C   UNL     1      29.186  53.338  40.100  1.00  0.00     0.045 A 
HETATM   27  C   UNL     1      28.616  52.607  41.135  1.00  0.00     0.117 A 
HETATM   28  F   UNL     1      27.459  53.018  41.669  1.00  0.00    -0.206 F 
HETATM   29  C   UNL     1      29.235  51.464  41.635  1.00  0.00     0.055 A 
ENDBRANCH  19  22
ENDBRANCH   2  19
TORSDOF 5
ENDMDL
