MODEL 1
REMARK VINA RESULT:      -8.3      0.000      0.000
REMARK  7 active torsions:
REMARK  status: ('A' for Active; 'I' for Inactive)
REMARK    1  A    between atoms: O_2  and  C_3 
REMARK    2  A    between atoms: C_4  and  O_5 
REMARK    3  A    between atoms: C_7  and  C_8 
REMARK       I    between atoms: C_8  and  N_9 
REMARK    4  A    between atoms: N_9  and  C_10 
REMARK    5  A    between atoms: C_10  and  C_11 
REMARK    6  A    between atoms: C_11  and  N_12 
REMARK    7  A    between atoms: C_11  and  C_18 
ROOT
HETATM    1  C   UNL     1      21.307  46.905  48.586  1.00  0.00     0.239 C 
ENDROOT
BRANCH   1   2
HETATM    2  C   UNL     1      19.823  47.341  48.839  1.00  0.00     0.161 C 
BRANCH   2   3
HETATM    3  N   UNL     1      19.460  47.755  50.187  1.00  0.00    -0.354 N 
HETATM    4  C   UNL     1      18.839  48.906  50.612  1.00  0.00     0.254 C 
HETATM    5  O   UNL     1      18.417  48.967  51.759  1.00  0.00    -0.268 OA
HETATM    6  H   UNL     1      19.359  47.029  50.893  1.00  0.00     0.162 HD
BRANCH   4   7
HETATM    7  C   UNL     1      18.709  50.067  49.706  1.00  0.00     0.068 A 
HETATM    8  C   UNL     1      17.655  50.105  48.767  1.00  0.00     0.117 A 
HETATM    9  C   UNL     1      17.625  51.170  47.850  1.00  0.00     0.102 A 
HETATM   10  C   UNL     1      18.562  52.211  47.959  1.00  0.00     0.040 A 
HETATM   11  C   UNL     1      19.578  52.170  48.913  1.00  0.00     0.004 A 
HETATM   12  C   UNL     1      19.673  51.080  49.771  1.00  0.00     0.020 A 
BRANCH   8  13
HETATM   13  O   UNL     1      16.738  49.093  48.895  1.00  0.00    -0.352 OA
HETATM   14  C   UNL     1      16.513  48.200  47.815  1.00  0.00     0.210 C 
ENDBRANCH   8  13
BRANCH   9  15
HETATM   15  O   UNL     1      16.646  51.228  46.894  1.00  0.00    -0.353 OA
HETATM   16  C   UNL     1      15.528  52.048  47.251  1.00  0.00     0.210 C 
ENDBRANCH   9  15
ENDBRANCH   4   7
ENDBRANCH   2   3
ENDBRANCH   1   2
BRANCH   1  17
HETATM   17  N   UNL     1      21.483  45.921  47.429  1.00  0.00    -0.061 N 
HETATM   18  H   UNL     1      22.330  46.256  46.949  1.00  0.00     0.280 HD
HETATM   19  C   UNL     1      20.415  45.880  46.360  1.00  0.00     0.236 C 
HETATM   20  C   UNL     1      19.906  44.453  46.389  1.00  0.00     0.029 C 
HETATM   21  C   UNL     1      21.144  43.654  46.737  1.00  0.00     0.029 C 
HETATM   22  C   UNL     1      21.792  44.490  47.824  1.00  0.00     0.236 C 
ENDBRANCH   1  17
BRANCH   1  23
HETATM   23  C   UNL     1      22.263  48.091  48.419  1.00  0.00    -0.015 A 
HETATM   24  C   UNL     1      23.616  48.025  48.884  1.00  0.00    -0.018 A 
HETATM   25  C   UNL     1      24.457  49.154  48.683  1.00  0.00    -0.025 A 
HETATM   26  C   UNL     1      24.196  46.910  49.543  1.00  0.00     0.013 A 
HETATM   27  C   UNL     1      25.789  49.141  49.125  1.00  0.00     0.012 A 
HETATM   28  C   UNL     1      23.968  50.298  48.043  1.00  0.00     0.012 A 
HETATM   29  C   UNL     1      26.322  48.027  49.764  1.00  0.00     0.001 A 
HETATM   30  C   UNL     1      25.526  46.911  49.973  1.00  0.00     0.001 A 
HETATM   31  C   UNL     1      22.661  50.352  47.584  1.00  0.00     0.002 A 
HETATM   32  C   UNL     1      21.820  49.259  47.760  1.00  0.00     0.010 A 
ENDBRANCH   1  23
TORSDOF 7
ENDMDL
MODEL 2
REMARK VINA RESULT:      -7.9      4.087      6.890
REMARK  7 active torsions:
REMARK  status: ('A' for Active; 'I' for Inactive)
REMARK    1  A    between atoms: O_2  and  C_3 
REMARK    2  A    between atoms: C_4  and  O_5 
REMARK    3  A    between atoms: C_7  and  C_8 
REMARK       I    between atoms: C_8  and  N_9 
REMARK    4  A    between atoms: N_9  and  C_10 
REMARK    5  A    between atoms: C_10  and  C_11 
REMARK    6  A    between atoms: C_11  and  N_12 
REMARK    7  A    between atoms: C_11  and  C_18 
ROOT
HETATM    1  C   UNL     1      25.130  46.757  50.879  1.00  0.00     0.239 C 
ENDROOT
BRANCH   1   2
HETATM    2  C   UNL     1      24.855  45.402  50.141  1.00  0.00     0.161 C 
BRANCH   2   3
HETATM    3  N   UNL     1      23.753  44.583  50.621  1.00  0.00    -0.354 N 
HETATM    4  C   UNL     1      22.717  44.010  49.919  1.00  0.00     0.254 C 
HETATM    5  O   UNL     1      22.018  43.169  50.469  1.00  0.00    -0.268 OA
HETATM    6  H   UNL     1      23.874  44.101  51.509  1.00  0.00     0.162 HD
BRANCH   4   7
HETATM    7  C   UNL     1      22.432  44.426  48.530  1.00  0.00     0.068 A 
HETATM    8  C   UNL     1      23.112  43.802  47.461  1.00  0.00     0.117 A 
HETATM    9  C   UNL     1      22.897  44.296  46.163  1.00  0.00     0.102 A 
HETATM   10  C   UNL     1      21.944  45.305  45.950  1.00  0.00     0.040 A 
HETATM   11  C   UNL     1      21.261  45.889  47.016  1.00  0.00     0.004 A 
HETATM   12  C   UNL     1      21.526  45.471  48.315  1.00  0.00     0.020 A 
BRANCH   8  13
HETATM   13  O   UNL     1      23.888  42.731  47.825  1.00  0.00    -0.352 OA
HETATM   14  C   UNL     1      23.404  41.410  47.642  1.00  0.00     0.210 C 
ENDBRANCH   8  13
BRANCH   9  15
HETATM   15  O   UNL     1      23.565  43.749  45.099  1.00  0.00    -0.353 OA
HETATM   16  C   UNL     1      23.552  44.562  43.921  1.00  0.00     0.210 C 
ENDBRANCH   9  15
ENDBRANCH   4   7
ENDBRANCH   2   3
ENDBRANCH   1   2
BRANCH   1  17
HETATM   17  N   UNL     1      26.132  46.654  52.029  1.00  0.00    -0.061 N 
HETATM   18  H   UNL     1      26.938  47.206  51.704  1.00  0.00     0.280 HD
HETATM   19  C   UNL     1      26.697  45.291  52.361  1.00  0.00     0.236 C 
HETATM   20  C   UNL     1      26.295  45.056  53.803  1.00  0.00     0.029 C 
HETATM   21  C   UNL     1      26.348  46.445  54.405  1.00  0.00     0.029 C 
HETATM   22  C   UNL     1      25.708  47.304  53.331  1.00  0.00     0.236 C 
ENDBRANCH   1  17
BRANCH   1  23
HETATM   23  C   UNL     1      25.537  47.888  49.927  1.00  0.00    -0.015 A 
HETATM   24  C   UNL     1      24.552  48.669  49.239  1.00  0.00    -0.018 A 
HETATM   25  C   UNL     1      24.994  49.715  48.383  1.00  0.00    -0.025 A 
HETATM   26  C   UNL     1      23.149  48.479  49.339  1.00  0.00     0.013 A 
HETATM   27  C   UNL     1      24.069  50.504  47.683  1.00  0.00     0.012 A 
HETATM   28  C   UNL     1      26.360  49.972  48.224  1.00  0.00     0.012 A 
HETATM   29  C   UNL     1      22.701  50.289  47.809  1.00  0.00     0.001 A 
HETATM   30  C   UNL     1      22.240  49.276  48.637  1.00  0.00     0.001 A 
HETATM   31  C   UNL     1      27.308  49.222  48.902  1.00  0.00     0.002 A 
HETATM   32  C   UNL     1      26.903  48.199  49.752  1.00  0.00     0.010 A 
ENDBRANCH   1  23
TORSDOF 7
ENDMDL
MODEL 3
REMARK VINA RESULT:      -7.9      2.667      5.320
REMARK  7 active torsions:
REMARK  status: ('A' for Active; 'I' for Inactive)
REMARK    1  A    between atoms: O_2  and  C_3 
REMARK    2  A    between atoms: C_4  and  O_5 
REMARK    3  A    between atoms: C_7  and  C_8 
REMARK       I    between atoms: C_8  and  N_9 
REMARK    4  A    between atoms: N_9  and  C_10 
REMARK    5  A    between atoms: C_10  and  C_11 
REMARK    6  A    between atoms: C_11  and  N_12 
REMARK    7  A    between atoms: C_11  and  C_18 
ROOT
HETATM    1  C   UNL     1      25.237  46.870  49.399  1.00  0.00     0.239 C 
ENDROOT
BRANCH   1   2
HETATM    2  C   UNL     1      23.680  46.868  49.578  1.00  0.00     0.161 C 
BRANCH   2   3
HETATM    3  N   UNL     1      22.866  46.578  48.407  1.00  0.00    -0.354 N 
HETATM    4  C   UNL     1      22.019  47.403  47.702  1.00  0.00     0.254 C 
HETATM    5  O   UNL     1      21.599  47.036  46.613  1.00  0.00    -0.268 OA
HETATM    6  H   UNL     1      23.138  45.789  47.825  1.00  0.00     0.162 HD
BRANCH   4   7
HETATM    7  C   UNL     1      21.597  48.702  48.266  1.00  0.00     0.068 A 
HETATM    8  C   UNL     1      20.472  48.760  49.118  1.00  0.00     0.117 A 
HETATM    9  C   UNL     1      20.034  50.024  49.549  1.00  0.00     0.102 A 
HETATM   10  C   UNL     1      20.777  51.169  49.219  1.00  0.00     0.040 A 
HETATM   11  C   UNL     1      21.902  51.088  48.400  1.00  0.00     0.004 A 
HETATM   12  C   UNL     1      22.298  49.855  47.895  1.00  0.00     0.020 A 
BRANCH   8  13
HETATM   13  O   UNL     1      19.956  47.539  49.468  1.00  0.00    -0.352 OA
HETATM   14  C   UNL     1      18.763  47.072  48.856  1.00  0.00     0.210 C 
ENDBRANCH   8  13
BRANCH   9  15
HETATM   15  O   UNL     1      18.924  50.134  50.343  1.00  0.00    -0.353 OA
HETATM   16  C   UNL     1      17.821  50.800  49.719  1.00  0.00     0.210 C 
ENDBRANCH   9  15
ENDBRANCH   4   7
ENDBRANCH   2   3
ENDBRANCH   1   2
BRANCH   1  17
HETATM   17  N   UNL     1      25.891  48.237  49.604  1.00  0.00    -0.061 N 
HETATM   18  H   UNL     1      25.797  48.405  50.615  1.00  0.00     0.280 HD
HETATM   19  C   UNL     1      25.252  49.438  48.944  1.00  0.00     0.236 C 
HETATM   20  C   UNL     1      26.334  49.992  48.039  1.00  0.00     0.029 C 
HETATM   21  C   UNL     1      27.606  49.709  48.811  1.00  0.00     0.029 C 
HETATM   22  C   UNL     1      27.380  48.301  49.329  1.00  0.00     0.236 C 
ENDBRANCH   1  17
BRANCH   1  23
HETATM   23  C   UNL     1      25.942  45.815  50.261  1.00  0.00    -0.015 A 
HETATM   24  C   UNL     1      26.091  45.991  51.675  1.00  0.00    -0.018 A 
HETATM   25  C   UNL     1      26.740  44.968  52.420  1.00  0.00    -0.025 A 
HETATM   26  C   UNL     1      25.640  47.121  52.406  1.00  0.00     0.013 A 
HETATM   27  C   UNL     1      26.914  45.094  53.806  1.00  0.00     0.012 A 
HETATM   28  C   UNL     1      27.217  43.818  51.780  1.00  0.00     0.012 A 
HETATM   29  C   UNL     1      26.456  46.217  54.487  1.00  0.00     0.001 A 
HETATM   30  C   UNL     1      25.819  47.230  53.788  1.00  0.00     0.001 A 
HETATM   31  C   UNL     1      27.059  43.648  50.413  1.00  0.00     0.002 A 
HETATM   32  C   UNL     1      26.421  44.629  49.662  1.00  0.00     0.010 A 
ENDBRANCH   1  23
TORSDOF 7
ENDMDL
MODEL 4
REMARK VINA RESULT:      -7.9     12.223     14.643
REMARK  7 active torsions:
REMARK  status: ('A' for Active; 'I' for Inactive)
REMARK    1  A    between atoms: O_2  and  C_3 
REMARK    2  A    between atoms: C_4  and  O_5 
REMARK    3  A    between atoms: C_7  and  C_8 
REMARK       I    between atoms: C_8  and  N_9 
REMARK    4  A    between atoms: N_9  and  C_10 
REMARK    5  A    between atoms: C_10  and  C_11 
REMARK    6  A    between atoms: C_11  and  N_12 
REMARK    7  A    between atoms: C_11  and  C_18 
ROOT
HETATM    1  C   UNL     1      29.801  50.010  39.984  1.00  0.00     0.239 C 
ENDROOT
BRANCH   1   2
HETATM    2  C   UNL     1      31.181  49.733  39.294  1.00  0.00     0.161 C 
BRANCH   2   3
HETATM    3  N   UNL     1      31.964  48.605  39.777  1.00  0.00    -0.354 N 
HETATM    4  C   UNL     1      32.607  48.438  40.982  1.00  0.00     0.254 C 
HETATM    5  O   UNL     1      33.022  47.328  41.287  1.00  0.00    -0.268 OA
HETATM    6  H   UNL     1      31.803  47.698  39.345  1.00  0.00     0.162 HD
BRANCH   4   7
HETATM    7  C   UNL     1      32.823  49.590  41.883  1.00  0.00     0.068 A 
HETATM    8  C   UNL     1      33.921  50.451  41.664  1.00  0.00     0.117 A 
HETATM    9  C   UNL     1      34.158  51.470  42.602  1.00  0.00     0.102 A 
HETATM   10  C   UNL     1      33.252  51.674  43.655  1.00  0.00     0.040 A 
HETATM   11  C   UNL     1      32.157  50.831  43.838  1.00  0.00     0.004 A 
HETATM   12  C   UNL     1      31.957  49.765  42.968  1.00  0.00     0.020 A 
BRANCH   8  13
HETATM   13  O   UNL     1      34.616  50.209  40.506  1.00  0.00    -0.352 OA
HETATM   14  C   UNL     1      34.674  51.201  39.493  1.00  0.00     0.210 C 
ENDBRANCH   8  13
BRANCH   9  15
HETATM   15  O   UNL     1      35.234  52.305  42.454  1.00  0.00    -0.353 OA
HETATM   16  C   UNL     1      36.419  51.856  43.119  1.00  0.00     0.210 C 
ENDBRANCH   9  15
ENDBRANCH   4   7
ENDBRANCH   2   3
ENDBRANCH   1   2
BRANCH   1  17
HETATM   17  N   UNL     1      29.558  51.478  40.334  1.00  0.00    -0.061 N 
HETATM   18  H   UNL     1      28.699  51.714  39.820  1.00  0.00     0.280 HD
HETATM   19  C   UNL     1      30.580  52.497  39.882  1.00  0.00     0.236 C 
HETATM   20  C   UNL     1      31.063  53.143  41.165  1.00  0.00     0.029 C 
HETATM   21  C   UNL     1      29.826  53.140  42.038  1.00  0.00     0.029 C 
HETATM   22  C   UNL     1      29.239  51.763  41.789  1.00  0.00     0.236 C 
ENDBRANCH   1  17
BRANCH   1  23
HETATM   23  C   UNL     1      28.611  49.453  39.195  1.00  0.00    -0.015 A 
HETATM   24  C   UNL     1      28.251  48.068  39.273  1.00  0.00    -0.018 A 
HETATM   25  C   UNL     1      27.126  47.618  38.529  1.00  0.00    -0.025 A 
HETATM   26  C   UNL     1      28.938  47.092  40.041  1.00  0.00     0.013 A 
HETATM   27  C   UNL     1      26.736  46.271  38.568  1.00  0.00     0.012 A 
HETATM   28  C   UNL     1      26.391  48.513  37.744  1.00  0.00     0.012 A 
HETATM   29  C   UNL     1      27.433  45.344  39.336  1.00  0.00     0.001 A 
HETATM   30  C   UNL     1      28.534  45.754  40.072  1.00  0.00     0.001 A 
HETATM   31  C   UNL     1      26.736  49.853  37.682  1.00  0.00     0.002 A 
HETATM   32  C   UNL     1      27.827  50.322  38.406  1.00  0.00     0.010 A 
ENDBRANCH   1  23
TORSDOF 7
ENDMDL
MODEL 5
REMARK VINA RESULT:      -7.7      4.760      8.672
REMARK  7 active torsions:
REMARK  status: ('A' for Active; 'I' for Inactive)
REMARK    1  A    between atoms: O_2  and  C_3 
REMARK    2  A    between atoms: C_4  and  O_5 
REMARK    3  A    between atoms: C_7  and  C_8 
REMARK       I    between atoms: C_8  and  N_9 
REMARK    4  A    between atoms: N_9  and  C_10 
REMARK    5  A    between atoms: C_10  and  C_11 
REMARK    6  A    between atoms: C_11  and  N_12 
REMARK    7  A    between atoms: C_11  and  C_18 
ROOT
HETATM    1  C   UNL     1      25.177  46.617  50.636  1.00  0.00     0.239 C 
ENDROOT
BRANCH   1   2
HETATM    2  C   UNL     1      25.027  45.299  49.801  1.00  0.00     0.161 C 
BRANCH   2   3
HETATM    3  N   UNL     1      23.848  44.480  50.037  1.00  0.00    -0.354 N 
HETATM    4  C   UNL     1      23.748  43.119  50.215  1.00  0.00     0.254 C 
HETATM    5  O   UNL     1      22.696  42.647  50.626  1.00  0.00    -0.268 OA
HETATM    6  H   UNL     1      23.023  44.937  50.418  1.00  0.00     0.162 HD
BRANCH   4   7
HETATM    7  C   UNL     1      24.885  42.234  49.885  1.00  0.00     0.068 A 
HETATM    8  C   UNL     1      25.096  41.839  48.545  1.00  0.00     0.117 A 
HETATM    9  C   UNL     1      26.119  40.912  48.283  1.00  0.00     0.102 A 
HETATM   10  C   UNL     1      26.964  40.493  49.323  1.00  0.00     0.040 A 
HETATM   11  C   UNL     1      26.758  40.918  50.635  1.00  0.00     0.004 A 
HETATM   12  C   UNL     1      25.696  41.767  50.925  1.00  0.00     0.020 A 
BRANCH   8  13
HETATM   13  O   UNL     1      24.282  42.459  47.631  1.00  0.00    -0.352 OA
HETATM   14  C   UNL     1      23.203  41.747  47.046  1.00  0.00     0.210 C 
ENDBRANCH   8  13
BRANCH   9  15
HETATM   15  O   UNL     1      26.335  40.468  47.005  1.00  0.00    -0.353 OA
HETATM   16  C   UNL     1      27.581  40.892  46.441  1.00  0.00     0.210 C 
ENDBRANCH   9  15
ENDBRANCH   4   7
ENDBRANCH   2   3
ENDBRANCH   1   2
BRANCH   1  17
HETATM   17  N   UNL     1      26.135  46.502  51.822  1.00  0.00    -0.061 N 
HETATM   18  H   UNL     1      26.966  47.029  51.519  1.00  0.00     0.280 HD
HETATM   19  C   UNL     1      26.652  45.130  52.190  1.00  0.00     0.236 C 
HETATM   20  C   UNL     1      26.194  44.924  53.620  1.00  0.00     0.029 C 
HETATM   21  C   UNL     1      26.263  46.318  54.207  1.00  0.00     0.029 C 
HETATM   22  C   UNL     1      25.683  47.180  53.101  1.00  0.00     0.236 C 
ENDBRANCH   1  17
BRANCH   1  23
HETATM   23  C   UNL     1      25.544  47.834  49.779  1.00  0.00    -0.015 A 
HETATM   24  C   UNL     1      24.532  48.636  49.158  1.00  0.00    -0.018 A 
HETATM   25  C   UNL     1      24.937  49.762  48.389  1.00  0.00    -0.025 A 
HETATM   26  C   UNL     1      23.136  48.394  49.245  1.00  0.00     0.013 A 
HETATM   27  C   UNL     1      23.985  50.576  47.758  1.00  0.00     0.012 A 
HETATM   28  C   UNL     1      26.294  50.074  48.250  1.00  0.00     0.012 A 
HETATM   29  C   UNL     1      22.625  50.308  47.869  1.00  0.00     0.001 A 
HETATM   30  C   UNL     1      22.200  49.217  48.612  1.00  0.00     0.001 A 
HETATM   31  C   UNL     1      27.268  49.302  48.863  1.00  0.00     0.002 A 
HETATM   32  C   UNL     1      26.899  48.200  49.627  1.00  0.00     0.010 A 
ENDBRANCH   1  23
TORSDOF 7
ENDMDL
MODEL 6
REMARK VINA RESULT:      -7.7      5.858      9.643
REMARK  7 active torsions:
REMARK  status: ('A' for Active; 'I' for Inactive)
REMARK    1  A    between atoms: O_2  and  C_3 
REMARK    2  A    between atoms: C_4  and  O_5 
REMARK    3  A    between atoms: C_7  and  C_8 
REMARK       I    between atoms: C_8  and  N_9 
REMARK    4  A    between atoms: N_9  and  C_10 
REMARK    5  A    between atoms: C_10  and  C_11 
REMARK    6  A    between atoms: C_11  and  N_12 
REMARK    7  A    between atoms: C_11  and  C_18 
ROOT
HETATM    1  C   UNL     1      25.839  46.890  50.560  1.00  0.00     0.239 C 
ENDROOT
BRANCH   1   2
HETATM    2  C   UNL     1      26.679  47.318  51.812  1.00  0.00     0.161 C 
BRANCH   2   3
HETATM    3  N   UNL     1      25.965  47.554  53.057  1.00  0.00    -0.354 N 
HETATM    4  C   UNL     1      26.319  47.225  54.346  1.00  0.00     0.254 C 
HETATM    5  O   UNL     1      25.691  47.710  55.279  1.00  0.00    -0.268 OA
HETATM    6  H   UNL     1      25.272  48.299  53.072  1.00  0.00     0.162 HD
BRANCH   4   7
HETATM    7  C   UNL     1      27.421  46.274  54.602  1.00  0.00     0.068 A 
HETATM    8  C   UNL     1      27.237  44.901  54.323  1.00  0.00     0.117 A 
HETATM    9  C   UNL     1      28.265  44.012  54.679  1.00  0.00     0.102 A 
HETATM   10  C   UNL     1      29.474  44.511  55.191  1.00  0.00     0.040 A 
HETATM   11  C   UNL     1      29.647  45.874  55.431  1.00  0.00     0.004 A 
HETATM   12  C   UNL     1      28.607  46.757  55.165  1.00  0.00     0.020 A 
BRANCH   8  13
HETATM   13  O   UNL     1      26.063  44.600  53.682  1.00  0.00    -0.352 OA
HETATM   14  C   UNL     1      24.937  44.169  54.431  1.00  0.00     0.210 C 
ENDBRANCH   8  13
BRANCH   9  15
HETATM   15  O   UNL     1      28.116  42.667  54.467  1.00  0.00    -0.353 OA
HETATM   16  C   UNL     1      28.987  42.133  53.464  1.00  0.00     0.210 C 
ENDBRANCH   9  15
ENDBRANCH   4   7
ENDBRANCH   2   3
ENDBRANCH   1   2
BRANCH   1  17
HETATM   17  N   UNL     1      26.148  47.689  49.294  1.00  0.00    -0.061 N 
HETATM   18  H   UNL     1      25.917  47.038  48.531  1.00  0.00     0.280 HD
HETATM   19  C   UNL     1      27.581  48.099  49.041  1.00  0.00     0.236 C 
HETATM   20  C   UNL     1      27.534  49.612  48.974  1.00  0.00     0.029 C 
HETATM   21  C   UNL     1      26.186  49.887  48.343  1.00  0.00     0.029 C 
HETATM   22  C   UNL     1      25.274  48.904  49.054  1.00  0.00     0.236 C 
ENDBRANCH   1  17
BRANCH   1  23
HETATM   23  C   UNL     1      25.920  45.387  50.268  1.00  0.00    -0.015 A 
HETATM   24  C   UNL     1      24.809  44.681  49.702  1.00  0.00    -0.018 A 
HETATM   25  C   UNL     1      24.954  43.291  49.439  1.00  0.00    -0.025 A 
HETATM   26  C   UNL     1      23.554  45.262  49.381  1.00  0.00     0.013 A 
HETATM   27  C   UNL     1      23.894  42.553  48.890  1.00  0.00     0.012 A 
HETATM   28  C   UNL     1      26.156  42.636  49.726  1.00  0.00     0.012 A 
HETATM   29  C   UNL     1      22.679  43.160  48.586  1.00  0.00     0.001 A 
HETATM   30  C   UNL     1      22.510  44.513  48.832  1.00  0.00     0.001 A 
HETATM   31  C   UNL     1      27.232  43.327  50.261  1.00  0.00     0.002 A 
HETATM   32  C   UNL     1      27.120  44.688  50.521  1.00  0.00     0.010 A 
ENDBRANCH   1  23
TORSDOF 7
ENDMDL
MODEL 7
REMARK VINA RESULT:      -7.6      2.616      5.541
REMARK  7 active torsions:
REMARK  status: ('A' for Active; 'I' for Inactive)
REMARK    1  A    between atoms: O_2  and  C_3 
REMARK    2  A    between atoms: C_4  and  O_5 
REMARK    3  A    between atoms: C_7  and  C_8 
REMARK       I    between atoms: C_8  and  N_9 
REMARK    4  A    between atoms: N_9  and  C_10 
REMARK    5  A    between atoms: C_10  and  C_11 
REMARK    6  A    between atoms: C_11  and  N_12 
REMARK    7  A    between atoms: C_11  and  C_18 
ROOT
HETATM    1  C   UNL     1      20.114  48.853  49.028  1.00  0.00     0.239 C 
ENDROOT
BRANCH   1   2
HETATM    2  C   UNL     1      19.836  47.764  47.936  1.00  0.00     0.161 C 
BRANCH   2   3
HETATM    3  N   UNL     1      19.063  46.595  48.330  1.00  0.00    -0.354 N 
HETATM    4  C   UNL     1      17.750  46.282  48.060  1.00  0.00     0.254 C 
HETATM    5  O   UNL     1      17.350  45.147  48.286  1.00  0.00    -0.268 OA
HETATM    6  H   UNL     1      19.574  45.750  48.573  1.00  0.00     0.162 HD
BRANCH   4   7
HETATM    7  C   UNL     1      16.827  47.309  47.533  1.00  0.00     0.068 A 
HETATM    8  C   UNL     1      16.642  47.432  46.139  1.00  0.00     0.117 A 
HETATM    9  C   UNL     1      15.842  48.488  45.670  1.00  0.00     0.102 A 
HETATM   10  C   UNL     1      15.167  49.312  46.585  1.00  0.00     0.040 A 
HETATM   11  C   UNL     1      15.339  49.156  47.959  1.00  0.00     0.004 A 
HETATM   12  C   UNL     1      16.196  48.171  48.437  1.00  0.00     0.020 A 
BRANCH   8  13
HETATM   13  O   UNL     1      17.248  46.454  45.393  1.00  0.00    -0.352 OA
HETATM   14  C   UNL     1      18.387  46.766  44.605  1.00  0.00     0.210 C 
ENDBRANCH   8  13
BRANCH   9  15
HETATM   15  O   UNL     1      15.667  48.674  44.323  1.00  0.00    -0.353 OA
HETATM   16  C   UNL     1      14.871  49.815  43.989  1.00  0.00     0.210 C 
ENDBRANCH   9  15
ENDBRANCH   4   7
ENDBRANCH   2   3
ENDBRANCH   1   2
BRANCH   1  17
HETATM   17  N   UNL     1      21.577  49.285  49.125  1.00  0.00    -0.061 N 
HETATM   18  H   UNL     1      21.957  48.697  49.880  1.00  0.00     0.280 HD
HETATM   19  C   UNL     1      21.875  50.707  49.546  1.00  0.00     0.236 C 
HETATM   20  C   UNL     1      22.655  51.289  48.385  1.00  0.00     0.029 C 
HETATM   21  C   UNL     1      23.449  50.105  47.876  1.00  0.00     0.029 C 
HETATM   22  C   UNL     1      22.436  48.976  47.915  1.00  0.00     0.236 C 
ENDBRANCH   1  17
BRANCH   1  23
HETATM   23  C   UNL     1      19.210  50.084  48.893  1.00  0.00    -0.015 A 
HETATM   24  C   UNL     1      18.798  50.565  47.608  1.00  0.00    -0.018 A 
HETATM   25  C   UNL     1      17.945  51.702  47.552  1.00  0.00    -0.025 A 
HETATM   26  C   UNL     1      19.179  49.995  46.366  1.00  0.00     0.013 A 
HETATM   27  C   UNL     1      17.518  52.215  46.318  1.00  0.00     0.012 A 
HETATM   28  C   UNL     1      17.520  52.329  48.729  1.00  0.00     0.012 A 
HETATM   29  C   UNL     1      17.911  51.625  45.121  1.00  0.00     0.001 A 
HETATM   30  C   UNL     1      18.742  50.516  45.145  1.00  0.00     0.001 A 
HETATM   31  C   UNL     1      17.912  51.851  49.969  1.00  0.00     0.002 A 
HETATM   32  C   UNL     1      18.739  50.737  50.053  1.00  0.00     0.010 A 
ENDBRANCH   1  23
TORSDOF 7
ENDMDL
MODEL 8
REMARK VINA RESULT:      -7.5      5.666      9.498
REMARK  7 active torsions:
REMARK  status: ('A' for Active; 'I' for Inactive)
REMARK    1  A    between atoms: O_2  and  C_3 
REMARK    2  A    between atoms: C_4  and  O_5 
REMARK    3  A    between atoms: C_7  and  C_8 
REMARK       I    between atoms: C_8  and  N_9 
REMARK    4  A    between atoms: N_9  and  C_10 
REMARK    5  A    between atoms: C_10  and  C_11 
REMARK    6  A    between atoms: C_11  and  N_12 
REMARK    7  A    between atoms: C_11  and  C_18 
ROOT
HETATM    1  C   UNL     1      26.491  45.652  50.534  1.00  0.00     0.239 C 
ENDROOT
BRANCH   1   2
HETATM    2  C   UNL     1      25.687  44.788  49.503  1.00  0.00     0.161 C 
BRANCH   2   3
HETATM    3  N   UNL     1      24.427  44.208  49.943  1.00  0.00    -0.354 N 
HETATM    4  C   UNL     1      24.138  42.911  50.300  1.00  0.00     0.254 C 
HETATM    5  O   UNL     1      23.076  42.669  50.859  1.00  0.00    -0.268 OA
HETATM    6  H   UNL     1      23.729  44.835  50.335  1.00  0.00     0.162 HD
BRANCH   4   7
HETATM    7  C   UNL     1      25.081  41.818  49.986  1.00  0.00     0.068 A 
HETATM    8  C   UNL     1      25.009  41.173  48.731  1.00  0.00     0.117 A 
HETATM    9  C   UNL     1      25.848  40.068  48.508  1.00  0.00     0.102 A 
HETATM   10  C   UNL     1      26.800  39.707  49.475  1.00  0.00     0.040 A 
HETATM   11  C   UNL     1      26.875  40.375  50.697  1.00  0.00     0.004 A 
HETATM   12  C   UNL     1      25.994  41.415  50.968  1.00  0.00     0.020 A 
BRANCH   8  13
HETATM   13  O   UNL     1      24.136  41.746  47.843  1.00  0.00    -0.352 OA
HETATM   14  C   UNL     1      22.896  41.116  47.562  1.00  0.00     0.210 C 
ENDBRANCH   8  13
BRANCH   9  15
HETATM   15  O   UNL     1      25.786  39.385  47.321  1.00  0.00    -0.353 OA
HETATM   16  C   UNL     1      26.865  39.669  46.425  1.00  0.00     0.210 C 
ENDBRANCH   9  15
ENDBRANCH   4   7
ENDBRANCH   2   3
ENDBRANCH   1   2
BRANCH   1  17
HETATM   17  N   UNL     1      26.146  47.141  50.509  1.00  0.00    -0.061 N 
HETATM   18  H   UNL     1      26.421  47.473  51.444  1.00  0.00     0.280 HD
HETATM   19  C   UNL     1      24.694  47.535  50.362  1.00  0.00     0.236 C 
HETATM   20  C   UNL     1      24.653  48.363  49.093  1.00  0.00     0.029 C 
HETATM   21  C   UNL     1      25.989  49.076  49.106  1.00  0.00     0.029 C 
HETATM   22  C   UNL     1      26.951  47.986  49.539  1.00  0.00     0.236 C 
ENDBRANCH   1  17
BRANCH   1  23
HETATM   23  C   UNL     1      26.401  45.115  51.967  1.00  0.00    -0.015 A 
HETATM   24  C   UNL     1      27.407  44.244  52.498  1.00  0.00    -0.018 A 
HETATM   25  C   UNL     1      27.274  43.794  53.841  1.00  0.00    -0.025 A 
HETATM   26  C   UNL     1      28.542  43.782  51.782  1.00  0.00     0.013 A 
HETATM   27  C   UNL     1      28.229  42.936  54.405  1.00  0.00     0.012 A 
HETATM   28  C   UNL     1      26.184  44.200  54.620  1.00  0.00     0.012 A 
HETATM   29  C   UNL     1      29.330  42.507  53.672  1.00  0.00     0.001 A 
HETATM   30  C   UNL     1      29.487  42.929  52.361  1.00  0.00     0.001 A 
HETATM   31  C   UNL     1      25.221  45.053  54.105  1.00  0.00     0.002 A 
HETATM   32  C   UNL     1      25.331  45.514  52.798  1.00  0.00     0.010 A 
ENDBRANCH   1  23
TORSDOF 7
ENDMDL
MODEL 9
REMARK VINA RESULT:      -7.4     10.461     12.831
REMARK  7 active torsions:
REMARK  status: ('A' for Active; 'I' for Inactive)
REMARK    1  A    between atoms: O_2  and  C_3 
REMARK    2  A    between atoms: C_4  and  O_5 
REMARK    3  A    between atoms: C_7  and  C_8 
REMARK       I    between atoms: C_8  and  N_9 
REMARK    4  A    between atoms: N_9  and  C_10 
REMARK    5  A    between atoms: C_10  and  C_11 
REMARK    6  A    between atoms: C_11  and  N_12 
REMARK    7  A    between atoms: C_11  and  C_18 
ROOT
HETATM    1  C   UNL     1      26.550  49.378  38.590  1.00  0.00     0.239 C 
ENDROOT
BRANCH   1   2
HETATM    2  C   UNL     1      27.363  50.712  38.466  1.00  0.00     0.161 C 
BRANCH   2   3
HETATM    3  N   UNL     1      27.275  51.661  39.566  1.00  0.00    -0.354 N 
HETATM    4  C   UNL     1      28.056  51.769  40.694  1.00  0.00     0.254 C 
HETATM    5  O   UNL     1      27.965  52.774  41.387  1.00  0.00    -0.268 OA
HETATM    6  H   UNL     1      26.799  52.543  39.392  1.00  0.00     0.162 HD
BRANCH   4   7
HETATM    7  C   UNL     1      28.970  50.675  41.081  1.00  0.00     0.068 A 
HETATM    8  C   UNL     1      30.293  50.662  40.586  1.00  0.00     0.117 A 
HETATM    9  C   UNL     1      31.100  49.551  40.886  1.00  0.00     0.102 A 
HETATM   10  C   UNL     1      30.619  48.552  41.747  1.00  0.00     0.040 A 
HETATM   11  C   UNL     1      29.320  48.597  42.250  1.00  0.00     0.004 A 
HETATM   12  C   UNL     1      28.480  49.645  41.892  1.00  0.00     0.020 A 
BRANCH   8  13
HETATM   13  O   UNL     1      30.653  51.787  39.889  1.00  0.00    -0.352 OA
HETATM   14  C   UNL     1      31.471  52.770  40.503  1.00  0.00     0.210 C 
ENDBRANCH   8  13
BRANCH   9  15
HETATM   15  O   UNL     1      32.376  49.475  40.394  1.00  0.00    -0.353 OA
HETATM   16  C   UNL     1      33.394  49.511  41.400  1.00  0.00     0.210 C 
ENDBRANCH   9  15
ENDBRANCH   4   7
ENDBRANCH   2   3
ENDBRANCH   1   2
BRANCH   1  17
HETATM   17  N   UNL     1      25.656  49.074  37.387  1.00  0.00    -0.061 N 
HETATM   18  H   UNL     1      25.767  49.901  36.783  1.00  0.00     0.280 HD
HETATM   19  C   UNL     1      24.167  48.952  37.618  1.00  0.00     0.236 C 
HETATM   20  C   UNL     1      23.827  47.548  37.161  1.00  0.00     0.029 C 
HETATM   21  C   UNL     1      24.782  47.321  36.008  1.00  0.00     0.029 C 
HETATM   22  C   UNL     1      26.085  47.899  36.529  1.00  0.00     0.236 C 
ENDBRANCH   1  17
BRANCH   1  23
HETATM   23  C   UNL     1      27.430  48.165  38.912  1.00  0.00    -0.015 A 
HETATM   24  C   UNL     1      26.966  47.120  39.775  1.00  0.00    -0.018 A 
HETATM   25  C   UNL     1      27.824  46.013  40.020  1.00  0.00    -0.025 A 
HETATM   26  C   UNL     1      25.701  47.099  40.419  1.00  0.00     0.013 A 
HETATM   27  C   UNL     1      27.419  44.966  40.862  1.00  0.00     0.012 A 
HETATM   28  C   UNL     1      29.090  45.952  39.427  1.00  0.00     0.012 A 
HETATM   29  C   UNL     1      26.169  44.980  41.473  1.00  0.00     0.001 A 
HETATM   30  C   UNL     1      25.311  46.046  41.252  1.00  0.00     0.001 A 
HETATM   31  C   UNL     1      29.529  46.960  38.583  1.00  0.00     0.002 A 
HETATM   32  C   UNL     1      28.706  48.049  38.319  1.00  0.00     0.010 A 
ENDBRANCH   1  23
TORSDOF 7
ENDMDL
MODEL 10
REMARK VINA RESULT:      -7.4     10.683     13.153
REMARK  7 active torsions:
REMARK  status: ('A' for Active; 'I' for Inactive)
REMARK    1  A    between atoms: O_2  and  C_3 
REMARK    2  A    between atoms: C_4  and  O_5 
REMARK    3  A    between atoms: C_7  and  C_8 
REMARK       I    between atoms: C_8  and  N_9 
REMARK    4  A    between atoms: N_9  and  C_10 
REMARK    5  A    between atoms: C_10  and  C_11 
REMARK    6  A    between atoms: C_11  and  N_12 
REMARK    7  A    between atoms: C_11  and  C_18 
ROOT
HETATM    1  C   UNL     1      31.244  50.887  41.497  1.00  0.00     0.239 C 
ENDROOT
BRANCH   1   2
HETATM    2  C   UNL     1      30.368  49.699  42.021  1.00  0.00     0.161 C 
BRANCH   2   3
HETATM    3  N   UNL     1      30.566  48.392  41.412  1.00  0.00    -0.354 N 
HETATM    4  C   UNL     1      29.948  47.834  40.316  1.00  0.00     0.254 C 
HETATM    5  O   UNL     1      30.414  46.815  39.825  1.00  0.00    -0.268 OA
HETATM    6  H   UNL     1      31.448  47.918  41.587  1.00  0.00     0.162 HD
BRANCH   4   7
HETATM    7  C   UNL     1      28.720  48.439  39.758  1.00  0.00     0.068 A 
HETATM    8  C   UNL     1      27.461  48.073  40.282  1.00  0.00     0.117 A 
HETATM    9  C   UNL     1      26.311  48.584  39.656  1.00  0.00     0.102 A 
HETATM   10  C   UNL     1      26.440  49.518  38.616  1.00  0.00     0.040 A 
HETATM   11  C   UNL     1      27.693  49.890  38.131  1.00  0.00     0.004 A 
HETATM   12  C   UNL     1      28.838  49.327  38.682  1.00  0.00     0.020 A 
BRANCH   8  13
HETATM   13  O   UNL     1      27.516  47.274  41.395  1.00  0.00    -0.352 OA
HETATM   14  C   UNL     1      27.101  45.919  41.317  1.00  0.00     0.210 C 
ENDBRANCH   8  13
BRANCH   9  15
HETATM   15  O   UNL     1      25.067  48.224  40.103  1.00  0.00    -0.353 OA
HETATM   16  C   UNL     1      24.355  47.355  39.215  1.00  0.00     0.210 C 
ENDBRANCH   9  15
ENDBRANCH   4   7
ENDBRANCH   2   3
ENDBRANCH   1   2
BRANCH   1  17
HETATM   17  N   UNL     1      30.450  52.144  41.139  1.00  0.00    -0.061 N 
HETATM   18  H   UNL     1      31.022  52.912  41.518  1.00  0.00     0.280 HD
HETATM   19  C   UNL     1      29.085  52.325  41.763  1.00  0.00     0.236 C 
HETATM   20  C   UNL     1      28.138  52.409  40.583  1.00  0.00     0.029 C 
HETATM   21  C   UNL     1      28.966  53.112  39.528  1.00  0.00     0.029 C 
HETATM   22  C   UNL     1      30.320  52.441  39.658  1.00  0.00     0.236 C 
ENDBRANCH   1  17
BRANCH   1  23
HETATM   23  C   UNL     1      32.399  51.245  42.440  1.00  0.00    -0.015 A 
HETATM   24  C   UNL     1      33.763  51.155  42.011  1.00  0.00    -0.018 A 
HETATM   25  C   UNL     1      34.787  51.518  42.929  1.00  0.00    -0.025 A 
HETATM   26  C   UNL     1      34.184  50.725  40.726  1.00  0.00     0.013 A 
HETATM   27  C   UNL     1      36.138  51.443  42.559  1.00  0.00     0.012 A 
HETATM   28  C   UNL     1      34.462  51.953  44.218  1.00  0.00     0.012 A 
HETATM   29  C   UNL     1      36.511  51.018  41.288  1.00  0.00     0.001 A 
HETATM   30  C   UNL     1      35.535  50.659  40.371  1.00  0.00     0.001 A 
HETATM   31  C   UNL     1      33.140  52.050  44.624  1.00  0.00     0.002 A 
HETATM   32  C   UNL     1      32.119  51.710  43.744  1.00  0.00     0.010 A 
ENDBRANCH   1  23
TORSDOF 7
ENDMDL
