MODEL 1
REMARK VINA RESULT:     -10.1      0.000      0.000
REMARK  8 active torsions:
REMARK  status: ('A' for Active; 'I' for Inactive)
REMARK       I    between atoms: N_2  and  C_3 
REMARK    1  A    between atoms: N_2  and  C_29 
REMARK    2  A    between atoms: C_3  and  C_4 
REMARK    3  A    between atoms: C_7  and  C_8 
REMARK       I    between atoms: C_8  and  N_9 
REMARK    4  A    between atoms: N_9  and  C_10 
REMARK    5  A    between atoms: N_20  and  C_21 
REMARK    6  A    between atoms: C_21  and  C_22 
REMARK    7  A    between atoms: C_29  and  C_30 
REMARK    8  A    between atoms: C_30  and  C_31 
ROOT
HETATM    1  C   UNL     1      25.084  42.847  50.937  1.00  0.00     0.098 C 
HETATM    2  C   UNL     1      26.013  43.291  52.003  1.00  0.00     0.206 C 
HETATM    3  O   UNL     1      25.708  44.182  52.794  1.00  0.00    -0.286 OA
HETATM    4  C   UNL     1      27.343  42.616  52.085  1.00  0.00     0.098 C 
HETATM    5  C   UNL     1      27.475  41.464  51.403  1.00  0.00     0.111 C 
HETATM    6  N   UNL     1      26.485  40.902  50.602  1.00  0.00    -0.362 N 
HETATM    7  C   UNL     1      25.346  41.661  50.362  1.00  0.00     0.111 C 
ENDROOT
BRANCH   1   8
HETATM    8  C   UNL     1      23.853  43.546  50.500  1.00  0.00     0.258 C 
HETATM    9  N   UNL     1      23.962  44.735  49.786  1.00  0.00    -0.352 N 
HETATM   10  C   UNL     1      22.746  45.307  49.223  1.00  0.00     0.152 C 
HETATM   11  O   UNL     1      22.771  42.978  50.674  1.00  0.00    -0.267 OA
BRANCH   9  12
HETATM   12  C   UNL     1      25.185  45.525  49.566  1.00  0.00     0.131 C 
BRANCH  12  13
HETATM   13  C   UNL     1      25.317  46.739  50.489  1.00  0.00     0.079 C 
BRANCH  13  14
HETATM   14  C   UNL     1      25.759  47.953  49.710  1.00  0.00     0.035 A 
HETATM   15  N   UNL     1      24.784  48.719  49.163  1.00  0.00    -0.266 NA
HETATM   16  C   UNL     1      25.164  49.818  48.472  1.00  0.00     0.117 A 
HETATM   17  C   UNL     1      26.482  50.191  48.285  1.00  0.00     0.019 A 
HETATM   18  C   UNL     1      27.473  49.388  48.836  1.00  0.00     0.003 A 
HETATM   19  C   UNL     1      27.111  48.253  49.560  1.00  0.00     0.027 A 
ENDBRANCH  13  14
ENDBRANCH  12  13
ENDBRANCH   9  12
ENDBRANCH   1   8
BRANCH   4  20
HETATM   20  C   UNL     1      28.503  43.149  52.856  1.00  0.00     0.257 C 
HETATM   21  N   UNL     1      28.264  43.332  54.196  1.00  0.00    -0.352 N 
HETATM   22  H   UNL     1      27.370  43.005  54.565  1.00  0.00     0.163 HD
HETATM   23  O   UNL     1      29.562  43.436  52.309  1.00  0.00    -0.267 OA
BRANCH  21  24
HETATM   24  C   UNL     1      29.184  43.945  55.157  1.00  0.00     0.084 C 
HETATM   25  C   UNL     1      30.584  43.331  55.039  1.00  0.00     0.025 C 
HETATM   26  C   UNL     1      31.589  43.668  56.143  1.00  0.00     0.002 C 
HETATM   27  C   UNL     1      31.040  43.617  57.571  1.00  0.00     0.000 C 
HETATM   28  C   UNL     1      30.732  44.983  58.189  1.00  0.00     0.000 C 
HETATM   29  C   UNL     1      29.566  45.774  57.592  1.00  0.00     0.000 C 
HETATM   30  C   UNL     1      29.802  46.282  56.170  1.00  0.00     0.002 C 
HETATM   31  C   UNL     1      29.118  45.475  55.065  1.00  0.00     0.025 C 
ENDBRANCH  21  24
ENDBRANCH   4  20
BRANCH   6  32
HETATM   32  C   UNL     1      26.631  39.537  50.044  1.00  0.00     0.159 C 
BRANCH  32  33
HETATM   33  C   UNL     1      27.136  39.495  48.596  1.00  0.00     0.139 C 
HETATM   34  O   UNL     1      28.257  40.373  48.378  1.00  0.00    -0.384 OA
HETATM   35  C   UNL     1      28.189  40.855  47.027  1.00  0.00     0.168 C 
HETATM   36  C   UNL     1      27.045  40.127  46.349  1.00  0.00     0.029 C 
HETATM   37  C   UNL     1      26.128  39.830  47.510  1.00  0.00     0.035 C 
ENDBRANCH  32  33
ENDBRANCH   6  32
TORSDOF 8
ENDMDL
MODEL 2
REMARK VINA RESULT:      -9.9      3.396      5.712
REMARK  8 active torsions:
REMARK  status: ('A' for Active; 'I' for Inactive)
REMARK       I    between atoms: N_2  and  C_3 
REMARK    1  A    between atoms: N_2  and  C_29 
REMARK    2  A    between atoms: C_3  and  C_4 
REMARK    3  A    between atoms: C_7  and  C_8 
REMARK       I    between atoms: C_8  and  N_9 
REMARK    4  A    between atoms: N_9  and  C_10 
REMARK    5  A    between atoms: N_20  and  C_21 
REMARK    6  A    between atoms: C_21  and  C_22 
REMARK    7  A    between atoms: C_29  and  C_30 
REMARK    8  A    between atoms: C_30  and  C_31 
ROOT
HETATM    1  C   UNL     1      24.401  47.139  49.896  1.00  0.00     0.098 C 
HETATM    2  C   UNL     1      24.880  46.805  51.258  1.00  0.00     0.206 C 
HETATM    3  O   UNL     1      25.284  47.673  52.031  1.00  0.00    -0.286 OA
HETATM    4  C   UNL     1      24.856  45.368  51.666  1.00  0.00     0.098 C 
HETATM    5  C   UNL     1      24.123  44.539  50.901  1.00  0.00     0.111 C 
HETATM    6  N   UNL     1      23.441  44.922  49.750  1.00  0.00    -0.362 N 
HETATM    7  C   UNL     1      23.665  46.206  49.269  1.00  0.00     0.111 C 
ENDROOT
BRANCH   1   8
HETATM    8  C   UNL     1      24.589  48.429  49.193  1.00  0.00     0.258 C 
HETATM    9  N   UNL     1      23.493  49.262  48.993  1.00  0.00    -0.352 N 
HETATM   10  C   UNL     1      23.737  50.594  48.456  1.00  0.00     0.152 C 
HETATM   11  O   UNL     1      25.741  48.778  48.920  1.00  0.00    -0.267 OA
BRANCH   9  12
HETATM   12  C   UNL     1      22.077  48.931  49.227  1.00  0.00     0.131 C 
BRANCH  12  13
HETATM   13  C   UNL     1      21.140  49.375  48.102  1.00  0.00     0.079 C 
BRANCH  13  14
HETATM   14  C   UNL     1      20.057  50.280  48.637  1.00  0.00     0.035 A 
HETATM   15  N   UNL     1      19.181  49.735  49.516  1.00  0.00    -0.266 NA
HETATM   16  C   UNL     1      18.212  50.537  50.013  1.00  0.00     0.117 A 
HETATM   17  C   UNL     1      18.062  51.866  49.667  1.00  0.00     0.019 A 
HETATM   18  C   UNL     1      18.957  52.408  48.752  1.00  0.00     0.003 A 
HETATM   19  C   UNL     1      19.970  51.608  48.228  1.00  0.00     0.027 A 
ENDBRANCH  13  14
ENDBRANCH  12  13
ENDBRANCH   9  12
ENDBRANCH   1   8
BRANCH   4  20
HETATM   20  C   UNL     1      25.596  44.821  52.840  1.00  0.00     0.257 C 
HETATM   21  N   UNL     1      26.917  45.188  52.905  1.00  0.00    -0.352 N 
HETATM   22  H   UNL     1      27.254  45.866  52.221  1.00  0.00     0.163 HD
HETATM   23  O   UNL     1      25.058  44.069  53.646  1.00  0.00    -0.267 OA
BRANCH  21  24
HETATM   24  C   UNL     1      27.895  44.706  53.883  1.00  0.00     0.084 C 
HETATM   25  C   UNL     1      27.641  45.326  55.261  1.00  0.00     0.025 C 
HETATM   26  C   UNL     1      28.726  45.135  56.324  1.00  0.00     0.002 C 
HETATM   27  C   UNL     1      30.164  45.339  55.840  1.00  0.00     0.000 C 
HETATM   28  C   UNL     1      30.947  44.048  55.593  1.00  0.00     0.000 C 
HETATM   29  C   UNL     1      30.501  43.174  54.418  1.00  0.00     0.000 C 
HETATM   30  C   UNL     1      29.136  42.510  54.599  1.00  0.00     0.002 C 
HETATM   31  C   UNL     1      27.981  43.174  53.847  1.00  0.00     0.025 C 
ENDBRANCH  21  24
ENDBRANCH   4  20
BRANCH   6  32
HETATM   32  C   UNL     1      22.496  44.001  49.075  1.00  0.00     0.159 C 
BRANCH  32  33
HETATM   33  C   UNL     1      21.467  44.697  48.175  1.00  0.00     0.139 C 
HETATM   34  O   UNL     1      20.244  45.003  48.874  1.00  0.00    -0.384 OA
HETATM   35  C   UNL     1      19.162  44.919  47.933  1.00  0.00     0.168 C 
HETATM   36  C   UNL     1      19.773  44.683  46.566  1.00  0.00     0.029 C 
HETATM   37  C   UNL     1      21.051  43.961  46.913  1.00  0.00     0.035 C 
ENDBRANCH  32  33
ENDBRANCH   6  32
TORSDOF 8
ENDMDL
MODEL 3
REMARK VINA RESULT:      -9.4      3.962      7.294
REMARK  8 active torsions:
REMARK  status: ('A' for Active; 'I' for Inactive)
REMARK       I    between atoms: N_2  and  C_3 
REMARK    1  A    between atoms: N_2  and  C_29 
REMARK    2  A    between atoms: C_3  and  C_4 
REMARK    3  A    between atoms: C_7  and  C_8 
REMARK       I    between atoms: C_8  and  N_9 
REMARK    4  A    between atoms: N_9  and  C_10 
REMARK    5  A    between atoms: N_20  and  C_21 
REMARK    6  A    between atoms: C_21  and  C_22 
REMARK    7  A    between atoms: C_29  and  C_30 
REMARK    8  A    between atoms: C_30  and  C_31 
ROOT
HETATM    1  C   UNL     1      22.754  46.340  48.867  1.00  0.00     0.098 C 
HETATM    2  C   UNL     1      23.843  45.690  49.635  1.00  0.00     0.206 C 
HETATM    3  O   UNL     1      23.892  44.470  49.778  1.00  0.00    -0.286 OA
HETATM    4  C   UNL     1      24.887  46.574  50.234  1.00  0.00     0.098 C 
HETATM    5  C   UNL     1      24.937  47.839  49.779  1.00  0.00     0.111 C 
HETATM    6  N   UNL     1      24.062  48.376  48.839  1.00  0.00    -0.362 N 
HETATM    7  C   UNL     1      22.967  47.605  48.469  1.00  0.00     0.111 C 
ENDROOT
BRANCH   1   8
HETATM    8  C   UNL     1      21.489  45.703  48.430  1.00  0.00     0.258 C 
HETATM    9  N   UNL     1      20.300  46.419  48.521  1.00  0.00    -0.352 N 
HETATM   10  C   UNL     1      19.105  45.836  47.926  1.00  0.00     0.152 C 
HETATM   11  O   UNL     1      21.555  44.601  47.879  1.00  0.00    -0.267 OA
BRANCH   9  12
HETATM   12  C   UNL     1      20.093  47.708  49.202  1.00  0.00     0.131 C 
BRANCH  12  13
HETATM   13  C   UNL     1      18.663  47.930  49.697  1.00  0.00     0.079 C 
BRANCH  13  14
HETATM   14  C   UNL     1      18.154  49.283  49.265  1.00  0.00     0.035 A 
HETATM   15  N   UNL     1      17.974  50.209  50.238  1.00  0.00    -0.266 NA
HETATM   16  C   UNL     1      17.529  51.431  49.865  1.00  0.00     0.117 A 
HETATM   17  C   UNL     1      17.238  51.777  48.559  1.00  0.00     0.019 A 
HETATM   18  C   UNL     1      17.410  50.812  47.573  1.00  0.00     0.003 A 
HETATM   19  C   UNL     1      17.874  49.547  47.927  1.00  0.00     0.027 A 
ENDBRANCH  13  14
ENDBRANCH  12  13
ENDBRANCH   9  12
ENDBRANCH   1   8
BRANCH   4  20
HETATM   20  C   UNL     1      25.842  46.138  51.294  1.00  0.00     0.257 C 
HETATM   21  N   UNL     1      26.302  44.852  51.154  1.00  0.00    -0.352 N 
HETATM   22  H   UNL     1      26.041  44.346  50.307  1.00  0.00     0.163 HD
HETATM   23  O   UNL     1      26.142  46.869  52.231  1.00  0.00    -0.267 OA
BRANCH  21  24
HETATM   24  C   UNL     1      27.154  44.136  52.106  1.00  0.00     0.084 C 
HETATM   25  C   UNL     1      26.432  43.941  53.444  1.00  0.00     0.025 C 
HETATM   26  C   UNL     1      27.272  43.450  54.627  1.00  0.00     0.002 C 
HETATM   27  C   UNL     1      28.638  44.122  54.785  1.00  0.00     0.000 C 
HETATM   28  C   UNL     1      29.824  43.285  54.301  1.00  0.00     0.000 C 
HETATM   29  C   UNL     1      29.937  43.038  52.794  1.00  0.00     0.000 C 
HETATM   30  C   UNL     1      28.847  42.137  52.213  1.00  0.00     0.002 C 
HETATM   31  C   UNL     1      27.727  42.865  51.467  1.00  0.00     0.025 C 
ENDBRANCH  21  24
ENDBRANCH   4  20
BRANCH   6  32
HETATM   32  C   UNL     1      24.302  49.709  48.240  1.00  0.00     0.159 C 
BRANCH  32  33
HETATM   33  C   UNL     1      23.221  50.751  48.557  1.00  0.00     0.139 C 
HETATM   34  O   UNL     1      22.819  50.722  49.941  1.00  0.00    -0.384 OA
HETATM   35  C   UNL     1      21.432  51.088  50.009  1.00  0.00     0.168 C 
HETATM   36  C   UNL     1      21.005  51.489  48.611  1.00  0.00     0.029 C 
HETATM   37  C   UNL     1      21.936  50.672  47.750  1.00  0.00     0.035 C 
ENDBRANCH  32  33
ENDBRANCH   6  32
TORSDOF 8
ENDMDL
MODEL 4
REMARK VINA RESULT:      -9.3      4.463      7.894
REMARK  8 active torsions:
REMARK  status: ('A' for Active; 'I' for Inactive)
REMARK       I    between atoms: N_2  and  C_3 
REMARK    1  A    between atoms: N_2  and  C_29 
REMARK    2  A    between atoms: C_3  and  C_4 
REMARK    3  A    between atoms: C_7  and  C_8 
REMARK       I    between atoms: C_8  and  N_9 
REMARK    4  A    between atoms: N_9  and  C_10 
REMARK    5  A    between atoms: N_20  and  C_21 
REMARK    6  A    between atoms: C_21  and  C_22 
REMARK    7  A    between atoms: C_29  and  C_30 
REMARK    8  A    between atoms: C_30  and  C_31 
ROOT
HETATM    1  C   UNL     1      22.298  46.650  48.539  1.00  0.00     0.098 C 
HETATM    2  C   UNL     1      23.566  46.343  49.243  1.00  0.00     0.206 C 
HETATM    3  O   UNL     1      23.965  45.188  49.378  1.00  0.00    -0.286 OA
HETATM    4  C   UNL     1      24.349  47.493  49.787  1.00  0.00     0.098 C 
HETATM    5  C   UNL     1      24.015  48.715  49.334  1.00  0.00     0.111 C 
HETATM    6  N   UNL     1      22.974  48.972  48.446  1.00  0.00    -0.362 N 
HETATM    7  C   UNL     1      22.123  47.919  48.135  1.00  0.00     0.111 C 
ENDROOT
BRANCH   1   8
HETATM    8  C   UNL     1      21.243  45.677  48.170  1.00  0.00     0.258 C 
HETATM    9  N   UNL     1      19.906  46.036  48.310  1.00  0.00    -0.352 N 
HETATM   10  C   UNL     1      18.896  45.130  47.781  1.00  0.00     0.152 C 
HETATM   11  O   UNL     1      21.589  44.624  47.628  1.00  0.00    -0.267 OA
BRANCH   9  12
HETATM   12  C   UNL     1      19.379  47.233  48.987  1.00  0.00     0.131 C 
BRANCH  12  13
HETATM   13  C   UNL     1      17.872  47.435  48.812  1.00  0.00     0.079 C 
BRANCH  13  14
HETATM   14  C   UNL     1      17.595  48.546  47.829  1.00  0.00     0.035 A 
HETATM   15  N   UNL     1      16.732  49.513  48.223  1.00  0.00    -0.266 NA
HETATM   16  C   UNL     1      16.482  50.521  47.357  1.00  0.00     0.117 A 
HETATM   17  C   UNL     1      17.046  50.610  46.098  1.00  0.00     0.019 A 
HETATM   18  C   UNL     1      17.916  49.603  45.699  1.00  0.00     0.003 A 
HETATM   19  C   UNL     1      18.198  48.555  46.573  1.00  0.00     0.027 A 
ENDBRANCH  13  14
ENDBRANCH  12  13
ENDBRANCH   9  12
ENDBRANCH   1   8
BRANCH   4  20
HETATM   20  C   UNL     1      25.444  47.357  50.791  1.00  0.00     0.257 C 
HETATM   21  N   UNL     1      25.135  46.567  51.870  1.00  0.00    -0.352 N 
HETATM   22  H   UNL     1      24.244  46.070  51.853  1.00  0.00     0.163 HD
HETATM   23  O   UNL     1      26.510  47.948  50.663  1.00  0.00    -0.267 OA
BRANCH  21  24
HETATM   24  C   UNL     1      25.978  46.356  53.049  1.00  0.00     0.084 C 
HETATM   25  C   UNL     1      25.817  47.506  54.048  1.00  0.00     0.025 C 
HETATM   26  C   UNL     1      26.819  47.574  55.204  1.00  0.00     0.002 C 
HETATM   27  C   UNL     1      28.280  47.324  54.822  1.00  0.00     0.000 C 
HETATM   28  C   UNL     1      28.804  45.929  55.170  1.00  0.00     0.000 C 
HETATM   29  C   UNL     1      28.225  44.748  54.387  1.00  0.00     0.000 C 
HETATM   30  C   UNL     1      26.754  44.452  54.676  1.00  0.00     0.002 C 
HETATM   31  C   UNL     1      25.767  44.946  53.616  1.00  0.00     0.025 C 
ENDBRANCH  21  24
ENDBRANCH   4  20
BRANCH   6  32
HETATM   32  C   UNL     1      22.795  50.311  47.840  1.00  0.00     0.159 C 
BRANCH  32  33
HETATM   33  C   UNL     1      21.739  51.184  48.531  1.00  0.00     0.139 C 
HETATM   34  O   UNL     1      21.557  50.833  49.917  1.00  0.00    -0.384 OA
HETATM   35  C   UNL     1      20.185  51.079  50.262  1.00  0.00     0.168 C 
HETATM   36  C   UNL     1      19.533  51.741  49.063  1.00  0.00     0.029 C 
HETATM   37  C   UNL     1      20.349  51.192  47.919  1.00  0.00     0.035 C 
ENDBRANCH  32  33
ENDBRANCH   6  32
TORSDOF 8
ENDMDL
MODEL 5
REMARK VINA RESULT:      -9.0      4.299      7.612
REMARK  8 active torsions:
REMARK  status: ('A' for Active; 'I' for Inactive)
REMARK       I    between atoms: N_2  and  C_3 
REMARK    1  A    between atoms: N_2  and  C_29 
REMARK    2  A    between atoms: C_3  and  C_4 
REMARK    3  A    between atoms: C_7  and  C_8 
REMARK       I    between atoms: C_8  and  N_9 
REMARK    4  A    between atoms: N_9  and  C_10 
REMARK    5  A    between atoms: N_20  and  C_21 
REMARK    6  A    between atoms: C_21  and  C_22 
REMARK    7  A    between atoms: C_29  and  C_30 
REMARK    8  A    between atoms: C_30  and  C_31 
ROOT
HETATM    1  C   UNL     1      22.403  46.071  48.466  1.00  0.00     0.098 C 
HETATM    2  C   UNL     1      23.704  45.973  49.170  1.00  0.00     0.206 C 
HETATM    3  O   UNL     1      24.336  44.919  49.212  1.00  0.00    -0.286 OA
HETATM    4  C   UNL     1      24.226  47.207  49.830  1.00  0.00     0.098 C 
HETATM    5  C   UNL     1      23.645  48.369  49.478  1.00  0.00     0.111 C 
HETATM    6  N   UNL     1      22.578  48.482  48.592  1.00  0.00    -0.362 N 
HETATM    7  C   UNL     1      21.967  47.307  48.170  1.00  0.00     0.111 C 
ENDROOT
BRANCH   1   8
HETATM    8  C   UNL     1      21.577  44.937  47.990  1.00  0.00     0.258 C 
HETATM    9  N   UNL     1      21.972  44.237  46.854  1.00  0.00    -0.352 N 
HETATM   10  C   UNL     1      21.239  43.026  46.510  1.00  0.00     0.152 C 
HETATM   11  O   UNL     1      20.632  44.572  48.694  1.00  0.00    -0.267 OA
BRANCH   9  12
HETATM   12  C   UNL     1      23.041  44.610  45.913  1.00  0.00     0.131 C 
BRANCH  12  13
HETATM   13  C   UNL     1      23.024  43.817  44.605  1.00  0.00     0.079 C 
BRANCH  13  14
HETATM   14  C   UNL     1      23.167  44.741  43.420  1.00  0.00     0.035 A 
HETATM   15  N   UNL     1      24.420  44.933  42.940  1.00  0.00    -0.266 NA
HETATM   16  C   UNL     1      24.563  45.749  41.871  1.00  0.00     0.117 A 
HETATM   17  C   UNL     1      23.511  46.402  41.257  1.00  0.00     0.019 A 
HETATM   18  C   UNL     1      22.233  46.210  41.770  1.00  0.00     0.003 A 
HETATM   19  C   UNL     1      22.055  45.369  42.866  1.00  0.00     0.027 A 
ENDBRANCH  13  14
ENDBRANCH  12  13
ENDBRANCH   9  12
ENDBRANCH   1   8
BRANCH   4  20
HETATM   20  C   UNL     1      25.321  47.212  50.843  1.00  0.00     0.257 C 
HETATM   21  N   UNL     1      25.133  46.347  51.892  1.00  0.00    -0.352 N 
HETATM   22  H   UNL     1      24.332  45.716  51.847  1.00  0.00     0.163 HD
HETATM   23  O   UNL     1      26.281  47.969  50.749  1.00  0.00    -0.267 OA
BRANCH  21  24
HETATM   24  C   UNL     1      25.990  46.232  53.074  1.00  0.00     0.084 C 
HETATM   25  C   UNL     1      25.770  47.413  54.025  1.00  0.00     0.025 C 
HETATM   26  C   UNL     1      26.770  47.585  55.171  1.00  0.00     0.002 C 
HETATM   27  C   UNL     1      28.241  47.398  54.792  1.00  0.00     0.000 C 
HETATM   28  C   UNL     1      28.841  46.049  55.197  1.00  0.00     0.000 C 
HETATM   29  C   UNL     1      28.324  44.807  54.468  1.00  0.00     0.000 C 
HETATM   30  C   UNL     1      26.872  44.444  54.776  1.00  0.00     0.002 C 
HETATM   31  C   UNL     1      25.857  44.838  53.702  1.00  0.00     0.025 C 
ENDBRANCH  21  24
ENDBRANCH   4  20
BRANCH   6  32
HETATM   32  C   UNL     1      22.124  49.804  48.102  1.00  0.00     0.159 C 
BRANCH  32  33
HETATM   33  C   UNL     1      21.227  50.571  49.083  1.00  0.00     0.139 C 
HETATM   34  O   UNL     1      20.400  49.694  49.873  1.00  0.00    -0.384 OA
HETATM   35  C   UNL     1      19.168  50.377  50.152  1.00  0.00     0.168 C 
HETATM   36  C   UNL     1      19.308  51.790  49.619  1.00  0.00     0.029 C 
HETATM   37  C   UNL     1      20.287  51.604  48.486  1.00  0.00     0.035 C 
ENDBRANCH  32  33
ENDBRANCH   6  32
TORSDOF 8
ENDMDL
MODEL 6
REMARK VINA RESULT:      -9.0      4.467      7.097
REMARK  8 active torsions:
REMARK  status: ('A' for Active; 'I' for Inactive)
REMARK       I    between atoms: N_2  and  C_3 
REMARK    1  A    between atoms: N_2  and  C_29 
REMARK    2  A    between atoms: C_3  and  C_4 
REMARK    3  A    between atoms: C_7  and  C_8 
REMARK       I    between atoms: C_8  and  N_9 
REMARK    4  A    between atoms: N_9  and  C_10 
REMARK    5  A    between atoms: N_20  and  C_21 
REMARK    6  A    between atoms: C_21  and  C_22 
REMARK    7  A    between atoms: C_29  and  C_30 
REMARK    8  A    between atoms: C_30  and  C_31 
ROOT
HETATM    1  C   UNL     1      22.871  47.823  48.464  1.00  0.00     0.098 C 
HETATM    2  C   UNL     1      23.892  47.422  49.460  1.00  0.00     0.206 C 
HETATM    3  O   UNL     1      24.400  48.237  50.227  1.00  0.00    -0.286 OA
HETATM    4  C   UNL     1      24.286  45.981  49.503  1.00  0.00     0.098 C 
HETATM    5  C   UNL     1      23.476  45.118  48.865  1.00  0.00     0.111 C 
HETATM    6  N   UNL     1      22.344  45.483  48.141  1.00  0.00    -0.362 N 
HETATM    7  C   UNL     1      22.129  46.839  47.928  1.00  0.00     0.111 C 
ENDROOT
BRANCH   1   8
HETATM    8  C   UNL     1      22.536  49.209  48.062  1.00  0.00     0.258 C 
HETATM    9  N   UNL     1      21.446  49.844  48.648  1.00  0.00    -0.352 N 
HETATM   10  C   UNL     1      21.245  51.259  48.362  1.00  0.00     0.152 C 
HETATM   11  O   UNL     1      23.318  49.799  47.311  1.00  0.00    -0.267 OA
BRANCH   9  12
HETATM   12  C   UNL     1      20.422  49.229  49.508  1.00  0.00     0.131 C 
BRANCH  12  13
HETATM   13  C   UNL     1      19.212  48.686  48.746  1.00  0.00     0.079 C 
BRANCH  13  14
HETATM   14  C   UNL     1      18.053  49.649  48.831  1.00  0.00     0.035 A 
HETATM   15  N   UNL     1      18.153  50.649  49.740  1.00  0.00    -0.266 NA
HETATM   16  C   UNL     1      17.128  51.527  49.820  1.00  0.00     0.117 A 
HETATM   17  C   UNL     1      15.989  51.452  49.041  1.00  0.00     0.019 A 
HETATM   18  C   UNL     1      15.891  50.411  48.126  1.00  0.00     0.003 A 
HETATM   19  C   UNL     1      16.935  49.495  48.016  1.00  0.00     0.027 A 
ENDBRANCH  13  14
ENDBRANCH  12  13
ENDBRANCH   9  12
ENDBRANCH   1   8
BRANCH   4  20
HETATM   20  C   UNL     1      25.508  45.470  50.189  1.00  0.00     0.257 C 
HETATM   21  N   UNL     1      25.260  44.680  51.284  1.00  0.00    -0.352 N 
HETATM   22  H   UNL     1      24.290  44.429  51.476  1.00  0.00     0.163 HD
HETATM   23  O   UNL     1      26.633  45.782  49.815  1.00  0.00    -0.267 OA
BRANCH  21  24
HETATM   24  C   UNL     1      26.268  44.143  52.201  1.00  0.00     0.084 C 
HETATM   25  C   UNL     1      25.788  44.235  53.654  1.00  0.00     0.025 C 
HETATM   26  C   UNL     1      26.822  43.966  54.750  1.00  0.00     0.002 C 
HETATM   27  C   UNL     1      28.190  44.618  54.538  1.00  0.00     0.000 C 
HETATM   28  C   UNL     1      29.281  43.670  54.036  1.00  0.00     0.000 C 
HETATM   29  C   UNL     1      29.135  43.127  52.612  1.00  0.00     0.000 C 
HETATM   30  C   UNL     1      27.968  42.160  52.415  1.00  0.00     0.002 C 
HETATM   31  C   UNL     1      26.732  42.756  51.740  1.00  0.00     0.025 C 
ENDBRANCH  21  24
ENDBRANCH   4  20
BRANCH   6  32
HETATM   32  C   UNL     1      21.394  44.465  47.636  1.00  0.00     0.159 C 
BRANCH  32  33
HETATM   33  C   UNL     1      20.112  45.043  47.023  1.00  0.00     0.139 C 
HETATM   34  O   UNL     1      18.932  44.325  47.435  1.00  0.00    -0.384 OA
HETATM   35  C   UNL     1      17.985  44.370  46.357  1.00  0.00     0.168 C 
HETATM   36  C   UNL     1      18.564  45.275  45.288  1.00  0.00     0.029 C 
HETATM   37  C   UNL     1      20.048  45.110  45.507  1.00  0.00     0.035 C 
ENDBRANCH  32  33
ENDBRANCH   6  32
TORSDOF 8
ENDMDL
MODEL 7
REMARK VINA RESULT:      -9.0      3.463      6.431
REMARK  8 active torsions:
REMARK  status: ('A' for Active; 'I' for Inactive)
REMARK       I    between atoms: N_2  and  C_3 
REMARK    1  A    between atoms: N_2  and  C_29 
REMARK    2  A    between atoms: C_3  and  C_4 
REMARK    3  A    between atoms: C_7  and  C_8 
REMARK       I    between atoms: C_8  and  N_9 
REMARK    4  A    between atoms: N_9  and  C_10 
REMARK    5  A    between atoms: N_20  and  C_21 
REMARK    6  A    between atoms: C_21  and  C_22 
REMARK    7  A    between atoms: C_29  and  C_30 
REMARK    8  A    between atoms: C_30  and  C_31 
ROOT
HETATM    1  C   UNL     1      22.930  44.943  49.202  1.00  0.00     0.098 C 
HETATM    2  C   UNL     1      23.801  44.302  50.215  1.00  0.00     0.206 C 
HETATM    3  O   UNL     1      23.832  43.081  50.359  1.00  0.00    -0.286 OA
HETATM    4  C   UNL     1      24.648  45.194  51.062  1.00  0.00     0.098 C 
HETATM    5  C   UNL     1      24.792  46.464  50.640  1.00  0.00     0.111 C 
HETATM    6  N   UNL     1      24.173  46.997  49.514  1.00  0.00    -0.362 N 
HETATM    7  C   UNL     1      23.217  46.215  48.877  1.00  0.00     0.111 C 
ENDROOT
BRANCH   1   8
HETATM    8  C   UNL     1      21.826  44.294  48.458  1.00  0.00     0.258 C 
HETATM    9  N   UNL     1      20.649  45.002  48.231  1.00  0.00    -0.352 N 
HETATM   10  C   UNL     1      19.652  44.404  47.352  1.00  0.00     0.152 C 
HETATM   11  O   UNL     1      22.038  43.189  47.952  1.00  0.00    -0.267 OA
BRANCH   9  12
HETATM   12  C   UNL     1      20.266  46.294  48.824  1.00  0.00     0.131 C 
BRANCH  12  13
HETATM   13  C   UNL     1      18.977  46.885  48.251  1.00  0.00     0.079 C 
BRANCH  13  14
HETATM   14  C   UNL     1      18.710  48.250  48.837  1.00  0.00     0.035 A 
HETATM   15  N   UNL     1      18.216  49.192  47.998  1.00  0.00    -0.266 NA
HETATM   16  C   UNL     1      17.961  50.417  48.512  1.00  0.00     0.117 A 
HETATM   17  C   UNL     1      18.187  50.759  49.832  1.00  0.00     0.019 A 
HETATM   18  C   UNL     1      18.710  49.788  50.678  1.00  0.00     0.003 A 
HETATM   19  C   UNL     1      18.977  48.515  50.178  1.00  0.00     0.027 A 
ENDBRANCH  13  14
ENDBRANCH  12  13
ENDBRANCH   9  12
ENDBRANCH   1   8
BRANCH   4  20
HETATM   20  C   UNL     1      25.313  44.761  52.325  1.00  0.00     0.257 C 
HETATM   21  N   UNL     1      26.668  44.978  52.361  1.00  0.00    -0.352 N 
HETATM   22  H   UNL     1      27.085  45.493  51.585  1.00  0.00     0.163 HD
HETATM   23  O   UNL     1      24.687  44.216  53.227  1.00  0.00    -0.267 OA
BRANCH  21  24
HETATM   24  C   UNL     1      27.579  44.548  53.425  1.00  0.00     0.084 C 
HETATM   25  C   UNL     1      27.243  45.247  54.746  1.00  0.00     0.025 C 
HETATM   26  C   UNL     1      28.256  45.113  55.886  1.00  0.00     0.002 C 
HETATM   27  C   UNL     1      29.724  45.283  55.484  1.00  0.00     0.000 C 
HETATM   28  C   UNL     1      30.510  43.975  55.361  1.00  0.00     0.000 C 
HETATM   29  C   UNL     1      30.132  43.037  54.212  1.00  0.00     0.000 C 
HETATM   30  C   UNL     1      28.753  42.392  54.344  1.00  0.00     0.002 C 
HETATM   31  C   UNL     1      27.654  43.016  53.483  1.00  0.00     0.025 C 
ENDBRANCH  21  24
ENDBRANCH   4  20
BRANCH   6  32
HETATM   32  C   UNL     1      24.535  48.339  49.001  1.00  0.00     0.159 C 
BRANCH  32  33
HETATM   33  C   UNL     1      23.356  49.141  48.434  1.00  0.00     0.139 C 
HETATM   34  O   UNL     1      23.782  50.193  47.546  1.00  0.00    -0.384 OA
HETATM   35  C   UNL     1      22.851  51.279  47.665  1.00  0.00     0.168 C 
HETATM   36  C   UNL     1      21.728  50.811  48.569  1.00  0.00     0.029 C 
HETATM   37  C   UNL     1      22.428  49.798  49.441  1.00  0.00     0.035 C 
ENDBRANCH  32  33
ENDBRANCH   6  32
TORSDOF 8
ENDMDL
MODEL 8
REMARK VINA RESULT:      -8.8      2.076      8.268
REMARK  8 active torsions:
REMARK  status: ('A' for Active; 'I' for Inactive)
REMARK       I    between atoms: N_2  and  C_3 
REMARK    1  A    between atoms: N_2  and  C_29 
REMARK    2  A    between atoms: C_3  and  C_4 
REMARK    3  A    between atoms: C_7  and  C_8 
REMARK       I    between atoms: C_8  and  N_9 
REMARK    4  A    between atoms: N_9  and  C_10 
REMARK    5  A    between atoms: N_20  and  C_21 
REMARK    6  A    between atoms: C_21  and  C_22 
REMARK    7  A    between atoms: C_29  and  C_30 
REMARK    8  A    between atoms: C_30  and  C_31 
ROOT
HETATM    1  C   UNL     1      25.930  46.653  52.532  1.00  0.00     0.098 C 
HETATM    2  C   UNL     1      25.472  45.287  52.187  1.00  0.00     0.206 C 
HETATM    3  O   UNL     1      24.980  44.539  53.031  1.00  0.00    -0.286 OA
HETATM    4  C   UNL     1      25.630  44.843  50.769  1.00  0.00     0.098 C 
HETATM    5  C   UNL     1      25.878  45.806  49.863  1.00  0.00     0.111 C 
HETATM    6  N   UNL     1      26.042  47.154  50.167  1.00  0.00    -0.362 N 
HETATM    7  C   UNL     1      26.117  47.504  51.509  1.00  0.00     0.111 C 
ENDROOT
BRANCH   1   8
HETATM    8  C   UNL     1      26.125  47.194  53.897  1.00  0.00     0.258 C 
HETATM    9  N   UNL     1      27.298  46.901  54.585  1.00  0.00    -0.352 N 
HETATM   10  C   UNL     1      27.537  47.583  55.850  1.00  0.00     0.152 C 
HETATM   11  O   UNL     1      25.291  47.995  54.328  1.00  0.00    -0.267 OA
BRANCH   9  12
HETATM   12  C   UNL     1      28.330  45.925  54.197  1.00  0.00     0.131 C 
BRANCH  12  13
HETATM   13  C   UNL     1      28.238  44.591  54.940  1.00  0.00     0.079 C 
BRANCH  13  14
HETATM   14  C   UNL     1      29.477  44.356  55.768  1.00  0.00     0.035 A 
HETATM   15  N   UNL     1      29.667  45.173  56.833  1.00  0.00    -0.266 NA
HETATM   16  C   UNL     1      30.767  44.968  57.592  1.00  0.00     0.117 A 
HETATM   17  C   UNL     1      31.707  43.987  57.335  1.00  0.00     0.019 A 
HETATM   18  C   UNL     1      31.509  43.168  56.230  1.00  0.00     0.003 A 
HETATM   19  C   UNL     1      30.381  43.351  55.433  1.00  0.00     0.027 A 
ENDBRANCH  13  14
ENDBRANCH  12  13
ENDBRANCH   9  12
ENDBRANCH   1   8
BRANCH   4  20
HETATM   20  C   UNL     1      25.540  43.422  50.325  1.00  0.00     0.257 C 
HETATM   21  N   UNL     1      26.695  42.920  49.779  1.00  0.00    -0.352 N 
HETATM   22  H   UNL     1      27.528  43.509  49.810  1.00  0.00     0.163 HD
HETATM   23  O   UNL     1      24.495  42.787  50.408  1.00  0.00    -0.267 OA
BRANCH  21  24
HETATM   24  C   UNL     1      26.851  41.601  49.162  1.00  0.00     0.084 C 
HETATM   25  C   UNL     1      26.768  40.492  50.218  1.00  0.00     0.025 C 
HETATM   26  C   UNL     1      27.174  39.081  49.783  1.00  0.00     0.002 C 
HETATM   27  C   UNL     1      28.445  38.995  48.935  1.00  0.00     0.000 C 
HETATM   28  C   UNL     1      28.203  38.797  47.437  1.00  0.00     0.000 C 
HETATM   29  C   UNL     1      27.572  39.961  46.669  1.00  0.00     0.000 C 
HETATM   30  C   UNL     1      26.118  40.253  47.037  1.00  0.00     0.002 C 
HETATM   31  C   UNL     1      25.905  41.451  47.964  1.00  0.00     0.025 C 
ENDBRANCH  21  24
ENDBRANCH   4  20
BRANCH   6  32
HETATM   32  C   UNL     1      26.113  48.179  49.099  1.00  0.00     0.159 C 
BRANCH  32  33
HETATM   33  C   UNL     1      24.867  49.068  48.990  1.00  0.00     0.139 C 
HETATM   34  O   UNL     1      23.662  48.303  48.790  1.00  0.00    -0.384 OA
HETATM   35  C   UNL     1      22.766  49.088  47.988  1.00  0.00     0.168 C 
HETATM   36  C   UNL     1      23.404  50.451  47.805  1.00  0.00     0.029 C 
HETATM   37  C   UNL     1      24.875  50.125  47.899  1.00  0.00     0.035 C 
ENDBRANCH  32  33
ENDBRANCH   6  32
TORSDOF 8
ENDMDL
MODEL 9
REMARK VINA RESULT:      -8.8      4.308      9.588
REMARK  8 active torsions:
REMARK  status: ('A' for Active; 'I' for Inactive)
REMARK       I    between atoms: N_2  and  C_3 
REMARK    1  A    between atoms: N_2  and  C_29 
REMARK    2  A    between atoms: C_3  and  C_4 
REMARK    3  A    between atoms: C_7  and  C_8 
REMARK       I    between atoms: C_8  and  N_9 
REMARK    4  A    between atoms: N_9  and  C_10 
REMARK    5  A    between atoms: N_20  and  C_21 
REMARK    6  A    between atoms: C_21  and  C_22 
REMARK    7  A    between atoms: C_29  and  C_30 
REMARK    8  A    between atoms: C_30  and  C_31 
ROOT
HETATM    1  C   UNL     1      23.131  44.252  48.946  1.00  0.00     0.098 C 
HETATM    2  C   UNL     1      22.171  45.374  48.823  1.00  0.00     0.206 C 
HETATM    3  O   UNL     1      20.976  45.180  48.604  1.00  0.00    -0.286 OA
HETATM    4  C   UNL     1      22.707  46.761  48.973  1.00  0.00     0.098 C 
HETATM    5  C   UNL     1      23.934  46.875  49.512  1.00  0.00     0.111 C 
HETATM    6  N   UNL     1      24.738  45.801  49.883  1.00  0.00    -0.362 N 
HETATM    7  C   UNL     1      24.312  44.528  49.524  1.00  0.00     0.111 C 
ENDROOT
BRANCH   1   8
HETATM    8  C   UNL     1      22.884  42.841  48.567  1.00  0.00     0.258 C 
HETATM    9  N   UNL     1      23.081  42.446  47.247  1.00  0.00    -0.352 N 
HETATM   10  C   UNL     1      22.998  41.025  46.941  1.00  0.00     0.152 C 
HETATM   11  O   UNL     1      22.634  42.034  49.466  1.00  0.00    -0.267 OA
BRANCH   9  12
HETATM   12  C   UNL     1      23.327  43.323  46.090  1.00  0.00     0.131 C 
BRANCH  12  13
HETATM   13  C   UNL     1      22.252  43.236  45.004  1.00  0.00     0.079 C 
BRANCH  13  14
HETATM   14  C   UNL     1      21.146  44.227  45.270  1.00  0.00     0.035 A 
HETATM   15  N   UNL     1      19.918  43.718  45.536  1.00  0.00    -0.266 NA
HETATM   16  C   UNL     1      18.918  44.593  45.788  1.00  0.00     0.117 A 
HETATM   17  C   UNL     1      19.078  45.966  45.777  1.00  0.00     0.019 A 
HETATM   18  C   UNL     1      20.338  46.476  45.485  1.00  0.00     0.003 A 
HETATM   19  C   UNL     1      21.389  45.598  45.228  1.00  0.00     0.027 A 
ENDBRANCH  13  14
ENDBRANCH  12  13
ENDBRANCH   9  12
ENDBRANCH   1   8
BRANCH   4  20
HETATM   20  C   UNL     1      21.972  47.990  48.555  1.00  0.00     0.257 C 
HETATM   21  N   UNL     1      20.842  48.257  49.288  1.00  0.00    -0.352 N 
HETATM   22  H   UNL     1      20.654  47.667  50.100  1.00  0.00     0.163 HD
HETATM   23  O   UNL     1      22.340  48.666  47.602  1.00  0.00    -0.267 OA
BRANCH  21  24
HETATM   24  C   UNL     1      19.878  49.327  49.021  1.00  0.00     0.084 C 
HETATM   25  C   UNL     1      18.497  48.749  48.695  1.00  0.00     0.025 C 
HETATM   26  C   UNL     1      17.449  49.715  48.135  1.00  0.00     0.002 C 
HETATM   27  C   UNL     1      17.955  50.682  47.060  1.00  0.00     0.000 C 
HETATM   28  C   UNL     1      18.213  52.108  47.551  1.00  0.00     0.000 C 
HETATM   29  C   UNL     1      19.380  52.314  48.519  1.00  0.00     0.000 C 
HETATM   30  C   UNL     1      19.179  51.695  49.902  1.00  0.00     0.002 C 
HETATM   31  C   UNL     1      19.914  50.375  50.141  1.00  0.00     0.025 C 
ENDBRANCH  21  24
ENDBRANCH   4  20
BRANCH   6  32
HETATM   32  C   UNL     1      25.988  46.006  50.651  1.00  0.00     0.159 C 
BRANCH  32  33
HETATM   33  C   UNL     1      25.794  46.083  52.171  1.00  0.00     0.139 C 
HETATM   34  O   UNL     1      25.818  47.439  52.660  1.00  0.00    -0.384 OA
HETATM   35  C   UNL     1      26.376  47.424  53.983  1.00  0.00     0.168 C 
HETATM   36  C   UNL     1      26.575  45.971  54.369  1.00  0.00     0.029 C 
HETATM   37  C   UNL     1      26.785  45.315  53.027  1.00  0.00     0.035 C 
ENDBRANCH  32  33
ENDBRANCH   6  32
TORSDOF 8
ENDMDL
MODEL 10
REMARK VINA RESULT:      -8.7     11.951     13.068
REMARK  8 active torsions:
REMARK  status: ('A' for Active; 'I' for Inactive)
REMARK       I    between atoms: N_2  and  C_3 
REMARK    1  A    between atoms: N_2  and  C_29 
REMARK    2  A    between atoms: C_3  and  C_4 
REMARK    3  A    between atoms: C_7  and  C_8 
REMARK       I    between atoms: C_8  and  N_9 
REMARK    4  A    between atoms: N_9  and  C_10 
REMARK    5  A    between atoms: N_20  and  C_21 
REMARK    6  A    between atoms: C_21  and  C_22 
REMARK    7  A    between atoms: C_29  and  C_30 
REMARK    8  A    between atoms: C_30  and  C_31 
ROOT
HETATM    1  C   UNL     1      28.191  47.630  39.994  1.00  0.00     0.098 C 
HETATM    2  C   UNL     1      29.405  48.063  40.726  1.00  0.00     0.206 C 
HETATM    3  O   UNL     1      29.353  48.903  41.623  1.00  0.00    -0.286 OA
HETATM    4  C   UNL     1      30.705  47.438  40.337  1.00  0.00     0.098 C 
HETATM    5  C   UNL     1      30.635  46.325  39.585  1.00  0.00     0.111 C 
HETATM    6  N   UNL     1      29.452  45.761  39.116  1.00  0.00    -0.362 N 
HETATM    7  C   UNL     1      28.280  46.483  39.301  1.00  0.00     0.111 C 
ENDROOT
BRANCH   1   8
HETATM    8  C   UNL     1      26.869  48.298  40.018  1.00  0.00     0.258 C 
HETATM    9  N   UNL     1      26.600  49.310  39.101  1.00  0.00    -0.352 N 
HETATM   10  C   UNL     1      25.240  49.827  39.035  1.00  0.00     0.152 C 
HETATM   11  O   UNL     1      26.003  47.843  40.771  1.00  0.00    -0.267 OA
BRANCH   9  12
HETATM   12  C   UNL     1      27.562  49.964  38.200  1.00  0.00     0.131 C 
BRANCH  12  13
HETATM   13  C   UNL     1      27.584  51.490  38.313  1.00  0.00     0.079 C 
BRANCH  13  14
HETATM   14  C   UNL     1      28.497  51.927  39.433  1.00  0.00     0.035 A 
HETATM   15  N   UNL     1      27.956  51.996  40.673  1.00  0.00    -0.266 NA
HETATM   16  C   UNL     1      28.764  52.375  41.689  1.00  0.00     0.117 A 
HETATM   17  C   UNL     1      30.096  52.706  41.529  1.00  0.00     0.019 A 
HETATM   18  C   UNL     1      30.634  52.648  40.249  1.00  0.00     0.003 A 
HETATM   19  C   UNL     1      29.827  52.254  39.183  1.00  0.00     0.027 A 
ENDBRANCH  13  14
ENDBRANCH  12  13
ENDBRANCH   9  12
ENDBRANCH   1   8
BRANCH   4  20
HETATM   20  C   UNL     1      32.040  47.982  40.721  1.00  0.00     0.257 C 
HETATM   21  N   UNL     1      32.167  49.341  40.575  1.00  0.00    -0.352 N 
HETATM   22  H   UNL     1      31.332  49.869  40.319  1.00  0.00     0.163 HD
HETATM   23  O   UNL     1      32.951  47.250  41.090  1.00  0.00    -0.267 OA
BRANCH  21  24
HETATM   24  C   UNL     1      33.395  50.115  40.770  1.00  0.00     0.084 C 
HETATM   25  C   UNL     1      33.594  51.119  39.629  1.00  0.00     0.025 C 
HETATM   26  C   UNL     1      34.955  51.815  39.540  1.00  0.00     0.002 C 
HETATM   27  C   UNL     1      36.171  50.910  39.749  1.00  0.00     0.000 C 
HETATM   28  C   UNL     1      36.819  51.016  41.131  1.00  0.00     0.000 C 
HETATM   29  C   UNL     1      36.016  50.489  42.323  1.00  0.00     0.000 C 
HETATM   30  C   UNL     1      34.767  51.304  42.660  1.00  0.00     0.002 C 
HETATM   31  C   UNL     1      33.445  50.699  42.187  1.00  0.00     0.025 C 
ENDBRANCH  21  24
ENDBRANCH   4  20
BRANCH   6  32
HETATM   32  C   UNL     1      29.441  44.430  38.466  1.00  0.00     0.159 C 
BRANCH  32  33
HETATM   33  C   UNL     1      28.360  43.476  38.990  1.00  0.00     0.139 C 
HETATM   34  O   UNL     1      28.822  42.674  40.095  1.00  0.00    -0.384 OA
HETATM   35  C   UNL     1      28.153  41.405  40.033  1.00  0.00     0.168 C 
HETATM   36  C   UNL     1      27.132  41.490  38.915  1.00  0.00     0.029 C 
HETATM   37  C   UNL     1      27.763  42.501  37.990  1.00  0.00     0.035 C 
ENDBRANCH  32  33
ENDBRANCH   6  32
TORSDOF 8
ENDMDL
