MODEL 1
REMARK VINA RESULT:      -8.8      0.000      0.000
REMARK  5 active torsions:
REMARK  status: ('A' for Active; 'I' for Inactive)
REMARK    1  A    between atoms: C_7  and  C_8 
REMARK    2  A    between atoms: C_8  and  O_9 
REMARK    3  A    between atoms: N_12  and  C_13 
REMARK    4  A    between atoms: C_13  and  C_14 
REMARK    5  A    between atoms: C_14  and  C_15 
ROOT
HETATM    1  C   UNL     1      29.134  50.320  38.880  1.00  0.00     0.199 A 
HETATM    2  C   UNL     1      30.451  49.477  38.985  1.00  0.00     0.269 A 
HETATM    3  O   UNL     1      30.622  48.319  38.626  1.00  0.00    -0.269 OA
HETATM    4  N   UNL     1      31.430  50.305  39.568  1.00  0.00    -0.314 N 
HETATM    5  C   UNL     1      30.897  51.558  39.902  1.00  0.00     0.047 A 
HETATM    6  C   UNL     1      29.547  51.620  39.529  1.00  0.00     0.017 A 
HETATM    7  C   UNL     1      31.520  52.632  40.512  1.00  0.00     0.030 A 
HETATM    8  C   UNL     1      30.769  53.792  40.735  1.00  0.00     0.002 A 
HETATM    9  C   UNL     1      29.423  53.864  40.347  1.00  0.00     0.001 A 
HETATM   10  C   UNL     1      28.803  52.776  39.731  1.00  0.00     0.013 A 
ENDROOT
BRANCH   1  11
HETATM   11  C   UNL     1      28.034  49.658  39.690  1.00  0.00     0.025 A 
HETATM   12  C   UNL     1      28.046  49.184  41.006  1.00  0.00     0.016 A 
HETATM   13  C   UNL     1      29.094  49.178  42.064  1.00  0.00     0.069 C 
HETATM   14  N   UNL     1      26.824  48.612  41.264  1.00  0.00    -0.359 N 
HETATM   15  H   UNL     1      26.559  48.187  42.140  1.00  0.00     0.166 HD
HETATM   16  C   UNL     1      26.037  48.608  40.144  1.00  0.00     0.043 A 
HETATM   17  C   UNL     1      26.754  49.258  39.141  1.00  0.00     0.003 A 
HETATM   18  C   UNL     1      24.762  48.064  39.945  1.00  0.00     0.030 A 
HETATM   19  C   UNL     1      26.152  49.360  37.866  1.00  0.00     0.014 A 
HETATM   20  C   UNL     1      24.879  48.821  37.646  1.00  0.00     0.001 A 
HETATM   21  C   UNL     1      24.195  48.180  38.674  1.00  0.00     0.002 A 
ENDBRANCH   1  11
BRANCH   1  22
HETATM   22  O   UNL     1      28.765  50.606  37.535  1.00  0.00    -0.371 OA
HETATM   23  H   UNL     1      28.557  49.758  37.113  1.00  0.00     0.212 HD
ENDBRANCH   1  22
BRANCH   4  24
HETATM   24  C   UNL     1      32.718  49.797  39.992  1.00  0.00     0.137 C 
BRANCH  24  25
HETATM   25  C   UNL     1      32.702  49.181  41.397  1.00  0.00     0.058 C 
BRANCH  25  26
HETATM   26  C   UNL     1      33.088  50.203  42.439  1.00  0.00    -0.057 A 
HETATM   27  C   UNL     1      32.157  50.599  43.411  1.00  0.00     0.007 A 
HETATM   28  C   UNL     1      32.487  51.572  44.354  1.00  0.00     0.001 A 
HETATM   29  C   UNL     1      33.753  52.153  44.340  1.00  0.00     0.000 A 
HETATM   30  C   UNL     1      34.689  51.759  43.384  1.00  0.00     0.001 A 
HETATM   31  C   UNL     1      34.359  50.789  42.436  1.00  0.00     0.007 A 
ENDBRANCH  25  26
ENDBRANCH  24  25
ENDBRANCH   4  24
TORSDOF 5
ENDMDL
MODEL 2
REMARK VINA RESULT:      -8.6     12.057     13.933
REMARK  5 active torsions:
REMARK  status: ('A' for Active; 'I' for Inactive)
REMARK    1  A    between atoms: C_7  and  C_8 
REMARK    2  A    between atoms: C_8  and  O_9 
REMARK    3  A    between atoms: N_12  and  C_13 
REMARK    4  A    between atoms: C_13  and  C_14 
REMARK    5  A    between atoms: C_14  and  C_15 
ROOT
HETATM    1  C   UNL     1      24.866  43.729  51.467  1.00  0.00     0.199 A 
HETATM    2  C   UNL     1      25.444  43.842  52.919  1.00  0.00     0.269 A 
HETATM    3  O   UNL     1      24.945  44.424  53.873  1.00  0.00    -0.269 OA
HETATM    4  N   UNL     1      26.661  43.134  52.939  1.00  0.00    -0.314 N 
HETATM    5  C   UNL     1      26.969  42.623  51.670  1.00  0.00     0.047 A 
HETATM    6  C   UNL     1      25.952  42.951  50.762  1.00  0.00     0.017 A 
HETATM    7  C   UNL     1      28.078  41.900  51.271  1.00  0.00     0.030 A 
HETATM    8  C   UNL     1      28.154  41.490  49.935  1.00  0.00     0.002 A 
HETATM    9  C   UNL     1      27.130  41.801  49.027  1.00  0.00     0.001 A 
HETATM   10  C   UNL     1      26.014  42.529  49.439  1.00  0.00     0.013 A 
ENDROOT
BRANCH   1  11
HETATM   11  C   UNL     1      24.735  45.113  50.856  1.00  0.00     0.025 A 
HETATM   12  C   UNL     1      25.337  46.321  51.225  1.00  0.00     0.016 A 
HETATM   13  C   UNL     1      26.309  46.674  52.296  1.00  0.00     0.069 C 
HETATM   14  N   UNL     1      24.853  47.307  50.401  1.00  0.00    -0.359 N 
HETATM   15  H   UNL     1      25.117  48.280  50.447  1.00  0.00     0.166 HD
HETATM   16  C   UNL     1      23.889  46.816  49.561  1.00  0.00     0.043 A 
HETATM   17  C   UNL     1      23.791  45.449  49.809  1.00  0.00     0.003 A 
HETATM   18  C   UNL     1      23.092  47.485  48.622  1.00  0.00     0.030 A 
HETATM   19  C   UNL     1      22.832  44.717  49.072  1.00  0.00     0.014 A 
HETATM   20  C   UNL     1      22.025  45.366  48.131  1.00  0.00     0.001 A 
HETATM   21  C   UNL     1      22.155  46.733  47.911  1.00  0.00     0.002 A 
ENDBRANCH   1  11
BRANCH   1  22
HETATM   22  O   UNL     1      23.671  42.957  51.404  1.00  0.00    -0.371 OA
HETATM   23  H   UNL     1      22.931  43.574  51.515  1.00  0.00     0.212 HD
ENDBRANCH   1  22
BRANCH   4  24
HETATM   24  C   UNL     1      27.566  43.186  54.068  1.00  0.00     0.137 C 
BRANCH  24  25
HETATM   25  C   UNL     1      28.704  44.200  53.897  1.00  0.00     0.058 C 
BRANCH  25  26
HETATM   26  C   UNL     1      29.556  44.272  55.141  1.00  0.00    -0.057 A 
HETATM   27  C   UNL     1      29.425  45.358  56.019  1.00  0.00     0.007 A 
HETATM   28  C   UNL     1      30.235  45.457  57.151  1.00  0.00     0.001 A 
HETATM   29  C   UNL     1      31.178  44.467  57.419  1.00  0.00     0.000 A 
HETATM   30  C   UNL     1      31.309  43.379  56.557  1.00  0.00     0.001 A 
HETATM   31  C   UNL     1      30.504  43.280  55.422  1.00  0.00     0.007 A 
ENDBRANCH  25  26
ENDBRANCH  24  25
ENDBRANCH   4  24
TORSDOF 5
ENDMDL
MODEL 3
REMARK VINA RESULT:      -8.4     10.427     12.939
REMARK  5 active torsions:
REMARK  status: ('A' for Active; 'I' for Inactive)
REMARK    1  A    between atoms: C_7  and  C_8 
REMARK    2  A    between atoms: C_8  and  O_9 
REMARK    3  A    between atoms: N_12  and  C_13 
REMARK    4  A    between atoms: C_13  and  C_14 
REMARK    5  A    between atoms: C_14  and  C_15 
ROOT
HETATM    1  C   UNL     1      18.917  49.937  49.386  1.00  0.00     0.199 A 
HETATM    2  C   UNL     1      20.470  49.914  49.177  1.00  0.00     0.269 A 
HETATM    3  O   UNL     1      21.258  50.832  49.363  1.00  0.00    -0.269 OA
HETATM    4  N   UNL     1      20.812  48.620  48.738  1.00  0.00    -0.314 N 
HETATM    5  C   UNL     1      19.671  47.821  48.584  1.00  0.00     0.047 A 
HETATM    6  C   UNL     1      18.526  48.547  48.942  1.00  0.00     0.017 A 
HETATM    7  C   UNL     1      19.579  46.511  48.149  1.00  0.00     0.030 A 
HETATM    8  C   UNL     1      18.312  45.922  48.088  1.00  0.00     0.002 A 
HETATM    9  C   UNL     1      17.165  46.639  48.463  1.00  0.00     0.001 A 
HETATM   10  C   UNL     1      17.267  47.959  48.902  1.00  0.00     0.013 A 
ENDROOT
BRANCH   1  11
HETATM   11  C   UNL     1      18.290  50.973  48.470  1.00  0.00     0.025 A 
HETATM   12  C   UNL     1      17.487  52.077  48.777  1.00  0.00     0.016 A 
HETATM   13  C   UNL     1      16.992  52.634  50.066  1.00  0.00     0.069 C 
HETATM   14  N   UNL     1      17.118  52.675  47.597  1.00  0.00    -0.359 N 
HETATM   15  H   UNL     1      16.533  53.494  47.523  1.00  0.00     0.166 HD
HETATM   16  C   UNL     1      17.570  51.960  46.521  1.00  0.00     0.043 A 
HETATM   17  C   UNL     1      18.312  50.894  47.024  1.00  0.00     0.003 A 
HETATM   18  C   UNL     1      17.360  52.169  45.151  1.00  0.00     0.030 A 
HETATM   19  C   UNL     1      18.869  49.987  46.093  1.00  0.00     0.014 A 
HETATM   20  C   UNL     1      18.669  50.177  44.721  1.00  0.00     0.001 A 
HETATM   21  C   UNL     1      17.923  51.255  44.259  1.00  0.00     0.002 A 
ENDBRANCH   1  11
BRANCH   1  22
HETATM   22  O   UNL     1      18.543  50.076  50.753  1.00  0.00    -0.371 OA
HETATM   23  H   UNL     1      19.268  50.541  51.197  1.00  0.00     0.212 HD
ENDBRANCH   1  22
BRANCH   4  24
HETATM   24  C   UNL     1      22.140  48.293  48.262  1.00  0.00     0.137 C 
BRANCH  24  25
HETATM   25  C   UNL     1      23.119  47.918  49.382  1.00  0.00     0.058 C 
BRANCH  25  26
HETATM   26  C   UNL     1      24.482  48.517  49.132  1.00  0.00    -0.057 A 
HETATM   27  C   UNL     1      24.617  49.614  48.269  1.00  0.00     0.007 A 
HETATM   28  C   UNL     1      25.876  50.151  47.997  1.00  0.00     0.001 A 
HETATM   29  C   UNL     1      27.010  49.601  48.591  1.00  0.00     0.000 A 
HETATM   30  C   UNL     1      26.884  48.515  49.458  1.00  0.00     0.001 A 
HETATM   31  C   UNL     1      25.626  47.973  49.727  1.00  0.00     0.007 A 
ENDBRANCH  25  26
ENDBRANCH  24  25
ENDBRANCH   4  24
TORSDOF 5
ENDMDL
MODEL 4
REMARK VINA RESULT:      -8.4     25.513     27.428
REMARK  5 active torsions:
REMARK  status: ('A' for Active; 'I' for Inactive)
REMARK    1  A    between atoms: C_7  and  C_8 
REMARK    2  A    between atoms: C_8  and  O_9 
REMARK    3  A    between atoms: N_12  and  C_13 
REMARK    4  A    between atoms: C_13  and  C_14 
REMARK    5  A    between atoms: C_14  and  C_15 
ROOT
HETATM    1  C   UNL     1      38.155  47.615  65.025  1.00  0.00     0.199 A 
HETATM    2  C   UNL     1      37.190  46.392  64.857  1.00  0.00     0.269 A 
HETATM    3  O   UNL     1      35.968  46.397  64.923  1.00  0.00    -0.269 OA
HETATM    4  N   UNL     1      37.990  45.262  64.599  1.00  0.00    -0.314 N 
HETATM    5  C   UNL     1      39.352  45.590  64.634  1.00  0.00     0.047 A 
HETATM    6  C   UNL     1      39.510  46.959  64.890  1.00  0.00     0.017 A 
HETATM    7  C   UNL     1      40.449  44.764  64.461  1.00  0.00     0.030 A 
HETATM    8  C   UNL     1      41.724  45.336  64.534  1.00  0.00     0.002 A 
HETATM    9  C   UNL     1      41.886  46.709  64.772  1.00  0.00     0.001 A 
HETATM   10  C   UNL     1      40.773  47.534  64.944  1.00  0.00     0.013 A 
ENDROOT
BRANCH   1  11
HETATM   11  C   UNL     1      37.998  48.207  66.414  1.00  0.00     0.025 A 
HETATM   12  C   UNL     1      37.805  47.573  67.647  1.00  0.00     0.016 A 
HETATM   13  C   UNL     1      37.713  46.139  68.037  1.00  0.00     0.069 C 
HETATM   14  N   UNL     1      37.659  48.545  68.606  1.00  0.00    -0.359 N 
HETATM   15  H   UNL     1      37.504  48.369  69.588  1.00  0.00     0.166 HD
HETATM   16  C   UNL     1      37.657  49.794  68.045  1.00  0.00     0.043 A 
HETATM   17  C   UNL     1      37.873  49.626  66.679  1.00  0.00     0.003 A 
HETATM   18  C   UNL     1      37.463  51.046  68.643  1.00  0.00     0.030 A 
HETATM   19  C   UNL     1      37.889  50.786  65.871  1.00  0.00     0.014 A 
HETATM   20  C   UNL     1      37.694  52.046  66.448  1.00  0.00     0.001 A 
HETATM   21  C   UNL     1      37.483  52.171  67.817  1.00  0.00     0.002 A 
ENDBRANCH   1  11
BRANCH   1  22
HETATM   22  O   UNL     1      38.030  48.569  63.975  1.00  0.00    -0.371 OA
HETATM   23  H   UNL     1      38.144  49.445  64.376  1.00  0.00     0.212 HD
ENDBRANCH   1  22
BRANCH   4  24
HETATM   24  C   UNL     1      37.446  43.920  64.580  1.00  0.00     0.137 C 
BRANCH  24  25
HETATM   25  C   UNL     1      37.649  43.195  63.243  1.00  0.00     0.058 C 
BRANCH  25  26
HETATM   26  C   UNL     1      38.256  41.829  63.456  1.00  0.00    -0.057 A 
HETATM   27  C   UNL     1      38.164  41.209  64.711  1.00  0.00     0.007 A 
HETATM   28  C   UNL     1      38.756  39.965  64.932  1.00  0.00     0.001 A 
HETATM   29  C   UNL     1      39.440  39.327  63.900  1.00  0.00     0.000 A 
HETATM   30  C   UNL     1      39.529  39.931  62.646  1.00  0.00     0.001 A 
HETATM   31  C   UNL     1      38.941  41.178  62.424  1.00  0.00     0.007 A 
ENDBRANCH  25  26
ENDBRANCH  24  25
ENDBRANCH   4  24
TORSDOF 5
ENDMDL
MODEL 5
REMARK VINA RESULT:      -8.3     11.010     14.065
REMARK  5 active torsions:
REMARK  status: ('A' for Active; 'I' for Inactive)
REMARK    1  A    between atoms: C_7  and  C_8 
REMARK    2  A    between atoms: C_8  and  O_9 
REMARK    3  A    between atoms: N_12  and  C_13 
REMARK    4  A    between atoms: C_13  and  C_14 
REMARK    5  A    between atoms: C_14  and  C_15 
ROOT
HETATM    1  C   UNL     1      26.535  45.319  50.789  1.00  0.00     0.199 A 
HETATM    2  C   UNL     1      26.039  46.773  50.479  1.00  0.00     0.269 A 
HETATM    3  O   UNL     1      26.683  47.810  50.560  1.00  0.00    -0.269 OA
HETATM    4  N   UNL     1      24.694  46.675  50.072  1.00  0.00    -0.314 N 
HETATM    5  C   UNL     1      24.243  45.349  50.132  1.00  0.00     0.047 A 
HETATM    6  C   UNL     1      25.282  44.508  50.556  1.00  0.00     0.017 A 
HETATM    7  C   UNL     1      22.988  44.845  49.843  1.00  0.00     0.030 A 
HETATM    8  C   UNL     1      22.784  43.466  49.972  1.00  0.00     0.002 A 
HETATM    9  C   UNL     1      23.826  42.619  50.379  1.00  0.00     0.001 A 
HETATM   10  C   UNL     1      25.090  43.137  50.667  1.00  0.00     0.013 A 
ENDROOT
BRANCH   1  11
HETATM   11  C   UNL     1      26.960  45.219  52.243  1.00  0.00     0.025 A 
HETATM   12  C   UNL     1      26.561  45.975  53.351  1.00  0.00     0.016 A 
HETATM   13  C   UNL     1      25.593  47.095  53.509  1.00  0.00     0.069 C 
HETATM   14  N   UNL     1      27.275  45.541  54.441  1.00  0.00    -0.359 N 
HETATM   15  H   UNL     1      27.189  45.915  55.374  1.00  0.00     0.166 HD
HETATM   16  C   UNL     1      28.193  44.591  54.081  1.00  0.00     0.043 A 
HETATM   17  C   UNL     1      28.023  44.358  52.718  1.00  0.00     0.003 A 
HETATM   18  C   UNL     1      29.164  43.943  54.855  1.00  0.00     0.030 A 
HETATM   19  C   UNL     1      28.885  43.421  52.102  1.00  0.00     0.014 A 
HETATM   20  C   UNL     1      29.863  42.764  52.857  1.00  0.00     0.001 A 
HETATM   21  C   UNL     1      30.000  43.025  54.216  1.00  0.00     0.002 A 
ENDBRANCH   1  11
BRANCH   1  22
HETATM   22  O   UNL     1      27.522  44.862  49.869  1.00  0.00    -0.371 OA
HETATM   23  H   UNL     1      28.218  44.434  50.392  1.00  0.00     0.212 HD
ENDBRANCH   1  22
BRANCH   4  24
HETATM   24  C   UNL     1      23.856  47.842  49.890  1.00  0.00     0.137 C 
BRANCH  24  25
HETATM   25  C   UNL     1      23.585  48.180  48.419  1.00  0.00     0.058 C 
BRANCH  25  26
HETATM   26  C   UNL     1      22.407  49.115  48.287  1.00  0.00    -0.057 A 
HETATM   27  C   UNL     1      21.213  48.661  47.706  1.00  0.00     0.007 A 
HETATM   28  C   UNL     1      20.131  49.526  47.542  1.00  0.00     0.001 A 
HETATM   29  C   UNL     1      20.229  50.850  47.963  1.00  0.00     0.000 A 
HETATM   30  C   UNL     1      21.408  51.308  48.550  1.00  0.00     0.001 A 
HETATM   31  C   UNL     1      22.494  50.446  48.711  1.00  0.00     0.007 A 
ENDBRANCH  25  26
ENDBRANCH  24  25
ENDBRANCH   4  24
TORSDOF 5
ENDMDL
MODEL 6
REMARK VINA RESULT:      -8.1     12.724     15.406
REMARK  5 active torsions:
REMARK  status: ('A' for Active; 'I' for Inactive)
REMARK    1  A    between atoms: C_7  and  C_8 
REMARK    2  A    between atoms: C_8  and  O_9 
REMARK    3  A    between atoms: N_12  and  C_13 
REMARK    4  A    between atoms: C_13  and  C_14 
REMARK    5  A    between atoms: C_14  and  C_15 
ROOT
HETATM    1  C   UNL     1      26.402  44.521  53.576  1.00  0.00     0.199 A 
HETATM    2  C   UNL     1      26.946  43.074  53.316  1.00  0.00     0.269 A 
HETATM    3  O   UNL     1      27.111  42.184  54.140  1.00  0.00    -0.269 OA
HETATM    4  N   UNL     1      27.209  42.970  51.937  1.00  0.00    -0.314 N 
HETATM    5  C   UNL     1      26.955  44.183  51.281  1.00  0.00     0.047 A 
HETATM    6  C   UNL     1      26.487  45.135  52.198  1.00  0.00     0.017 A 
HETATM    7  C   UNL     1      27.114  44.497  49.944  1.00  0.00     0.030 A 
HETATM    8  C   UNL     1      26.781  45.790  49.524  1.00  0.00     0.002 A 
HETATM    9  C   UNL     1      26.295  46.740  50.436  1.00  0.00     0.001 A 
HETATM   10  C   UNL     1      26.137  46.413  51.783  1.00  0.00     0.013 A 
ENDROOT
BRANCH   1  11
HETATM   11  C   UNL     1      27.326  45.254  54.532  1.00  0.00     0.025 A 
HETATM   12  C   UNL     1      27.226  46.541  55.072  1.00  0.00     0.016 A 
HETATM   13  C   UNL     1      26.202  47.613  54.933  1.00  0.00     0.069 C 
HETATM   14  N   UNL     1      28.343  46.769  55.837  1.00  0.00    -0.359 N 
HETATM   15  H   UNL     1      28.532  47.621  56.344  1.00  0.00     0.166 HD
HETATM   16  C   UNL     1      29.219  45.721  55.753  1.00  0.00     0.043 A 
HETATM   17  C   UNL     1      28.618  44.752  54.953  1.00  0.00     0.003 A 
HETATM   18  C   UNL     1      30.497  45.572  56.309  1.00  0.00     0.030 A 
HETATM   19  C   UNL     1      29.349  43.569  54.695  1.00  0.00     0.014 A 
HETATM   20  C   UNL     1      30.628  43.402  55.239  1.00  0.00     0.001 A 
HETATM   21  C   UNL     1      31.193  44.393  56.034  1.00  0.00     0.002 A 
ENDBRANCH   1  11
BRANCH   1  22
HETATM   22  O   UNL     1      25.034  44.536  53.972  1.00  0.00    -0.371 OA
HETATM   23  H   UNL     1      24.993  44.144  54.858  1.00  0.00     0.212 HD
ENDBRANCH   1  22
BRANCH   4  24
HETATM   24  C   UNL     1      27.903  41.834  51.367  1.00  0.00     0.137 C 
BRANCH  24  25
HETATM   25  C   UNL     1      26.967  40.804  50.720  1.00  0.00     0.058 C 
BRANCH  25  26
HETATM   26  C   UNL     1      27.747  39.808  49.897  1.00  0.00    -0.057 A 
HETATM   27  C   UNL     1      28.836  39.128  50.464  1.00  0.00     0.007 A 
HETATM   28  C   UNL     1      29.590  38.236  49.702  1.00  0.00     0.001 A 
HETATM   29  C   UNL     1      29.259  38.008  48.368  1.00  0.00     0.000 A 
HETATM   30  C   UNL     1      28.173  38.672  47.798  1.00  0.00     0.001 A 
HETATM   31  C   UNL     1      27.420  39.569  48.557  1.00  0.00     0.007 A 
ENDBRANCH  25  26
ENDBRANCH  24  25
ENDBRANCH   4  24
TORSDOF 5
ENDMDL
MODEL 7
REMARK VINA RESULT:      -8.0      2.195      7.295
REMARK  5 active torsions:
REMARK  status: ('A' for Active; 'I' for Inactive)
REMARK    1  A    between atoms: C_7  and  C_8 
REMARK    2  A    between atoms: C_8  and  O_9 
REMARK    3  A    between atoms: N_12  and  C_13 
REMARK    4  A    between atoms: C_13  and  C_14 
REMARK    5  A    between atoms: C_14  and  C_15 
ROOT
HETATM    1  C   UNL     1      32.032  51.483  42.046  1.00  0.00     0.199 A 
HETATM    2  C   UNL     1      31.418  50.087  42.404  1.00  0.00     0.269 A 
HETATM    3  O   UNL     1      31.987  49.137  42.925  1.00  0.00    -0.269 OA
HETATM    4  N   UNL     1      30.062  50.118  42.024  1.00  0.00    -0.314 N 
HETATM    5  C   UNL     1      29.737  51.339  41.415  1.00  0.00     0.047 A 
HETATM    6  C   UNL     1      30.861  52.177  41.392  1.00  0.00     0.017 A 
HETATM    7  C   UNL     1      28.528  51.749  40.882  1.00  0.00     0.030 A 
HETATM    8  C   UNL     1      28.451  53.032  40.330  1.00  0.00     0.002 A 
HETATM    9  C   UNL     1      29.568  53.881  40.322  1.00  0.00     0.001 A 
HETATM   10  C   UNL     1      30.783  53.459  40.863  1.00  0.00     0.013 A 
ENDROOT
BRANCH   1  11
HETATM   11  C   UNL     1      33.160  51.306  41.044  1.00  0.00     0.025 A 
HETATM   12  C   UNL     1      33.111  51.038  39.672  1.00  0.00     0.016 A 
HETATM   13  C   UNL     1      31.979  50.860  38.721  1.00  0.00     0.069 C 
HETATM   14  N   UNL     1      34.401  50.908  39.218  1.00  0.00    -0.359 N 
HETATM   15  H   UNL     1      34.660  50.709  38.263  1.00  0.00     0.166 HD
HETATM   16  C   UNL     1      35.296  50.989  40.250  1.00  0.00     0.043 A 
HETATM   17  C   UNL     1      34.561  51.244  41.406  1.00  0.00     0.003 A 
HETATM   18  C   UNL     1      36.689  50.837  40.245  1.00  0.00     0.030 A 
HETATM   19  C   UNL     1      35.271  51.347  42.624  1.00  0.00     0.014 A 
HETATM   20  C   UNL     1      36.663  51.197  42.641  1.00  0.00     0.001 A 
HETATM   21  C   UNL     1      37.360  50.944  41.464  1.00  0.00     0.002 A 
ENDBRANCH   1  11
BRANCH   1  22
HETATM   22  O   UNL     1      32.397  52.240  43.195  1.00  0.00    -0.371 OA
HETATM   23  H   UNL     1      33.360  52.170  43.284  1.00  0.00     0.212 HD
ENDBRANCH   1  22
BRANCH   4  24
HETATM   24  C   UNL     1      29.231  48.933  42.031  1.00  0.00     0.137 C 
BRANCH  24  25
HETATM   25  C   UNL     1      29.242  48.166  40.703  1.00  0.00     0.058 C 
BRANCH  25  26
HETATM   26  C   UNL     1      27.988  48.441  39.909  1.00  0.00    -0.057 A 
HETATM   27  C   UNL     1      28.081  48.946  38.604  1.00  0.00     0.007 A 
HETATM   28  C   UNL     1      26.929  49.243  37.875  1.00  0.00     0.001 A 
HETATM   29  C   UNL     1      25.674  49.030  38.440  1.00  0.00     0.000 A 
HETATM   30  C   UNL     1      25.571  48.519  39.734  1.00  0.00     0.001 A 
HETATM   31  C   UNL     1      26.722  48.226  40.467  1.00  0.00     0.007 A 
ENDBRANCH  25  26
ENDBRANCH  24  25
ENDBRANCH   4  24
TORSDOF 5
ENDMDL
MODEL 8
REMARK VINA RESULT:      -7.9     12.337     15.253
REMARK  5 active torsions:
REMARK  status: ('A' for Active; 'I' for Inactive)
REMARK    1  A    between atoms: C_7  and  C_8 
REMARK    2  A    between atoms: C_8  and  O_9 
REMARK    3  A    between atoms: N_12  and  C_13 
REMARK    4  A    between atoms: C_13  and  C_14 
REMARK    5  A    between atoms: C_14  and  C_15 
ROOT
HETATM    1  C   UNL     1      26.298  44.974  53.643  1.00  0.00     0.199 A 
HETATM    2  C   UNL     1      26.672  43.506  53.243  1.00  0.00     0.269 A 
HETATM    3  O   UNL     1      26.769  42.537  53.985  1.00  0.00    -0.269 OA
HETATM    4  N   UNL     1      26.872  43.492  51.850  1.00  0.00    -0.314 N 
HETATM    5  C   UNL     1      26.728  44.776  51.306  1.00  0.00     0.047 A 
HETATM    6  C   UNL     1      26.399  45.691  52.317  1.00  0.00     0.017 A 
HETATM    7  C   UNL     1      26.871  45.184  49.993  1.00  0.00     0.030 A 
HETATM    8  C   UNL     1      26.666  46.536  49.694  1.00  0.00     0.002 A 
HETATM    9  C   UNL     1      26.319  47.451  50.700  1.00  0.00     0.001 A 
HETATM   10  C   UNL     1      26.175  47.030  52.023  1.00  0.00     0.013 A 
ENDROOT
BRANCH   1  11
HETATM   11  C   UNL     1      27.330  45.522  54.613  1.00  0.00     0.025 A 
HETATM   12  C   UNL     1      27.377  46.752  55.278  1.00  0.00     0.016 A 
HETATM   13  C   UNL     1      26.455  47.921  55.297  1.00  0.00     0.069 C 
HETATM   14  N   UNL     1      28.545  46.801  55.999  1.00  0.00    -0.359 N 
HETATM   15  H   UNL     1      28.837  47.579  56.573  1.00  0.00     0.166 HD
HETATM   16  C   UNL     1      29.313  45.692  55.768  1.00  0.00     0.043 A 
HETATM   17  C   UNL     1      28.586  44.866  54.913  1.00  0.00     0.003 A 
HETATM   18  C   UNL     1      30.595  45.375  56.235  1.00  0.00     0.030 A 
HETATM   19  C   UNL     1      29.190  43.654  54.504  1.00  0.00     0.014 A 
HETATM   20  C   UNL     1      30.471  43.319  54.958  1.00  0.00     0.001 A 
HETATM   21  C   UNL     1      31.163  44.171  55.812  1.00  0.00     0.002 A 
ENDBRANCH   1  11
BRANCH   1  22
HETATM   22  O   UNL     1      24.955  45.100  54.101  1.00  0.00    -0.371 OA
HETATM   23  H   UNL     1      24.422  44.475  53.585  1.00  0.00     0.212 HD
ENDBRANCH   1  22
BRANCH   4  24
HETATM   24  C   UNL     1      27.417  42.342  51.160  1.00  0.00     0.137 C 
BRANCH  24  25
HETATM   25  C   UNL     1      26.370  41.269  50.832  1.00  0.00     0.058 C 
BRANCH  25  26
HETATM   26  C   UNL     1      25.233  41.851  50.028  1.00  0.00    -0.057 A 
HETATM   27  C   UNL     1      25.305  41.872  48.627  1.00  0.00     0.007 A 
HETATM   28  C   UNL     1      24.279  42.444  47.873  1.00  0.00     0.001 A 
HETATM   29  C   UNL     1      23.170  42.992  48.512  1.00  0.00     0.000 A 
HETATM   30  C   UNL     1      23.085  42.967  49.904  1.00  0.00     0.001 A 
HETATM   31  C   UNL     1      24.112  42.400  50.660  1.00  0.00     0.007 A 
ENDBRANCH  25  26
ENDBRANCH  24  25
ENDBRANCH   4  24
TORSDOF 5
ENDMDL
MODEL 9
REMARK VINA RESULT:      -7.8      2.551      7.947
REMARK  5 active torsions:
REMARK  status: ('A' for Active; 'I' for Inactive)
REMARK    1  A    between atoms: C_7  and  C_8 
REMARK    2  A    between atoms: C_8  and  O_9 
REMARK    3  A    between atoms: N_12  and  C_13 
REMARK    4  A    between atoms: C_13  and  C_14 
REMARK    5  A    between atoms: C_14  and  C_15 
ROOT
HETATM    1  C   UNL     1      34.439  50.853  40.760  1.00  0.00     0.199 A 
HETATM    2  C   UNL     1      33.671  51.935  39.926  1.00  0.00     0.269 A 
HETATM    3  O   UNL     1      34.052  53.063  39.644  1.00  0.00    -0.269 OA
HETATM    4  N   UNL     1      32.442  51.367  39.539  1.00  0.00    -0.314 N 
HETATM    5  C   UNL     1      32.295  50.075  40.063  1.00  0.00     0.047 A 
HETATM    6  C   UNL     1      33.436  49.724  40.799  1.00  0.00     0.017 A 
HETATM    7  C   UNL     1      31.229  49.203  39.938  1.00  0.00     0.030 A 
HETATM    8  C   UNL     1      31.324  47.950  40.554  1.00  0.00     0.002 A 
HETATM    9  C   UNL     1      32.472  47.588  41.276  1.00  0.00     0.001 A 
HETATM   10  C   UNL     1      33.543  48.474  41.396  1.00  0.00     0.013 A 
ENDROOT
BRANCH   1  11
HETATM   11  C   UNL     1      34.694  51.373  42.164  1.00  0.00     0.025 A 
HETATM   12  C   UNL     1      33.804  51.583  43.222  1.00  0.00     0.016 A 
HETATM   13  C   UNL     1      32.338  51.360  43.363  1.00  0.00     0.069 C 
HETATM   14  N   UNL     1      34.508  52.124  44.270  1.00  0.00    -0.359 N 
HETATM   15  H   UNL     1      34.111  52.378  45.163  1.00  0.00     0.166 HD
HETATM   16  C   UNL     1      35.809  52.362  43.917  1.00  0.00     0.043 A 
HETATM   17  C   UNL     1      35.967  51.901  42.612  1.00  0.00     0.003 A 
HETATM   18  C   UNL     1      36.841  52.965  44.648  1.00  0.00     0.030 A 
HETATM   19  C   UNL     1      37.236  52.061  42.010  1.00  0.00     0.014 A 
HETATM   20  C   UNL     1      38.280  52.663  42.722  1.00  0.00     0.001 A 
HETATM   21  C   UNL     1      38.082  53.110  44.024  1.00  0.00     0.002 A 
ENDBRANCH   1  11
BRANCH   1  22
HETATM   22  O   UNL     1      35.607  50.372  40.104  1.00  0.00    -0.371 OA
HETATM   23  H   UNL     1      35.427  50.400  39.151  1.00  0.00     0.212 HD
ENDBRANCH   1  22
BRANCH   4  24
HETATM   24  C   UNL     1      31.393  52.147  38.917  1.00  0.00     0.137 C 
BRANCH  24  25
HETATM   25  C   UNL     1      30.388  52.733  39.916  1.00  0.00     0.058 C 
BRANCH  25  26
HETATM   26  C   UNL     1      29.134  51.894  39.978  1.00  0.00    -0.057 A 
HETATM   27  C   UNL     1      28.646  51.453  41.217  1.00  0.00     0.007 A 
HETATM   28  C   UNL     1      27.512  50.643  41.284  1.00  0.00     0.001 A 
HETATM   29  C   UNL     1      26.852  50.272  40.115  1.00  0.00     0.000 A 
HETATM   30  C   UNL     1      27.324  50.713  38.879  1.00  0.00     0.001 A 
HETATM   31  C   UNL     1      28.462  51.519  38.809  1.00  0.00     0.007 A 
ENDBRANCH  25  26
ENDBRANCH  24  25
ENDBRANCH   4  24
TORSDOF 5
ENDMDL
MODEL 10
REMARK VINA RESULT:      -7.8      2.995      7.937
REMARK  5 active torsions:
REMARK  status: ('A' for Active; 'I' for Inactive)
REMARK    1  A    between atoms: C_7  and  C_8 
REMARK    2  A    between atoms: C_8  and  O_9 
REMARK    3  A    between atoms: N_12  and  C_13 
REMARK    4  A    between atoms: C_13  and  C_14 
REMARK    5  A    between atoms: C_14  and  C_15 
ROOT
HETATM    1  C   UNL     1      33.751  51.321  40.180  1.00  0.00     0.199 A 
HETATM    2  C   UNL     1      32.912  52.640  40.274  1.00  0.00     0.269 A 
HETATM    3  O   UNL     1      33.207  53.741  39.828  1.00  0.00    -0.269 OA
HETATM    4  N   UNL     1      31.727  52.331  40.970  1.00  0.00    -0.314 N 
HETATM    5  C   UNL     1      31.720  50.992  41.384  1.00  0.00     0.047 A 
HETATM    6  C   UNL     1      32.891  50.351  40.955  1.00  0.00     0.017 A 
HETATM    7  C   UNL     1      30.759  50.313  42.110  1.00  0.00     0.030 A 
HETATM    8  C   UNL     1      30.979  48.960  42.396  1.00  0.00     0.002 A 
HETATM    9  C   UNL     1      32.141  48.311  41.953  1.00  0.00     0.001 A 
HETATM   10  C   UNL     1      33.105  49.004  41.219  1.00  0.00     0.013 A 
ENDROOT
BRANCH   1  11
HETATM   11  C   UNL     1      35.086  51.509  40.879  1.00  0.00     0.025 A 
HETATM   12  C   UNL     1      35.372  51.706  42.235  1.00  0.00     0.016 A 
HETATM   13  C   UNL     1      34.508  51.775  43.445  1.00  0.00     0.069 C 
HETATM   14  N   UNL     1      36.728  51.885  42.362  1.00  0.00    -0.359 N 
HETATM   15  H   UNL     1      37.210  52.049  43.233  1.00  0.00     0.166 HD
HETATM   16  C   UNL     1      37.338  51.903  41.137  1.00  0.00     0.043 A 
HETATM   17  C   UNL     1      36.348  51.665  40.186  1.00  0.00     0.003 A 
HETATM   18  C   UNL     1      38.680  52.131  40.806  1.00  0.00     0.030 A 
HETATM   19  C   UNL     1      36.734  51.662  38.825  1.00  0.00     0.014 A 
HETATM   20  C   UNL     1      38.070  51.889  38.474  1.00  0.00     0.001 A 
HETATM   21  C   UNL     1      39.028  52.121  39.454  1.00  0.00     0.002 A 
ENDBRANCH   1  11
BRANCH   1  22
HETATM   22  O   UNL     1      33.865  50.830  38.848  1.00  0.00    -0.371 OA
HETATM   23  H   UNL     1      34.768  51.021  38.553  1.00  0.00     0.212 HD
ENDBRANCH   1  22
BRANCH   4  24
HETATM   24  C   UNL     1      30.801  53.354  41.409  1.00  0.00     0.137 C 
BRANCH  24  25
HETATM   25  C   UNL     1      29.792  53.773  40.332  1.00  0.00     0.058 C 
BRANCH  25  26
HETATM   26  C   UNL     1      28.836  52.646  40.019  1.00  0.00    -0.057 A 
HETATM   27  C   UNL     1      28.028  52.111  41.033  1.00  0.00     0.007 A 
HETATM   28  C   UNL     1      27.171  51.043  40.766  1.00  0.00     0.001 A 
HETATM   29  C   UNL     1      27.108  50.506  39.482  1.00  0.00     0.000 A 
HETATM   30  C   UNL     1      27.900  51.038  38.465  1.00  0.00     0.001 A 
HETATM   31  C   UNL     1      28.763  52.103  38.731  1.00  0.00     0.007 A 
ENDBRANCH  25  26
ENDBRANCH  24  25
ENDBRANCH   4  24
TORSDOF 5
ENDMDL
