MODEL 1
REMARK VINA RESULT:      -8.7      0.000      0.000
REMARK  4 active torsions:
REMARK  status: ('A' for Active; 'I' for Inactive)
REMARK    1  A    between atoms: N_2  and  C_3 
REMARK    2  A    between atoms: C_5  and  C_6 
REMARK    3  A    between atoms: C_6  and  C_7 
REMARK    4  A    between atoms: C_13  and  O_14 
ROOT
HETATM    1  C   UNL     1      23.897  47.855  49.678  1.00  0.00     0.113 A 
HETATM    2  N   UNL     1      24.411  46.950  50.536  1.00  0.00    -0.223 NA
HETATM    3  C   UNL     1      25.753  46.941  50.745  1.00  0.00     0.106 A 
HETATM    4  N   UNL     1      26.601  47.787  50.134  1.00  0.00    -0.347 N 
HETATM    5  H   UNL     1      27.610  47.703  50.291  1.00  0.00     0.167 HD
HETATM    6  C   UNL     1      26.098  48.680  49.288  1.00  0.00     0.020 A 
HETATM    7  C   UNL     1      24.736  48.743  49.042  1.00  0.00     0.005 A 
HETATM    8  C   UNL     1      24.435  49.810  48.040  1.00  0.00     0.044 C 
HETATM    9  C   UNL     1      25.741  50.626  48.061  1.00  0.00     0.011 C 
HETATM   10  C   UNL     1      26.868  49.663  48.468  1.00  0.00     0.058 C 
ENDROOT
BRANCH   3  11
HETATM   11  C   UNL     1      26.321  45.910  51.676  1.00  0.00     0.085 C 
BRANCH  11  12
HETATM   12  C   UNL     1      25.507  45.696  52.980  1.00  0.00     0.021 C 
HETATM   13  C   UNL     1      25.492  44.250  53.476  1.00  0.00     0.181 C 
HETATM   14  O   UNL     1      26.832  43.740  53.498  1.00  0.00    -0.347 OA
HETATM   15  C   UNL     1      27.671  44.504  54.283  1.00  0.00     0.108 A 
HETATM   16  C   UNL     1      27.387  45.842  54.612  1.00  0.00    -0.021 A 
HETATM   17  C   UNL     1      28.881  43.929  54.681  1.00  0.00     0.102 A 
HETATM   18  C   UNL     1      26.129  46.515  54.120  1.00  0.00     0.048 C 
HETATM   19  C   UNL     1      28.298  46.561  55.397  1.00  0.00     0.010 A 
HETATM   20  C   UNL     1      29.499  45.974  55.801  1.00  0.00     0.003 A 
HETATM   21  C   UNL     1      29.801  44.665  55.427  1.00  0.00     0.039 A 
BRANCH  17  22
HETATM   22  O   UNL     1      29.223  42.664  54.282  1.00  0.00    -0.353 OA
HETATM   23  C   UNL     1      30.183  42.726  53.224  1.00  0.00     0.210 C 
ENDBRANCH  17  22
ENDBRANCH  11  12
ENDBRANCH   3  11
BRANCH   1  24
HETATM   24  N   UNL     1      22.522  47.952  49.494  1.00  0.00    -0.281 NA
HETATM   25  C   UNL     1      21.948  47.112  48.453  1.00  0.00     0.114 C 
HETATM   26  H   UNL     1      22.211  48.917  49.419  1.00  0.00     0.128 HD
ENDBRANCH   1  24
TORSDOF 4
ENDMDL
MODEL 2
REMARK VINA RESULT:      -8.6      2.998      7.490
REMARK  4 active torsions:
REMARK  status: ('A' for Active; 'I' for Inactive)
REMARK    1  A    between atoms: N_2  and  C_3 
REMARK    2  A    between atoms: C_5  and  C_6 
REMARK    3  A    between atoms: C_6  and  C_7 
REMARK    4  A    between atoms: C_13  and  O_14 
ROOT
HETATM    1  C   UNL     1      28.941  42.943  53.264  1.00  0.00     0.113 A 
HETATM    2  N   UNL     1      27.874  43.370  52.559  1.00  0.00    -0.223 NA
HETATM    3  C   UNL     1      27.247  44.509  52.954  1.00  0.00     0.106 A 
HETATM    4  N   UNL     1      27.633  45.233  54.019  1.00  0.00    -0.347 N 
HETATM    5  H   UNL     1      27.092  46.057  54.301  1.00  0.00     0.167 HD
HETATM    6  C   UNL     1      28.684  44.814  54.717  1.00  0.00     0.020 A 
HETATM    7  C   UNL     1      29.368  43.665  54.357  1.00  0.00     0.005 A 
HETATM    8  C   UNL     1      30.487  43.403  55.312  1.00  0.00     0.044 C 
HETATM    9  C   UNL     1      30.617  44.768  56.013  1.00  0.00     0.011 C 
HETATM   10  C   UNL     1      29.233  45.436  55.959  1.00  0.00     0.058 C 
ENDROOT
BRANCH   3  11
HETATM   11  C   UNL     1      26.040  44.961  52.183  1.00  0.00     0.085 C 
BRANCH  11  12
HETATM   12  C   UNL     1      25.984  44.459  50.715  1.00  0.00     0.021 C 
HETATM   13  C   UNL     1      24.689  44.812  49.984  1.00  0.00     0.181 C 
HETATM   14  O   UNL     1      24.402  46.204  50.168  1.00  0.00    -0.347 OA
HETATM   15  C   UNL     1      25.431  47.014  49.732  1.00  0.00     0.108 A 
HETATM   16  C   UNL     1      26.750  46.547  49.586  1.00  0.00    -0.021 A 
HETATM   17  C   UNL     1      25.140  48.363  49.515  1.00  0.00     0.102 A 
HETATM   18  C   UNL     1      27.108  45.115  49.900  1.00  0.00     0.048 C 
HETATM   19  C   UNL     1      27.746  47.435  49.159  1.00  0.00     0.010 A 
HETATM   20  C   UNL     1      27.443  48.780  48.932  1.00  0.00     0.003 A 
HETATM   21  C   UNL     1      26.145  49.249  49.129  1.00  0.00     0.039 A 
BRANCH  17  22
HETATM   22  O   UNL     1      23.885  48.860  49.754  1.00  0.00    -0.353 OA
HETATM   23  C   UNL     1      23.276  49.268  48.526  1.00  0.00     0.210 C 
ENDBRANCH  17  22
ENDBRANCH  11  12
ENDBRANCH   3  11
BRANCH   1  24
HETATM   24  N   UNL     1      29.660  41.827  52.850  1.00  0.00    -0.281 NA
HETATM   25  C   UNL     1      28.879  40.690  52.386  1.00  0.00     0.114 C 
HETATM   26  H   UNL     1      30.367  41.552  53.527  1.00  0.00     0.128 HD
ENDBRANCH   1  24
TORSDOF 4
ENDMDL
MODEL 3
REMARK VINA RESULT:      -8.4      3.869      7.773
REMARK  4 active torsions:
REMARK  status: ('A' for Active; 'I' for Inactive)
REMARK    1  A    between atoms: N_2  and  C_3 
REMARK    2  A    between atoms: C_5  and  C_6 
REMARK    3  A    between atoms: C_6  and  C_7 
REMARK    4  A    between atoms: C_13  and  O_14 
ROOT
HETATM    1  C   UNL     1      29.171  45.510  55.281  1.00  0.00     0.113 A 
HETATM    2  N   UNL     1      29.072  44.657  54.241  1.00  0.00    -0.223 NA
HETATM    3  C   UNL     1      29.825  43.526  54.253  1.00  0.00     0.106 A 
HETATM    4  N   UNL     1      30.672  43.214  55.250  1.00  0.00    -0.347 N 
HETATM    5  H   UNL     1      31.252  42.372  55.183  1.00  0.00     0.167 HD
HETATM    6  C   UNL     1      30.772  44.053  56.276  1.00  0.00     0.020 A 
HETATM    7  C   UNL     1      30.023  45.217  56.323  1.00  0.00     0.005 A 
HETATM    8  C   UNL     1      30.337  45.991  57.562  1.00  0.00     0.044 C 
HETATM    9  C   UNL     1      31.044  44.923  58.418  1.00  0.00     0.011 C 
HETATM   10  C   UNL     1      31.691  43.922  57.446  1.00  0.00     0.058 C 
ENDROOT
BRANCH   3  11
HETATM   11  C   UNL     1      29.733  42.598  53.077  1.00  0.00     0.085 C 
BRANCH  11  12
HETATM   12  C   UNL     1      28.841  41.349  53.306  1.00  0.00     0.021 C 
HETATM   13  C   UNL     1      27.351  41.664  53.446  1.00  0.00     0.181 C 
HETATM   14  O   UNL     1      26.943  42.523  52.373  1.00  0.00    -0.347 OA
HETATM   15  C   UNL     1      27.198  41.972  51.134  1.00  0.00     0.108 A 
HETATM   16  C   UNL     1      28.151  40.956  50.942  1.00  0.00    -0.021 A 
HETATM   17  C   UNL     1      26.532  42.522  50.036  1.00  0.00     0.102 A 
HETATM   18  C   UNL     1      28.949  40.406  52.099  1.00  0.00     0.048 C 
HETATM   19  C   UNL     1      28.371  40.461  49.649  1.00  0.00     0.010 A 
HETATM   20  C   UNL     1      27.691  41.008  48.559  1.00  0.00     0.003 A 
HETATM   21  C   UNL     1      26.786  42.052  48.748  1.00  0.00     0.039 A 
BRANCH  17  22
HETATM   22  O   UNL     1      25.679  43.583  50.189  1.00  0.00    -0.353 OA
HETATM   23  C   UNL     1      26.269  44.769  49.650  1.00  0.00     0.210 C 
ENDBRANCH  17  22
ENDBRANCH  11  12
ENDBRANCH   3  11
BRANCH   1  24
HETATM   24  N   UNL     1      28.362  46.639  55.347  1.00  0.00    -0.281 NA
HETATM   25  C   UNL     1      27.034  46.518  54.765  1.00  0.00     0.114 C 
HETATM   26  H   UNL     1      28.842  47.476  55.029  1.00  0.00     0.128 HD
ENDBRANCH   1  24
TORSDOF 4
ENDMDL
MODEL 4
REMARK VINA RESULT:      -8.3      1.274      2.601
REMARK  4 active torsions:
REMARK  status: ('A' for Active; 'I' for Inactive)
REMARK    1  A    between atoms: N_2  and  C_3 
REMARK    2  A    between atoms: C_5  and  C_6 
REMARK    3  A    between atoms: C_6  and  C_7 
REMARK    4  A    between atoms: C_13  and  O_14 
ROOT
HETATM    1  C   UNL     1      24.149  47.968  49.840  1.00  0.00     0.113 A 
HETATM    2  N   UNL     1      25.089  47.688  50.766  1.00  0.00    -0.223 NA
HETATM    3  C   UNL     1      25.330  46.387  51.075  1.00  0.00     0.106 A 
HETATM    4  N   UNL     1      24.673  45.360  50.508  1.00  0.00    -0.347 N 
HETATM    5  H   UNL     1      24.861  44.401  50.815  1.00  0.00     0.167 HD
HETATM    6  C   UNL     1      23.746  45.633  49.595  1.00  0.00     0.020 A 
HETATM    7  C   UNL     1      23.463  46.939  49.233  1.00  0.00     0.005 A 
HETATM    8  C   UNL     1      22.371  46.974  48.213  1.00  0.00     0.044 C 
HETATM    9  C   UNL     1      22.358  45.511  47.730  1.00  0.00     0.011 C 
HETATM   10  C   UNL     1      22.868  44.647  48.896  1.00  0.00     0.058 C 
ENDROOT
BRANCH   3  11
HETATM   11  C   UNL     1      26.354  46.084  52.129  1.00  0.00     0.085 C 
BRANCH  11  12
HETATM   12  C   UNL     1      25.787  45.964  53.568  1.00  0.00     0.021 C 
HETATM   13  C   UNL     1      25.295  44.562  53.930  1.00  0.00     0.181 C 
HETATM   14  O   UNL     1      26.301  43.601  53.584  1.00  0.00    -0.347 OA
HETATM   15  C   UNL     1      27.507  43.857  54.204  1.00  0.00     0.108 A 
HETATM   16  C   UNL     1      27.844  45.128  54.703  1.00  0.00    -0.021 A 
HETATM   17  C   UNL     1      28.441  42.819  54.247  1.00  0.00     0.102 A 
HETATM   18  C   UNL     1      26.887  46.289  54.589  1.00  0.00     0.048 C 
HETATM   19  C   UNL     1      29.097  45.317  55.301  1.00  0.00     0.010 A 
HETATM   20  C   UNL     1      30.021  44.269  55.352  1.00  0.00     0.003 A 
HETATM   21  C   UNL     1      29.701  43.026  54.807  1.00  0.00     0.039 A 
BRANCH  17  22
HETATM   22  O   UNL     1      28.172  41.605  53.672  1.00  0.00    -0.353 OA
HETATM   23  C   UNL     1      28.806  41.516  52.393  1.00  0.00     0.210 C 
ENDBRANCH  17  22
ENDBRANCH  11  12
ENDBRANCH   3  11
BRANCH   1  24
HETATM   24  N   UNL     1      23.925  49.280  49.436  1.00  0.00    -0.281 NA
HETATM   25  C   UNL     1      24.837  49.812  48.434  1.00  0.00     0.114 C 
HETATM   26  H   UNL     1      23.815  49.912  50.224  1.00  0.00     0.128 HD
ENDBRANCH   1  24
TORSDOF 4
ENDMDL
MODEL 5
REMARK VINA RESULT:      -8.2      2.791      7.298
REMARK  4 active torsions:
REMARK  status: ('A' for Active; 'I' for Inactive)
REMARK    1  A    between atoms: N_2  and  C_3 
REMARK    2  A    between atoms: C_5  and  C_6 
REMARK    3  A    between atoms: C_6  and  C_7 
REMARK    4  A    between atoms: C_13  and  O_14 
ROOT
HETATM    1  C   UNL     1      27.882  45.916  54.740  1.00  0.00     0.113 A 
HETATM    2  N   UNL     1      26.829  45.828  53.903  1.00  0.00    -0.223 NA
HETATM    3  C   UNL     1      26.712  44.725  53.118  1.00  0.00     0.106 A 
HETATM    4  N   UNL     1      27.598  43.714  53.128  1.00  0.00    -0.347 N 
HETATM    5  H   UNL     1      27.487  42.930  52.478  1.00  0.00     0.167 HD
HETATM    6  C   UNL     1      28.639  43.798  53.951  1.00  0.00     0.020 A 
HETATM    7  C   UNL     1      28.805  44.894  54.781  1.00  0.00     0.005 A 
HETATM    8  C   UNL     1      30.059  44.755  55.584  1.00  0.00     0.044 C 
HETATM    9  C   UNL     1      30.363  43.255  55.417  1.00  0.00     0.011 C 
HETATM   10  C   UNL     1      29.760  42.819  54.071  1.00  0.00     0.058 C 
ENDROOT
BRANCH   3  11
HETATM   11  C   UNL     1      25.554  44.649  52.166  1.00  0.00     0.085 C 
BRANCH  11  12
HETATM   12  C   UNL     1      25.931  44.236  50.718  1.00  0.00     0.021 C 
HETATM   13  C   UNL     1      24.746  44.190  49.753  1.00  0.00     0.181 C 
HETATM   14  O   UNL     1      23.991  45.402  49.868  1.00  0.00    -0.347 OA
HETATM   15  C   UNL     1      24.758  46.523  49.626  1.00  0.00     0.108 A 
HETATM   16  C   UNL     1      26.160  46.517  49.736  1.00  0.00    -0.021 A 
HETATM   17  C   UNL     1      24.085  47.716  49.347  1.00  0.00     0.102 A 
HETATM   18  C   UNL     1      26.906  45.263  50.123  1.00  0.00     0.048 C 
HETATM   19  C   UNL     1      26.870  47.701  49.496  1.00  0.00     0.010 A 
HETATM   20  C   UNL     1      26.189  48.885  49.204  1.00  0.00     0.003 A 
HETATM   21  C   UNL     1      24.796  48.898  49.150  1.00  0.00     0.039 A 
BRANCH  17  22
HETATM   22  O   UNL     1      22.716  47.766  49.341  1.00  0.00    -0.353 OA
HETATM   23  C   UNL     1      22.231  47.796  47.996  1.00  0.00     0.210 C 
ENDBRANCH  17  22
ENDBRANCH  11  12
ENDBRANCH   3  11
BRANCH   1  24
HETATM   24  N   UNL     1      28.000  46.988  55.617  1.00  0.00    -0.281 NA
HETATM   25  C   UNL     1      26.928  47.972  55.582  1.00  0.00     0.114 C 
HETATM   26  H   UNL     1      28.917  47.423  55.573  1.00  0.00     0.128 HD
ENDBRANCH   1  24
TORSDOF 4
ENDMDL
MODEL 6
REMARK VINA RESULT:      -8.1      3.759      7.218
REMARK  4 active torsions:
REMARK  status: ('A' for Active; 'I' for Inactive)
REMARK    1  A    between atoms: N_2  and  C_3 
REMARK    2  A    between atoms: C_5  and  C_6 
REMARK    3  A    between atoms: C_6  and  C_7 
REMARK    4  A    between atoms: C_13  and  O_14 
ROOT
HETATM    1  C   UNL     1      28.088  46.017  54.919  1.00  0.00     0.113 A 
HETATM    2  N   UNL     1      27.226  45.497  54.021  1.00  0.00    -0.223 NA
HETATM    3  C   UNL     1      27.467  44.253  53.532  1.00  0.00     0.106 A 
HETATM    4  N   UNL     1      28.528  43.511  53.894  1.00  0.00    -0.347 N 
HETATM    5  H   UNL     1      28.687  42.598  53.455  1.00  0.00     0.167 HD
HETATM    6  C   UNL     1      29.380  44.020  54.778  1.00  0.00     0.020 A 
HETATM    7  C   UNL     1      29.181  45.280  55.317  1.00  0.00     0.005 A 
HETATM    8  C   UNL     1      30.288  45.624  56.261  1.00  0.00     0.044 C 
HETATM    9  C   UNL     1      30.917  44.241  56.512  1.00  0.00     0.011 C 
HETATM   10  C   UNL     1      30.643  43.387  55.262  1.00  0.00     0.058 C 
ENDROOT
BRANCH   3  11
HETATM   11  C   UNL     1      26.520  43.695  52.510  1.00  0.00     0.085 C 
BRANCH  11  12
HETATM   12  C   UNL     1      25.967  44.738  51.502  1.00  0.00     0.021 C 
HETATM   13  C   UNL     1      26.877  44.987  50.299  1.00  0.00     0.181 C 
HETATM   14  O   UNL     1      27.270  43.731  49.731  1.00  0.00    -0.347 OA
HETATM   15  C   UNL     1      26.186  42.964  49.356  1.00  0.00     0.108 A 
HETATM   16  C   UNL     1      24.901  43.159  49.892  1.00  0.00    -0.021 A 
HETATM   17  C   UNL     1      26.421  41.906  48.473  1.00  0.00     0.102 A 
HETATM   18  C   UNL     1      24.639  44.237  50.915  1.00  0.00     0.048 C 
HETATM   19  C   UNL     1      23.853  42.325  49.479  1.00  0.00     0.010 A 
HETATM   20  C   UNL     1      24.096  41.278  48.586  1.00  0.00     0.003 A 
HETATM   21  C   UNL     1      25.382  41.055  48.098  1.00  0.00     0.039 A 
BRANCH  17  22
HETATM   22  O   UNL     1      27.686  41.634  48.022  1.00  0.00    -0.353 OA
HETATM   23  C   UNL     1      28.185  40.447  48.644  1.00  0.00     0.210 C 
ENDBRANCH  17  22
ENDBRANCH  11  12
ENDBRANCH   3  11
BRANCH   1  24
HETATM   24  N   UNL     1      27.839  47.253  55.504  1.00  0.00    -0.281 NA
HETATM   25  C   UNL     1      26.562  47.875  55.183  1.00  0.00     0.114 C 
HETATM   26  H   UNL     1      28.615  47.898  55.388  1.00  0.00     0.128 HD
ENDBRANCH   1  24
TORSDOF 4
ENDMDL
MODEL 7
REMARK VINA RESULT:      -7.7      4.781      6.418
REMARK  4 active torsions:
REMARK  status: ('A' for Active; 'I' for Inactive)
REMARK    1  A    between atoms: N_2  and  C_3 
REMARK    2  A    between atoms: C_5  and  C_6 
REMARK    3  A    between atoms: C_6  and  C_7 
REMARK    4  A    between atoms: C_13  and  O_14 
ROOT
HETATM    1  C   UNL     1      27.589  41.272  48.467  1.00  0.00     0.113 A 
HETATM    2  N   UNL     1      27.551  42.249  49.396  1.00  0.00    -0.223 NA
HETATM    3  C   UNL     1      28.086  42.004  50.620  1.00  0.00     0.106 A 
HETATM    4  N   UNL     1      28.650  40.831  50.958  1.00  0.00    -0.347 N 
HETATM    5  H   UNL     1      28.993  40.684  51.912  1.00  0.00     0.167 HD
HETATM    6  C   UNL     1      28.689  39.865  50.045  1.00  0.00     0.020 A 
HETATM    7  C   UNL     1      28.167  40.061  48.777  1.00  0.00     0.005 A 
HETATM    8  C   UNL     1      28.313  38.821  47.955  1.00  0.00     0.044 C 
HETATM    9  C   UNL     1      29.358  38.036  48.771  1.00  0.00     0.011 C 
HETATM   10  C   UNL     1      29.213  38.480  50.236  1.00  0.00     0.058 C 
ENDROOT
BRANCH   3  11
HETATM   11  C   UNL     1      28.011  43.085  51.659  1.00  0.00     0.085 C 
BRANCH  11  12
HETATM   12  C   UNL     1      27.065  42.774  52.850  1.00  0.00     0.021 C 
HETATM   13  C   UNL     1      27.675  41.852  53.907  1.00  0.00     0.181 C 
HETATM   14  O   UNL     1      28.977  42.333  54.265  1.00  0.00    -0.347 OA
HETATM   15  C   UNL     1      28.946  43.633  54.729  1.00  0.00     0.108 A 
HETATM   16  C   UNL     1      27.890  44.514  54.434  1.00  0.00    -0.021 A 
HETATM   17  C   UNL     1      30.058  44.088  55.442  1.00  0.00     0.102 A 
HETATM   18  C   UNL     1      26.719  44.074  53.590  1.00  0.00     0.048 C 
HETATM   19  C   UNL     1      27.940  45.827  54.923  1.00  0.00     0.010 A 
HETATM   20  C   UNL     1      29.050  46.269  55.646  1.00  0.00     0.003 A 
HETATM   21  C   UNL     1      30.118  45.407  55.889  1.00  0.00     0.039 A 
BRANCH  17  22
HETATM   22  O   UNL     1      31.143  43.277  55.647  1.00  0.00    -0.353 OA
HETATM   23  C   UNL     1      31.568  43.359  57.010  1.00  0.00     0.210 C 
ENDBRANCH  17  22
ENDBRANCH  11  12
ENDBRANCH   3  11
BRANCH   1  24
HETATM   24  N   UNL     1      27.125  41.506  47.177  1.00  0.00    -0.281 NA
HETATM   25  C   UNL     1      25.787  41.021  46.874  1.00  0.00     0.114 C 
HETATM   26  H   UNL     1      27.799  41.228  46.470  1.00  0.00     0.128 HD
ENDBRANCH   1  24
TORSDOF 4
ENDMDL
MODEL 8
REMARK VINA RESULT:      -7.7      2.984      7.814
REMARK  4 active torsions:
REMARK  status: ('A' for Active; 'I' for Inactive)
REMARK    1  A    between atoms: N_2  and  C_3 
REMARK    2  A    between atoms: C_5  and  C_6 
REMARK    3  A    between atoms: C_6  and  C_7 
REMARK    4  A    between atoms: C_13  and  O_14 
ROOT
HETATM    1  C   UNL     1      26.671  44.445  53.159  1.00  0.00     0.113 A 
HETATM    2  N   UNL     1      25.873  45.090  52.284  1.00  0.00    -0.223 NA
HETATM    3  C   UNL     1      25.804  46.446  52.343  1.00  0.00     0.106 A 
HETATM    4  N   UNL     1      26.489  47.181  53.235  1.00  0.00    -0.347 N 
HETATM    5  H   UNL     1      26.360  48.197  53.267  1.00  0.00     0.167 HD
HETATM    6  C   UNL     1      27.276  46.549  54.100  1.00  0.00     0.020 A 
HETATM    7  C   UNL     1      27.393  45.169  54.082  1.00  0.00     0.005 A 
HETATM    8  C   UNL     1      28.315  44.709  55.165  1.00  0.00     0.044 C 
HETATM    9  C   UNL     1      29.034  46.020  55.531  1.00  0.00     0.011 C 
HETATM   10  C   UNL     1      28.069  47.172  55.202  1.00  0.00     0.058 C 
ENDROOT
BRANCH   3  11
HETATM   11  C   UNL     1      24.889  47.154  51.386  1.00  0.00     0.085 C 
BRANCH  11  12
HETATM   12  C   UNL     1      25.217  46.925  49.887  1.00  0.00     0.021 C 
HETATM   13  C   UNL     1      24.084  46.273  49.092  1.00  0.00     0.181 C 
HETATM   14  O   UNL     1      22.858  46.968  49.354  1.00  0.00    -0.347 OA
HETATM   15  C   UNL     1      22.941  48.312  49.049  1.00  0.00     0.108 A 
HETATM   16  C   UNL     1      24.170  48.992  48.965  1.00  0.00    -0.021 A 
HETATM   17  C   UNL     1      21.742  49.015  48.908  1.00  0.00     0.102 A 
HETATM   18  C   UNL     1      25.476  48.274  49.201  1.00  0.00     0.048 C 
HETATM   19  C   UNL     1      24.173  50.362  48.672  1.00  0.00     0.010 A 
HETATM   20  C   UNL     1      22.969  51.055  48.520  1.00  0.00     0.003 A 
HETATM   21  C   UNL     1      21.753  50.386  48.658  1.00  0.00     0.039 A 
BRANCH  17  22
HETATM   22  O   UNL     1      20.536  48.393  49.092  1.00  0.00    -0.353 OA
HETATM   23  C   UNL     1      19.811  48.352  47.860  1.00  0.00     0.210 C 
ENDBRANCH  17  22
ENDBRANCH  11  12
ENDBRANCH   3  11
BRANCH   1  24
HETATM   24  N   UNL     1      26.832  43.066  53.084  1.00  0.00    -0.281 NA
HETATM   25  C   UNL     1      27.761  42.579  52.075  1.00  0.00     0.114 C 
HETATM   26  H   UNL     1      25.943  42.576  53.050  1.00  0.00     0.128 HD
ENDBRANCH   1  24
TORSDOF 4
ENDMDL
MODEL 9
REMARK VINA RESULT:      -7.7      2.511      3.861
REMARK  4 active torsions:
REMARK  status: ('A' for Active; 'I' for Inactive)
REMARK    1  A    between atoms: N_2  and  C_3 
REMARK    2  A    between atoms: C_5  and  C_6 
REMARK    3  A    between atoms: C_6  and  C_7 
REMARK    4  A    between atoms: C_13  and  O_14 
ROOT
HETATM    1  C   UNL     1      21.715  47.624  47.701  1.00  0.00     0.113 A 
HETATM    2  N   UNL     1      22.516  46.728  48.313  1.00  0.00    -0.223 NA
HETATM    3  C   UNL     1      23.341  47.162  49.302  1.00  0.00     0.106 A 
HETATM    4  N   UNL     1      23.404  48.445  49.701  1.00  0.00    -0.347 N 
HETATM    5  H   UNL     1      24.080  48.725  50.418  1.00  0.00     0.167 HD
HETATM    6  C   UNL     1      22.615  49.330  49.099  1.00  0.00     0.020 A 
HETATM    7  C   UNL     1      21.748  48.945  48.091  1.00  0.00     0.005 A 
HETATM    8  C   UNL     1      20.997  50.127  47.568  1.00  0.00     0.044 C 
HETATM    9  C   UNL     1      21.236  51.159  48.686  1.00  0.00     0.011 C 
HETATM   10  C   UNL     1      22.576  50.802  49.351  1.00  0.00     0.058 C 
ENDROOT
BRANCH   3  11
HETATM   11  C   UNL     1      24.253  46.166  49.956  1.00  0.00     0.085 C 
BRANCH  11  12
HETATM   12  C   UNL     1      25.766  46.446  49.758  1.00  0.00     0.021 C 
HETATM   13  C   UNL     1      26.278  47.673  50.513  1.00  0.00     0.181 C 
HETATM   14  O   UNL     1      25.838  47.612  51.876  1.00  0.00    -0.347 OA
HETATM   15  C   UNL     1      26.251  46.457  52.509  1.00  0.00     0.108 A 
HETATM   16  C   UNL     1      26.620  45.299  51.802  1.00  0.00    -0.021 A 
HETATM   17  C   UNL     1      26.210  46.440  53.906  1.00  0.00     0.102 A 
HETATM   18  C   UNL     1      26.587  45.263  50.293  1.00  0.00     0.048 C 
HETATM   19  C   UNL     1      27.008  44.157  52.515  1.00  0.00     0.010 A 
HETATM   20  C   UNL     1      26.976  44.153  53.912  1.00  0.00     0.003 A 
HETATM   21  C   UNL     1      26.558  45.287  54.608  1.00  0.00     0.039 A 
BRANCH  17  22
HETATM   22  O   UNL     1      25.752  47.522  54.610  1.00  0.00    -0.353 OA
HETATM   23  C   UNL     1      26.766  47.992  55.502  1.00  0.00     0.210 C 
ENDBRANCH  17  22
ENDBRANCH  11  12
ENDBRANCH   3  11
BRANCH   1  24
HETATM   24  N   UNL     1      20.799  47.211  46.740  1.00  0.00    -0.281 NA
HETATM   25  C   UNL     1      19.574  46.601  47.234  1.00  0.00     0.114 C 
HETATM   26  H   UNL     1      21.233  46.654  46.009  1.00  0.00     0.128 HD
ENDBRANCH   1  24
TORSDOF 4
ENDMDL
MODEL 10
REMARK VINA RESULT:      -7.7      3.308      7.428
REMARK  4 active torsions:
REMARK  status: ('A' for Active; 'I' for Inactive)
REMARK    1  A    between atoms: N_2  and  C_3 
REMARK    2  A    between atoms: C_5  and  C_6 
REMARK    3  A    between atoms: C_6  and  C_7 
REMARK    4  A    between atoms: C_13  and  O_14 
ROOT
HETATM    1  C   UNL     1      28.061  45.912  54.815  1.00  0.00     0.113 A 
HETATM    2  N   UNL     1      27.228  45.481  53.847  1.00  0.00    -0.223 NA
HETATM    3  C   UNL     1      27.487  44.288  53.249  1.00  0.00     0.106 A 
HETATM    4  N   UNL     1      28.539  43.515  53.571  1.00  0.00    -0.347 N 
HETATM    5  H   UNL     1      28.714  42.648  53.053  1.00  0.00     0.167 HD
HETATM    6  C   UNL     1      29.362  43.937  54.526  1.00  0.00     0.020 A 
HETATM    7  C   UNL     1      29.143  45.140  55.176  1.00  0.00     0.005 A 
HETATM    8  C   UNL     1      30.219  45.393  56.182  1.00  0.00     0.044 C 
HETATM    9  C   UNL     1      30.844  43.992  56.320  1.00  0.00     0.011 C 
HETATM   10  C   UNL     1      30.611  43.261  54.987  1.00  0.00     0.058 C 
ENDROOT
BRANCH   3  11
HETATM   11  C   UNL     1      26.574  43.830  52.150  1.00  0.00     0.085 C 
BRANCH  11  12
HETATM   12  C   UNL     1      27.163  43.966  50.720  1.00  0.00     0.021 C 
HETATM   13  C   UNL     1      26.888  42.764  49.815  1.00  0.00     0.181 C 
HETATM   14  O   UNL     1      25.495  42.431  49.877  1.00  0.00    -0.347 OA
HETATM   15  C   UNL     1      24.686  43.490  49.520  1.00  0.00     0.108 A 
HETATM   16  C   UNL     1      25.126  44.825  49.567  1.00  0.00    -0.021 A 
HETATM   17  C   UNL     1      23.360  43.203  49.187  1.00  0.00     0.102 A 
HETATM   18  C   UNL     1      26.527  45.169  50.009  1.00  0.00     0.048 C 
HETATM   19  C   UNL     1      24.239  45.850  49.210  1.00  0.00     0.010 A 
HETATM   20  C   UNL     1      22.918  45.552  48.865  1.00  0.00     0.003 A 
HETATM   21  C   UNL     1      22.472  44.231  48.872  1.00  0.00     0.039 A 
BRANCH  17  22
HETATM   22  O   UNL     1      22.883  41.920  49.239  1.00  0.00    -0.353 OA
HETATM   23  C   UNL     1      22.773  41.382  47.918  1.00  0.00     0.210 C 
ENDBRANCH  17  22
ENDBRANCH  11  12
ENDBRANCH   3  11
BRANCH   1  24
HETATM   24  N   UNL     1      27.790  47.087  55.508  1.00  0.00    -0.281 NA
HETATM   25  C   UNL     1      26.585  47.805  55.118  1.00  0.00     0.114 C 
HETATM   26  H   UNL     1      28.599  47.701  55.555  1.00  0.00     0.128 HD
ENDBRANCH   1  24
TORSDOF 4
ENDMDL
