MODEL 1
REMARK VINA RESULT:      -8.4      0.000      0.000
REMARK  4 active torsions:
REMARK  status: ('A' for Active; 'I' for Inactive)
REMARK    1  A    between atoms: C_2  and  C_3 
REMARK    2  A    between atoms: C_5  and  C_6 
REMARK       I    between atoms: C_6  and  N_7 
REMARK    3  A    between atoms: N_7  and  C_8 
REMARK    4  A    between atoms: C_10  and  C_11 
ROOT
HETATM    1  C   UNL     1      28.530  43.946  53.492  1.00  0.00     0.035 A 
HETATM    2  C   UNL     1      29.419  43.904  54.571  1.00  0.00     0.042 A 
HETATM    3  C   UNL     1      29.390  44.887  55.576  1.00  0.00    -0.021 A 
HETATM    4  C   UNL     1      28.453  45.924  55.478  1.00  0.00     0.012 A 
HETATM    5  C   UNL     1      27.560  45.972  54.407  1.00  0.00     0.003 A 
HETATM    6  C   UNL     1      27.596  44.985  53.424  1.00  0.00     0.029 A 
ENDROOT
BRANCH   1   7
HETATM    7  N   UNL     1      28.497  42.986  52.463  1.00  0.00    -0.321 N 
HETATM    8  C   UNL     1      28.050  41.677  52.516  1.00  0.00     0.280 C 
HETATM    9  O   UNL     1      27.635  41.110  53.523  1.00  0.00    -0.265 OA
HETATM   10  H   UNL     1      28.864  43.264  51.559  1.00  0.00     0.169 HD
BRANCH   8  11
HETATM   11  C   UNL     1      28.139  41.009  51.225  1.00  0.00     0.149 A 
HETATM   12  O   UNL     1      28.816  39.816  51.149  1.00  0.00    -0.309 OA
HETATM   13  C   UNL     1      28.792  39.415  49.849  1.00  0.00     0.054 A 
HETATM   14  C   UNL     1      28.088  40.320  49.089  1.00  0.00     0.042 A 
HETATM   15  C   UNL     1      27.659  41.352  49.970  1.00  0.00    -0.020 A 
HETATM   16  C   UNL     1      26.867  42.555  49.609  1.00  0.00     0.051 C 
BRANCH  13  17
HETATM   17  C   UNL     1      29.503  38.152  49.530  1.00  0.00     0.060 C 
HETATM   18  C   UNL     1      29.877  37.386  50.788  1.00  0.00     0.012 C 
ENDBRANCH  13  17
ENDBRANCH   8  11
ENDBRANCH   1   7
BRANCH   3  19
HETATM   19  C   UNL     1      30.299  44.833  56.711  1.00  0.00     0.010 A 
HETATM   20  C   UNL     1      31.342  43.925  57.022  1.00  0.00     0.152 A 
HETATM   21  N   UNL     1      31.956  44.210  58.173  1.00  0.00    -0.187 NA
HETATM   22  N   UNL     1      31.313  45.305  58.606  1.00  0.00    -0.289 N 
HETATM   23  H   UNL     1      31.608  45.724  59.483  1.00  0.00     0.188 HD
HETATM   24  C   UNL     1      30.312  45.714  57.773  1.00  0.00     0.123 A 
ENDBRANCH   3  19
TORSDOF 4
ENDMDL
MODEL 2
REMARK VINA RESULT:      -8.3      3.087      5.142
REMARK  4 active torsions:
REMARK  status: ('A' for Active; 'I' for Inactive)
REMARK    1  A    between atoms: C_2  and  C_3 
REMARK    2  A    between atoms: C_5  and  C_6 
REMARK       I    between atoms: C_6  and  N_7 
REMARK    3  A    between atoms: N_7  and  C_8 
REMARK    4  A    between atoms: C_10  and  C_11 
ROOT
HETATM    1  C   UNL     1      28.435  44.053  53.172  1.00  0.00     0.035 A 
HETATM    2  C   UNL     1      28.716  44.621  54.419  1.00  0.00     0.042 A 
HETATM    3  C   UNL     1      29.819  44.193  55.181  1.00  0.00    -0.021 A 
HETATM    4  C   UNL     1      30.637  43.177  54.670  1.00  0.00     0.012 A 
HETATM    5  C   UNL     1      30.366  42.607  53.426  1.00  0.00     0.003 A 
HETATM    6  C   UNL     1      29.275  43.048  52.679  1.00  0.00     0.029 A 
ENDROOT
BRANCH   1   7
HETATM    7  N   UNL     1      27.358  44.444  52.354  1.00  0.00    -0.321 N 
HETATM    8  C   UNL     1      26.007  44.457  52.654  1.00  0.00     0.280 C 
HETATM    9  O   UNL     1      25.511  44.072  53.709  1.00  0.00    -0.265 OA
HETATM   10  H   UNL     1      27.578  44.740  51.409  1.00  0.00     0.169 HD
BRANCH   8  11
HETATM   11  C   UNL     1      25.201  44.971  51.554  1.00  0.00     0.149 A 
HETATM   12  O   UNL     1      25.233  46.319  51.291  1.00  0.00    -0.309 OA
HETATM   13  C   UNL     1      24.381  46.554  50.257  1.00  0.00     0.054 A 
HETATM   14  C   UNL     1      23.816  45.372  49.833  1.00  0.00     0.042 A 
HETATM   15  C   UNL     1      24.343  44.343  50.663  1.00  0.00    -0.020 A 
HETATM   16  C   UNL     1      24.026  42.895  50.589  1.00  0.00     0.051 C 
BRANCH  13  17
HETATM   17  C   UNL     1      24.233  47.966  49.826  1.00  0.00     0.060 C 
HETATM   18  C   UNL     1      25.541  48.532  49.303  1.00  0.00     0.012 C 
ENDBRANCH  13  17
ENDBRANCH   8  11
ENDBRANCH   1   7
BRANCH   3  19
HETATM   19  C   UNL     1      30.126  44.799  56.468  1.00  0.00     0.010 A 
HETATM   20  C   UNL     1      29.567  45.925  57.120  1.00  0.00     0.152 A 
HETATM   21  N   UNL     1      30.128  46.171  58.307  1.00  0.00    -0.187 NA
HETATM   22  N   UNL     1      31.047  45.201  58.425  1.00  0.00    -0.289 N 
HETATM   23  H   UNL     1      31.614  45.173  59.267  1.00  0.00     0.188 HD
HETATM   24  C   UNL     1      31.090  44.359  57.352  1.00  0.00     0.123 A 
ENDBRANCH   3  19
TORSDOF 4
ENDMDL
MODEL 3
REMARK VINA RESULT:      -8.3      3.137      4.565
REMARK  4 active torsions:
REMARK  status: ('A' for Active; 'I' for Inactive)
REMARK    1  A    between atoms: C_2  and  C_3 
REMARK    2  A    between atoms: C_5  and  C_6 
REMARK       I    between atoms: C_6  and  N_7 
REMARK    3  A    between atoms: N_7  and  C_8 
REMARK    4  A    between atoms: C_10  and  C_11 
ROOT
HETATM    1  C   UNL     1      28.482  43.935  53.319  1.00  0.00     0.035 A 
HETATM    2  C   UNL     1      28.782  44.523  54.552  1.00  0.00     0.042 A 
HETATM    3  C   UNL     1      29.926  44.145  55.278  1.00  0.00    -0.021 A 
HETATM    4  C   UNL     1      30.766  43.159  54.746  1.00  0.00     0.012 A 
HETATM    5  C   UNL     1      30.477  42.569  53.515  1.00  0.00     0.003 A 
HETATM    6  C   UNL     1      29.343  42.961  52.804  1.00  0.00     0.029 A 
ENDROOT
BRANCH   1   7
HETATM    7  N   UNL     1      27.363  44.277  52.537  1.00  0.00    -0.321 N 
HETATM    8  C   UNL     1      26.035  44.367  52.920  1.00  0.00     0.280 C 
HETATM    9  O   UNL     1      25.602  44.111  54.040  1.00  0.00    -0.265 OA
HETATM   10  H   UNL     1      27.525  44.466  51.553  1.00  0.00     0.169 HD
BRANCH   8  11
HETATM   11  C   UNL     1      25.171  44.793  51.827  1.00  0.00     0.149 A 
HETATM   12  O   UNL     1      24.219  43.917  51.365  1.00  0.00    -0.309 OA
HETATM   13  C   UNL     1      23.574  44.524  50.332  1.00  0.00     0.054 A 
HETATM   14  C   UNL     1      24.080  45.789  50.137  1.00  0.00     0.042 A 
HETATM   15  C   UNL     1      25.110  45.973  51.101  1.00  0.00    -0.020 A 
HETATM   16  C   UNL     1      25.952  47.183  51.280  1.00  0.00     0.051 C 
BRANCH  13  17
HETATM   17  C   UNL     1      22.516  43.735  49.654  1.00  0.00     0.060 C 
HETATM   18  C   UNL     1      23.033  42.383  49.193  1.00  0.00     0.012 C 
ENDBRANCH  13  17
ENDBRANCH   8  11
ENDBRANCH   1   7
BRANCH   3  19
HETATM   19  C   UNL     1      30.253  44.772  56.550  1.00  0.00     0.010 A 
HETATM   20  C   UNL     1      29.755  45.950  57.159  1.00  0.00     0.152 A 
HETATM   21  N   UNL     1      30.313  46.200  58.346  1.00  0.00    -0.187 NA
HETATM   22  N   UNL     1      31.171  45.181  58.508  1.00  0.00    -0.289 N 
HETATM   23  H   UNL     1      31.724  45.146  59.358  1.00  0.00     0.188 HD
HETATM   24  C   UNL     1      31.177  44.304  57.462  1.00  0.00     0.123 A 
ENDBRANCH   3  19
TORSDOF 4
ENDMDL
MODEL 4
REMARK VINA RESULT:      -8.3      2.184      3.207
REMARK  4 active torsions:
REMARK  status: ('A' for Active; 'I' for Inactive)
REMARK    1  A    between atoms: C_2  and  C_3 
REMARK    2  A    between atoms: C_5  and  C_6 
REMARK       I    between atoms: C_6  and  N_7 
REMARK    3  A    between atoms: N_7  and  C_8 
REMARK    4  A    between atoms: C_10  and  C_11 
ROOT
HETATM    1  C   UNL     1      29.057  43.549  53.722  1.00  0.00     0.035 A 
HETATM    2  C   UNL     1      28.141  44.603  53.802  1.00  0.00     0.042 A 
HETATM    3  C   UNL     1      28.261  45.597  54.791  1.00  0.00    -0.021 A 
HETATM    4  C   UNL     1      29.318  45.512  55.705  1.00  0.00     0.012 A 
HETATM    5  C   UNL     1      30.239  44.466  55.631  1.00  0.00     0.003 A 
HETATM    6  C   UNL     1      30.110  43.494  54.640  1.00  0.00     0.029 A 
ENDROOT
BRANCH   1   7
HETATM    7  N   UNL     1      29.002  42.532  52.750  1.00  0.00    -0.321 N 
HETATM    8  C   UNL     1      28.278  41.351  52.774  1.00  0.00     0.280 C 
HETATM    9  O   UNL     1      27.575  40.971  53.705  1.00  0.00    -0.265 OA
HETATM   10  H   UNL     1      29.578  42.650  51.923  1.00  0.00     0.169 HD
BRANCH   8  11
HETATM   11  C   UNL     1      28.451  40.571  51.557  1.00  0.00     0.149 A 
HETATM   12  O   UNL     1      29.149  39.390  51.628  1.00  0.00    -0.309 OA
HETATM   13  C   UNL     1      29.206  38.872  50.371  1.00  0.00     0.054 A 
HETATM   14  C   UNL     1      28.534  39.691  49.493  1.00  0.00     0.042 A 
HETATM   15  C   UNL     1      28.040  40.790  50.250  1.00  0.00    -0.020 A 
HETATM   16  C   UNL     1      27.252  41.939  49.737  1.00  0.00     0.051 C 
BRANCH  13  17
HETATM   17  C   UNL     1      29.951  37.600  50.209  1.00  0.00     0.060 C 
HETATM   18  C   UNL     1      29.898  36.755  51.470  1.00  0.00     0.012 C 
ENDBRANCH  13  17
ENDBRANCH   8  11
ENDBRANCH   1   7
BRANCH   3  19
HETATM   19  C   UNL     1      27.323  46.707  54.862  1.00  0.00     0.010 A 
HETATM   20  C   UNL     1      26.239  47.060  54.022  1.00  0.00     0.152 A 
HETATM   21  N   UNL     1      25.608  48.167  54.422  1.00  0.00    -0.187 NA
HETATM   22  N   UNL     1      26.281  48.528  55.525  1.00  0.00    -0.289 N 
HETATM   23  H   UNL     1      25.980  49.359  56.024  1.00  0.00     0.188 HD
HETATM   24  C   UNL     1      27.318  47.693  55.827  1.00  0.00     0.123 A 
ENDBRANCH   3  19
TORSDOF 4
ENDMDL
MODEL 5
REMARK VINA RESULT:      -8.3      4.997      6.961
REMARK  4 active torsions:
REMARK  status: ('A' for Active; 'I' for Inactive)
REMARK    1  A    between atoms: C_2  and  C_3 
REMARK    2  A    between atoms: C_5  and  C_6 
REMARK       I    between atoms: C_6  and  N_7 
REMARK    3  A    between atoms: N_7  and  C_8 
REMARK    4  A    between atoms: C_10  and  C_11 
ROOT
HETATM    1  C   UNL     1      26.212  46.025  52.714  1.00  0.00     0.035 A 
HETATM    2  C   UNL     1      27.418  45.937  53.416  1.00  0.00     0.042 A 
HETATM    3  C   UNL     1      27.601  44.980  54.430  1.00  0.00    -0.021 A 
HETATM    4  C   UNL     1      26.545  44.111  54.734  1.00  0.00     0.012 A 
HETATM    5  C   UNL     1      25.339  44.189  54.037  1.00  0.00     0.003 A 
HETATM    6  C   UNL     1      25.177  45.138  53.028  1.00  0.00     0.029 A 
ENDROOT
BRANCH   1   7
HETATM    7  N   UNL     1      25.970  46.949  51.680  1.00  0.00    -0.321 N 
HETATM    8  C   UNL     1      25.963  46.733  50.312  1.00  0.00     0.280 C 
HETATM    9  O   UNL     1      26.220  45.666  49.762  1.00  0.00    -0.265 OA
HETATM   10  H   UNL     1      25.795  47.911  51.950  1.00  0.00     0.169 HD
BRANCH   8  11
HETATM   11  C   UNL     1      25.628  47.937  49.563  1.00  0.00     0.149 A 
HETATM   12  O   UNL     1      24.312  48.166  49.245  1.00  0.00    -0.309 OA
HETATM   13  C   UNL     1      24.261  49.318  48.522  1.00  0.00     0.054 A 
HETATM   14  C   UNL     1      25.524  49.848  48.389  1.00  0.00     0.042 A 
HETATM   15  C   UNL     1      26.414  48.964  49.062  1.00  0.00    -0.020 A 
HETATM   16  C   UNL     1      27.886  49.114  49.189  1.00  0.00     0.051 C 
BRANCH  13  17
HETATM   17  C   UNL     1      22.923  49.741  48.040  1.00  0.00     0.060 C 
HETATM   18  C   UNL     1      22.533  51.102  48.590  1.00  0.00     0.012 C 
ENDBRANCH  13  17
ENDBRANCH   8  11
ENDBRANCH   1   7
BRANCH   3  19
HETATM   19  C   UNL     1      28.863  44.871  55.146  1.00  0.00     0.010 A 
HETATM   20  C   UNL     1      29.874  43.880  55.099  1.00  0.00     0.152 A 
HETATM   21  N   UNL     1      30.896  44.137  55.920  1.00  0.00    -0.187 NA
HETATM   22  N   UNL     1      30.548  45.298  56.495  1.00  0.00    -0.289 N 
HETATM   23  H   UNL     1      31.183  45.710  57.172  1.00  0.00     0.188 HD
HETATM   24  C   UNL     1      29.342  45.775  56.072  1.00  0.00     0.123 A 
ENDBRANCH   3  19
TORSDOF 4
ENDMDL
MODEL 6
REMARK VINA RESULT:      -8.2      5.317      7.762
REMARK  4 active torsions:
REMARK  status: ('A' for Active; 'I' for Inactive)
REMARK    1  A    between atoms: C_2  and  C_3 
REMARK    2  A    between atoms: C_5  and  C_6 
REMARK       I    between atoms: C_6  and  N_7 
REMARK    3  A    between atoms: N_7  and  C_8 
REMARK    4  A    between atoms: C_10  and  C_11 
ROOT
HETATM    1  C   UNL     1      26.053  46.474  52.563  1.00  0.00     0.035 A 
HETATM    2  C   UNL     1      26.708  45.249  52.394  1.00  0.00     0.042 A 
HETATM    3  C   UNL     1      27.539  44.724  53.401  1.00  0.00    -0.021 A 
HETATM    4  C   UNL     1      27.708  45.455  54.583  1.00  0.00     0.012 A 
HETATM    5  C   UNL     1      27.056  46.676  54.762  1.00  0.00     0.003 A 
HETATM    6  C   UNL     1      26.229  47.178  53.759  1.00  0.00     0.029 A 
ENDROOT
BRANCH   1   7
HETATM    7  N   UNL     1      25.198  47.047  51.603  1.00  0.00    -0.321 N 
HETATM    8  C   UNL     1      25.502  47.483  50.325  1.00  0.00     0.280 C 
HETATM    9  O   UNL     1      26.622  47.477  49.822  1.00  0.00    -0.265 OA
HETATM   10  H   UNL     1      24.229  47.188  51.871  1.00  0.00     0.169 HD
BRANCH   8  11
HETATM   11  C   UNL     1      24.332  47.982  49.616  1.00  0.00     0.149 A 
HETATM   12  O   UNL     1      24.173  49.340  49.486  1.00  0.00    -0.309 OA
HETATM   13  C   UNL     1      23.001  49.554  48.829  1.00  0.00     0.054 A 
HETATM   14  C   UNL     1      22.412  48.351  48.512  1.00  0.00     0.042 A 
HETATM   15  C   UNL     1      23.266  47.330  49.014  1.00  0.00    -0.020 A 
HETATM   16  C   UNL     1      23.049  45.864  48.916  1.00  0.00     0.051 C 
BRANCH  13  17
HETATM   17  C   UNL     1      22.612  50.968  48.607  1.00  0.00     0.060 C 
HETATM   18  C   UNL     1      21.102  51.135  48.568  1.00  0.00     0.012 C 
ENDBRANCH  13  17
ENDBRANCH   8  11
ENDBRANCH   1   7
BRANCH   3  19
HETATM   19  C   UNL     1      28.202  43.440  53.236  1.00  0.00     0.010 A 
HETATM   20  C   UNL     1      27.815  42.138  53.639  1.00  0.00     0.152 A 
HETATM   21  N   UNL     1      28.707  41.202  53.304  1.00  0.00    -0.187 NA
HETATM   22  N   UNL     1      29.670  41.897  52.680  1.00  0.00    -0.289 N 
HETATM   23  H   UNL     1      30.474  41.393  52.321  1.00  0.00     0.188 HD
HETATM   24  C   UNL     1      29.420  43.238  52.619  1.00  0.00     0.123 A 
ENDBRANCH   3  19
TORSDOF 4
ENDMDL
MODEL 7
REMARK VINA RESULT:      -8.0      4.298      7.527
REMARK  4 active torsions:
REMARK  status: ('A' for Active; 'I' for Inactive)
REMARK    1  A    between atoms: C_2  and  C_3 
REMARK    2  A    between atoms: C_5  and  C_6 
REMARK       I    between atoms: C_6  and  N_7 
REMARK    3  A    between atoms: N_7  and  C_8 
REMARK    4  A    between atoms: C_10  and  C_11 
ROOT
HETATM    1  C   UNL     1      26.198  45.291  51.462  1.00  0.00     0.035 A 
HETATM    2  C   UNL     1      26.368  46.502  50.781  1.00  0.00     0.042 A 
HETATM    3  C   UNL     1      25.364  47.008  49.936  1.00  0.00    -0.021 A 
HETATM    4  C   UNL     1      24.183  46.273  49.779  1.00  0.00     0.012 A 
HETATM    5  C   UNL     1      24.002  45.066  50.456  1.00  0.00     0.003 A 
HETATM    6  C   UNL     1      25.004  44.583  51.297  1.00  0.00     0.029 A 
ENDROOT
BRANCH   1   7
HETATM    7  N   UNL     1      27.156  44.737  52.332  1.00  0.00    -0.321 N 
HETATM    8  C   UNL     1      27.139  44.686  53.715  1.00  0.00     0.280 C 
HETATM    9  O   UNL     1      26.270  45.174  54.432  1.00  0.00    -0.265 OA
HETATM   10  H   UNL     1      27.987  44.336  51.911  1.00  0.00     0.169 HD
BRANCH   8  11
HETATM   11  C   UNL     1      28.298  43.990  54.258  1.00  0.00     0.149 A 
HETATM   12  O   UNL     1      29.176  44.693  55.047  1.00  0.00    -0.309 OA
HETATM   13  C   UNL     1      30.181  43.845  55.395  1.00  0.00     0.054 A 
HETATM   14  C   UNL     1      29.952  42.597  54.862  1.00  0.00     0.042 A 
HETATM   15  C   UNL     1      28.736  42.680  54.128  1.00  0.00    -0.020 A 
HETATM   16  C   UNL     1      28.080  41.585  53.371  1.00  0.00     0.051 C 
BRANCH  13  17
HETATM   17  C   UNL     1      31.269  44.412  56.230  1.00  0.00     0.060 C 
HETATM   18  C   UNL     1      31.858  43.371  57.166  1.00  0.00     0.012 C 
ENDBRANCH  13  17
ENDBRANCH   8  11
ENDBRANCH   1   7
BRANCH   3  19
HETATM   19  C   UNL     1      25.530  48.279  49.246  1.00  0.00     0.010 A 
HETATM   20  C   UNL     1      24.572  49.183  48.726  1.00  0.00     0.152 A 
HETATM   21  N   UNL     1      25.124  50.255  48.151  1.00  0.00    -0.187 NA
HETATM   22  N   UNL     1      26.441  50.045  48.302  1.00  0.00    -0.289 N 
HETATM   23  H   UNL     1      27.085  50.742  47.941  1.00  0.00     0.188 HD
HETATM   24  C   UNL     1      26.736  48.878  48.945  1.00  0.00     0.123 A 
ENDBRANCH   3  19
TORSDOF 4
ENDMDL
MODEL 8
REMARK VINA RESULT:      -8.0      2.749      4.254
REMARK  4 active torsions:
REMARK  status: ('A' for Active; 'I' for Inactive)
REMARK    1  A    between atoms: C_2  and  C_3 
REMARK    2  A    between atoms: C_5  and  C_6 
REMARK       I    between atoms: C_6  and  N_7 
REMARK    3  A    between atoms: N_7  and  C_8 
REMARK    4  A    between atoms: C_10  and  C_11 
ROOT
HETATM    1  C   UNL     1      27.479  45.266  53.879  1.00  0.00     0.035 A 
HETATM    2  C   UNL     1      28.493  44.596  54.573  1.00  0.00     0.042 A 
HETATM    3  C   UNL     1      29.239  45.244  55.574  1.00  0.00    -0.021 A 
HETATM    4  C   UNL     1      28.954  46.584  55.866  1.00  0.00     0.012 A 
HETATM    5  C   UNL     1      27.942  47.259  55.181  1.00  0.00     0.003 A 
HETATM    6  C   UNL     1      27.206  46.600  54.198  1.00  0.00     0.029 A 
ENDROOT
BRANCH   1   7
HETATM    7  N   UNL     1      26.688  44.672  52.878  1.00  0.00    -0.321 N 
HETATM    8  C   UNL     1      25.403  44.166  52.979  1.00  0.00     0.280 C 
HETATM    9  O   UNL     1      24.741  44.115  54.011  1.00  0.00    -0.265 OA
HETATM   10  H   UNL     1      27.103  44.573  51.957  1.00  0.00     0.169 HD
BRANCH   8  11
HETATM   11  C   UNL     1      24.902  43.668  51.705  1.00  0.00     0.149 A 
HETATM   12  O   UNL     1      23.781  44.251  51.167  1.00  0.00    -0.309 OA
HETATM   13  C   UNL     1      23.494  43.595  50.011  1.00  0.00     0.054 A 
HETATM   14  C   UNL     1      24.429  42.611  49.781  1.00  0.00     0.042 A 
HETATM   15  C   UNL     1      25.345  42.653  50.869  1.00  0.00    -0.020 A 
HETATM   16  C   UNL     1      26.528  41.777  51.067  1.00  0.00     0.051 C 
BRANCH  13  17
HETATM   17  C   UNL     1      22.287  44.044  49.274  1.00  0.00     0.060 C 
HETATM   18  C   UNL     1      22.396  43.753  47.787  1.00  0.00     0.012 C 
ENDBRANCH  13  17
ENDBRANCH   8  11
ENDBRANCH   1   7
BRANCH   3  19
HETATM   19  C   UNL     1      30.278  44.543  56.313  1.00  0.00     0.010 A 
HETATM   20  C   UNL     1      30.867  44.817  57.571  1.00  0.00     0.152 A 
HETATM   21  N   UNL     1      31.805  43.930  57.913  1.00  0.00    -0.187 NA
HETATM   22  N   UNL     1      31.821  43.079  56.876  1.00  0.00    -0.289 N 
HETATM   23  H   UNL     1      32.466  42.296  56.904  1.00  0.00     0.188 HD
HETATM   24  C   UNL     1      30.933  43.403  55.892  1.00  0.00     0.123 A 
ENDBRANCH   3  19
TORSDOF 4
ENDMDL
MODEL 9
REMARK VINA RESULT:      -7.9      1.180      2.198
REMARK  4 active torsions:
REMARK  status: ('A' for Active; 'I' for Inactive)
REMARK    1  A    between atoms: C_2  and  C_3 
REMARK    2  A    between atoms: C_5  and  C_6 
REMARK       I    between atoms: C_6  and  N_7 
REMARK    3  A    between atoms: N_7  and  C_8 
REMARK    4  A    between atoms: C_10  and  C_11 
ROOT
HETATM    1  C   UNL     1      28.618  43.482  53.062  1.00  0.00     0.035 A 
HETATM    2  C   UNL     1      29.542  43.414  54.110  1.00  0.00     0.042 A 
HETATM    3  C   UNL     1      29.511  44.341  55.168  1.00  0.00    -0.021 A 
HETATM    4  C   UNL     1      28.536  45.346  55.154  1.00  0.00     0.012 A 
HETATM    5  C   UNL     1      27.608  45.420  54.115  1.00  0.00     0.003 A 
HETATM    6  C   UNL     1      27.647  44.489  53.078  1.00  0.00     0.029 A 
ENDROOT
BRANCH   1   7
HETATM    7  N   UNL     1      28.585  42.579  51.983  1.00  0.00    -0.321 N 
HETATM    8  C   UNL     1      28.177  41.256  51.975  1.00  0.00     0.280 C 
HETATM    9  O   UNL     1      27.805  40.624  52.960  1.00  0.00    -0.265 OA
HETATM   10  H   UNL     1      28.920  42.916  51.086  1.00  0.00     0.169 HD
BRANCH   8  11
HETATM   11  C   UNL     1      28.252  40.661  50.648  1.00  0.00     0.149 A 
HETATM   12  O   UNL     1      27.653  41.318  49.600  1.00  0.00    -0.309 OA
HETATM   13  C   UNL     1      27.826  40.554  48.487  1.00  0.00     0.054 A 
HETATM   14  C   UNL     1      28.547  39.425  48.797  1.00  0.00     0.042 A 
HETATM   15  C   UNL     1      28.830  39.486  50.191  1.00  0.00    -0.020 A 
HETATM   16  C   UNL     1      29.585  38.487  50.988  1.00  0.00     0.051 C 
BRANCH  13  17
HETATM   17  C   UNL     1      27.222  41.064  47.232  1.00  0.00     0.060 C 
HETATM   18  C   UNL     1      28.169  40.917  46.053  1.00  0.00     0.012 C 
ENDBRANCH  13  17
ENDBRANCH   8  11
ENDBRANCH   1   7
BRANCH   3  19
HETATM   19  C   UNL     1      30.457  44.258  56.270  1.00  0.00     0.010 A 
HETATM   20  C   UNL     1      31.466  43.306  56.557  1.00  0.00     0.152 A 
HETATM   21  N   UNL     1      32.134  43.576  57.682  1.00  0.00    -0.187 NA
HETATM   22  N   UNL     1      31.560  44.707  58.120  1.00  0.00    -0.289 N 
HETATM   23  H   UNL     1      31.907  45.123  58.979  1.00  0.00     0.188 HD
HETATM   24  C   UNL     1      30.551  45.152  57.317  1.00  0.00     0.123 A 
ENDBRANCH   3  19
TORSDOF 4
ENDMDL
MODEL 10
REMARK VINA RESULT:      -7.8      2.667      4.046
REMARK  4 active torsions:
REMARK  status: ('A' for Active; 'I' for Inactive)
REMARK    1  A    between atoms: C_2  and  C_3 
REMARK    2  A    between atoms: C_5  and  C_6 
REMARK       I    between atoms: C_6  and  N_7 
REMARK    3  A    between atoms: N_7  and  C_8 
REMARK    4  A    between atoms: C_10  and  C_11 
ROOT
HETATM    1  C   UNL     1      29.089  42.533  52.691  1.00  0.00     0.035 A 
HETATM    2  C   UNL     1      28.152  43.563  52.829  1.00  0.00     0.042 A 
HETATM    3  C   UNL     1      28.238  44.487  53.885  1.00  0.00    -0.021 A 
HETATM    4  C   UNL     1      29.282  44.358  54.810  1.00  0.00     0.012 A 
HETATM    5  C   UNL     1      30.223  43.336  54.679  1.00  0.00     0.003 A 
HETATM    6  C   UNL     1      30.128  42.433  53.621  1.00  0.00     0.029 A 
ENDROOT
BRANCH   1   7
HETATM    7  N   UNL     1      29.068  41.585  51.650  1.00  0.00    -0.321 N 
HETATM    8  C   UNL     1      28.012  40.804  51.214  1.00  0.00     0.280 C 
HETATM    9  O   UNL     1      26.891  40.783  51.715  1.00  0.00    -0.265 OA
HETATM   10  H   UNL     1      29.939  41.423  51.155  1.00  0.00     0.169 HD
BRANCH   8  11
HETATM   11  C   UNL     1      28.374  39.968  50.077  1.00  0.00     0.149 A 
HETATM   12  O   UNL     1      27.907  40.315  48.833  1.00  0.00    -0.309 OA
HETATM   13  C   UNL     1      28.344  39.372  47.955  1.00  0.00     0.054 A 
HETATM   14  C   UNL     1      29.107  38.434  48.611  1.00  0.00     0.042 A 
HETATM   15  C   UNL     1      29.135  38.812  49.983  1.00  0.00    -0.020 A 
HETATM   16  C   UNL     1      29.832  38.103  51.085  1.00  0.00     0.051 C 
BRANCH  13  17
HETATM   17  C   UNL     1      27.923  39.534  46.542  1.00  0.00     0.060 C 
HETATM   18  C   UNL     1      28.124  40.959  46.056  1.00  0.00     0.012 C 
ENDBRANCH  13  17
ENDBRANCH   8  11
ENDBRANCH   1   7
BRANCH   3  19
HETATM   19  C   UNL     1      27.278  45.573  54.017  1.00  0.00     0.010 A 
HETATM   20  C   UNL     1      27.142  46.576  55.008  1.00  0.00     0.152 A 
HETATM   21  N   UNL     1      26.119  47.403  54.777  1.00  0.00    -0.187 NA
HETATM   22  N   UNL     1      25.595  46.938  53.633  1.00  0.00    -0.289 N 
HETATM   23  H   UNL     1      24.789  47.415  53.242  1.00  0.00     0.188 HD
HETATM   24  C   UNL     1      26.246  45.844  53.141  1.00  0.00     0.123 A 
ENDBRANCH   3  19
TORSDOF 4
ENDMDL
