MODEL 1
REMARK VINA RESULT:      -8.0      0.000      0.000
REMARK  9 active torsions:
REMARK  status: ('A' for Active; 'I' for Inactive)
REMARK    1  A    between atoms: N_6  and  C_7 
REMARK    2  A    between atoms: C_9  and  S_10 
REMARK    3  A    between atoms: S_10  and  C_11 
REMARK    4  A    between atoms: C_11  and  C_12 
REMARK    5  A    between atoms: C_14  and  C_15 
REMARK       I    between atoms: C_15  and  N_16 
REMARK    6  A    between atoms: N_16  and  C_17 
REMARK    7  A    between atoms: C_17  and  C_18 
REMARK    8  A    between atoms: C_18  and  N_19 
REMARK    9  A    between atoms: C_27  and  C_28 
ROOT
HETATM    1  C   UNL     1      26.557  42.231  51.370  1.00  0.00     0.130 A 
HETATM    2  N   UNL     1      25.757  43.303  51.223  1.00  0.00    -0.205 NA
HETATM    3  C   UNL     1      26.099  44.447  51.841  1.00  0.00     0.191 A 
HETATM    4  N   UNL     1      27.139  44.576  52.668  1.00  0.00    -0.218 NA
HETATM    5  C   UNL     1      27.940  43.501  52.825  1.00  0.00     0.146 A 
HETATM    6  C   UNL     1      27.683  42.307  52.170  1.00  0.00     0.087 A 
ENDROOT
BRANCH   3   7
HETATM    7  S   UNL     1      25.133  45.894  51.486  1.00  0.00    -0.084 SA
BRANCH   7   8
HETATM    8  C   UNL     1      26.505  47.044  51.184  1.00  0.00     0.147 C 
BRANCH   8   9
HETATM    9  C   UNL     1      26.262  47.972  50.048  1.00  0.00     0.063 A 
HETATM   10  O   UNL     1      24.964  48.283  49.756  1.00  0.00    -0.309 OA
HETATM   11  C   UNL     1      24.988  49.283  48.820  1.00  0.00     0.143 A 
HETATM   12  C   UNL     1      26.294  49.576  48.486  1.00  0.00     0.045 A 
HETATM   13  C   UNL     1      27.112  48.716  49.256  1.00  0.00     0.036 A 
BRANCH  11  14
HETATM   14  C   UNL     1      23.744  49.876  48.397  1.00  0.00     0.275 C 
HETATM   15  N   UNL     1      22.819  50.081  49.399  1.00  0.00    -0.354 N 
HETATM   16  H   UNL     1      23.067  49.703  50.312  1.00  0.00     0.162 HD
HETATM   17  O   UNL     1      23.489  50.231  47.245  1.00  0.00    -0.265 OA
BRANCH  15  18
HETATM   18  C   UNL     1      21.432  50.425  49.121  1.00  0.00     0.150 C 
BRANCH  18  19
HETATM   19  C   UNL     1      20.478  49.214  49.100  1.00  0.00     0.253 C 
BRANCH  19  20
HETATM   20  N   UNL     1      19.583  49.201  47.878  1.00  0.00    -0.077 N 
HETATM   21  H   UNL     1      19.849  48.370  47.313  1.00  0.00     0.279 HD
HETATM   22  C   UNL     1      18.134  48.969  48.195  1.00  0.00     0.269 C 
HETATM   23  C   UNL     1      19.781  50.403  47.008  1.00  0.00     0.269 C 
ENDBRANCH  19  20
ENDBRANCH  18  19
ENDBRANCH  15  18
ENDBRANCH  11  14
ENDBRANCH   8   9
ENDBRANCH   7   8
ENDBRANCH   3   7
BRANCH   1  24
HETATM   24  N   UNL     1      26.262  41.074  50.644  1.00  0.00    -0.362 N 
HETATM   25  C   UNL     1      27.400  40.157  50.406  1.00  0.00     0.152 C 
HETATM   26  C   UNL     1      28.161  40.544  49.120  1.00  0.00     0.254 C 
HETATM   27  N   UNL     1      27.188  40.580  47.932  1.00  0.00    -0.072 N 
HETATM   28  C   UNL     1      27.879  40.890  46.639  1.00  0.00     0.269 C 
HETATM   29  H   UNL     1      26.793  39.634  47.844  1.00  0.00     0.279 HD
HETATM   30  C   UNL     1      26.026  41.532  48.205  1.00  0.00     0.254 C 
HETATM   31  C   UNL     1      25.309  41.149  49.520  1.00  0.00     0.152 C 
ENDBRANCH   1  24
BRANCH   5  32
HETATM   32  C   UNL     1      29.155  43.595  53.736  1.00  0.00     0.434 C 
HETATM   33  F   UNL     1      30.339  43.403  53.097  1.00  0.00    -0.165 F 
HETATM   34  F   UNL     1      29.239  44.814  54.339  1.00  0.00    -0.165 F 
HETATM   35  F   UNL     1      29.114  42.683  54.747  1.00  0.00    -0.165 F 
ENDBRANCH   5  32
TORSDOF 9
ENDMDL
MODEL 2
REMARK VINA RESULT:      -7.7     10.882     13.353
REMARK  9 active torsions:
REMARK  status: ('A' for Active; 'I' for Inactive)
REMARK    1  A    between atoms: N_6  and  C_7 
REMARK    2  A    between atoms: C_9  and  S_10 
REMARK    3  A    between atoms: S_10  and  C_11 
REMARK    4  A    between atoms: C_11  and  C_12 
REMARK    5  A    between atoms: C_14  and  C_15 
REMARK       I    between atoms: C_15  and  N_16 
REMARK    6  A    between atoms: N_16  and  C_17 
REMARK    7  A    between atoms: C_17  and  C_18 
REMARK    8  A    between atoms: C_18  and  N_19 
REMARK    9  A    between atoms: C_27  and  C_28 
ROOT
HETATM    1  C   UNL     1      28.122  48.930  41.229  1.00  0.00     0.130 A 
HETATM    2  N   UNL     1      27.835  50.232  41.053  1.00  0.00    -0.205 NA
HETATM    3  C   UNL     1      28.770  51.143  41.376  1.00  0.00     0.191 A 
HETATM    4  N   UNL     1      29.943  50.852  41.943  1.00  0.00    -0.218 NA
HETATM    5  C   UNL     1      30.232  49.546  42.129  1.00  0.00     0.146 A 
HETATM    6  C   UNL     1      29.340  48.551  41.763  1.00  0.00     0.087 A 
ENDROOT
BRANCH   3   7
HETATM    7  S   UNL     1      28.442  52.839  40.964  1.00  0.00    -0.084 SA
BRANCH   7   8
HETATM    8  C   UNL     1      28.721  52.721  39.173  1.00  0.00     0.147 C 
BRANCH   8   9
HETATM    9  C   UNL     1      29.948  51.962  38.814  1.00  0.00     0.063 A 
HETATM   10  O   UNL     1      31.149  52.493  39.193  1.00  0.00    -0.309 OA
HETATM   11  C   UNL     1      32.108  51.548  38.934  1.00  0.00     0.143 A 
HETATM   12  C   UNL     1      31.526  50.442  38.351  1.00  0.00     0.045 A 
HETATM   13  C   UNL     1      30.141  50.718  38.250  1.00  0.00     0.036 A 
BRANCH  11  14
HETATM   14  C   UNL     1      33.470  51.807  39.329  1.00  0.00     0.275 C 
HETATM   15  N   UNL     1      34.103  50.767  39.977  1.00  0.00    -0.354 N 
HETATM   16  H   UNL     1      33.517  49.965  40.199  1.00  0.00     0.162 HD
HETATM   17  O   UNL     1      34.086  52.848  39.093  1.00  0.00    -0.265 OA
BRANCH  15  18
HETATM   18  C   UNL     1      35.373  50.937  40.667  1.00  0.00     0.150 C 
BRANCH  18  19
HETATM   19  C   UNL     1      35.236  51.171  42.184  1.00  0.00     0.253 C 
BRANCH  19  20
HETATM   20  N   UNL     1      35.784  52.516  42.617  1.00  0.00    -0.077 N 
HETATM   21  H   UNL     1      35.009  53.203  42.535  1.00  0.00     0.279 HD
HETATM   22  C   UNL     1      36.163  52.575  44.067  1.00  0.00     0.269 C 
HETATM   23  C   UNL     1      36.890  52.998  41.728  1.00  0.00     0.269 C 
ENDBRANCH  19  20
ENDBRANCH  18  19
ENDBRANCH  15  18
ENDBRANCH  11  14
ENDBRANCH   8   9
ENDBRANCH   7   8
ENDBRANCH   3   7
BRANCH   1  24
HETATM   24  N   UNL     1      27.194  47.978  40.796  1.00  0.00    -0.362 N 
HETATM   25  C   UNL     1      27.628  46.566  40.896  1.00  0.00     0.152 C 
HETATM   26  C   UNL     1      28.387  46.130  39.624  1.00  0.00     0.254 C 
HETATM   27  N   UNL     1      27.513  46.381  38.386  1.00  0.00    -0.072 N 
HETATM   28  C   UNL     1      28.171  45.920  37.122  1.00  0.00     0.269 C 
HETATM   29  H   UNL     1      26.660  45.817  38.507  1.00  0.00     0.279 HD
HETATM   30  C   UNL     1      27.080  47.844  38.310  1.00  0.00     0.254 C 
HETATM   31  C   UNL     1      26.362  48.266  39.612  1.00  0.00     0.152 C 
ENDBRANCH   1  24
BRANCH   5  32
HETATM   32  C   UNL     1      31.563  49.152  42.749  1.00  0.00     0.434 C 
HETATM   33  F   UNL     1      32.090  50.098  43.572  1.00  0.00    -0.165 F 
HETATM   34  F   UNL     1      31.455  48.016  43.495  1.00  0.00    -0.165 F 
HETATM   35  F   UNL     1      32.513  48.890  41.809  1.00  0.00    -0.165 F 
ENDBRANCH   5  32
TORSDOF 9
ENDMDL
MODEL 3
REMARK VINA RESULT:      -7.7      4.222      9.955
REMARK  9 active torsions:
REMARK  status: ('A' for Active; 'I' for Inactive)
REMARK    1  A    between atoms: N_6  and  C_7 
REMARK    2  A    between atoms: C_9  and  S_10 
REMARK    3  A    between atoms: S_10  and  C_11 
REMARK    4  A    between atoms: C_11  and  C_12 
REMARK    5  A    between atoms: C_14  and  C_15 
REMARK       I    between atoms: C_15  and  N_16 
REMARK    6  A    between atoms: N_16  and  C_17 
REMARK    7  A    between atoms: C_17  and  C_18 
REMARK    8  A    between atoms: C_18  and  N_19 
REMARK    9  A    between atoms: C_27  and  C_28 
ROOT
HETATM    1  C   UNL     1      20.319  48.331  49.193  1.00  0.00     0.130 A 
HETATM    2  N   UNL     1      20.632  47.161  48.607  1.00  0.00    -0.205 NA
HETATM    3  C   UNL     1      21.864  47.013  48.089  1.00  0.00     0.191 A 
HETATM    4  N   UNL     1      22.781  47.981  48.036  1.00  0.00    -0.218 NA
HETATM    5  C   UNL     1      22.468  49.160  48.616  1.00  0.00     0.146 A 
HETATM    6  C   UNL     1      21.240  49.362  49.223  1.00  0.00     0.087 A 
ENDROOT
BRANCH   3   7
HETATM    7  S   UNL     1      22.315  45.404  47.489  1.00  0.00    -0.084 SA
BRANCH   7   8
HETATM    8  C   UNL     1      22.423  44.559  49.092  1.00  0.00     0.147 C 
BRANCH   8   9
HETATM    9  C   UNL     1      23.676  44.855  49.835  1.00  0.00     0.063 A 
HETATM   10  O   UNL     1      23.711  44.535  51.163  1.00  0.00    -0.309 OA
HETATM   11  C   UNL     1      25.002  44.713  51.588  1.00  0.00     0.143 A 
HETATM   12  C   UNL     1      25.773  45.187  50.547  1.00  0.00     0.045 A 
HETATM   13  C   UNL     1      24.916  45.303  49.428  1.00  0.00     0.036 A 
BRANCH  11  14
HETATM   14  C   UNL     1      25.349  44.353  52.940  1.00  0.00     0.275 C 
HETATM   15  N   UNL     1      26.696  44.174  53.174  1.00  0.00    -0.354 N 
HETATM   16  H   UNL     1      27.296  44.214  52.352  1.00  0.00     0.162 HD
HETATM   17  O   UNL     1      24.546  44.241  53.867  1.00  0.00    -0.265 OA
BRANCH  15  18
HETATM   18  C   UNL     1      27.201  43.565  54.397  1.00  0.00     0.150 C 
BRANCH  18  19
HETATM   19  C   UNL     1      27.989  42.260  54.167  1.00  0.00     0.253 C 
BRANCH  19  20
HETATM   20  N   UNL     1      28.792  42.284  52.883  1.00  0.00    -0.077 N 
HETATM   21  H   UNL     1      28.362  43.002  52.266  1.00  0.00     0.279 HD
HETATM   22  C   UNL     1      30.203  42.764  53.062  1.00  0.00     0.269 C 
HETATM   23  C   UNL     1      28.733  40.983  52.143  1.00  0.00     0.269 C 
ENDBRANCH  19  20
ENDBRANCH  18  19
ENDBRANCH  15  18
ENDBRANCH  11  14
ENDBRANCH   8   9
ENDBRANCH   7   8
ENDBRANCH   3   7
BRANCH   1  24
HETATM   24  N   UNL     1      19.078  48.450  49.825  1.00  0.00    -0.362 N 
HETATM   25  C   UNL     1      17.907  48.013  49.032  1.00  0.00     0.152 C 
HETATM   26  C   UNL     1      17.365  49.169  48.165  1.00  0.00     0.254 C 
HETATM   27  N   UNL     1      17.042  50.378  49.055  1.00  0.00    -0.072 N 
HETATM   28  C   UNL     1      16.451  51.516  48.280  1.00  0.00     0.269 C 
HETATM   29  H   UNL     1      16.327  50.067  49.728  1.00  0.00     0.279 HD
HETATM   30  C   UNL     1      18.266  50.806  49.862  1.00  0.00     0.254 C 
HETATM   31  C   UNL     1      18.815  49.619  50.686  1.00  0.00     0.152 C 
ENDBRANCH   1  24
BRANCH   5  32
HETATM   32  C   UNL     1      23.483  50.294  48.609  1.00  0.00     0.434 C 
HETATM   33  F   UNL     1      23.297  51.205  49.600  1.00  0.00    -0.165 F 
HETATM   34  F   UNL     1      24.757  49.830  48.749  1.00  0.00    -0.165 F 
HETATM   35  F   UNL     1      23.468  50.992  47.439  1.00  0.00    -0.165 F 
ENDBRANCH   5  32
TORSDOF 9
ENDMDL
MODEL 4
REMARK VINA RESULT:      -7.7      4.360      7.136
REMARK  9 active torsions:
REMARK  status: ('A' for Active; 'I' for Inactive)
REMARK    1  A    between atoms: N_6  and  C_7 
REMARK    2  A    between atoms: C_9  and  S_10 
REMARK    3  A    between atoms: S_10  and  C_11 
REMARK    4  A    between atoms: C_11  and  C_12 
REMARK    5  A    between atoms: C_14  and  C_15 
REMARK       I    between atoms: C_15  and  N_16 
REMARK    6  A    between atoms: N_16  and  C_17 
REMARK    7  A    between atoms: C_17  and  C_18 
REMARK    8  A    between atoms: C_18  and  N_19 
REMARK    9  A    between atoms: C_27  and  C_28 
ROOT
HETATM    1  C   UNL     1      28.023  40.713  49.765  1.00  0.00     0.130 A 
HETATM    2  N   UNL     1      27.075  41.594  49.400  1.00  0.00    -0.205 NA
HETATM    3  C   UNL     1      26.625  42.468  50.317  1.00  0.00     0.191 A 
HETATM    4  N   UNL     1      26.992  42.471  51.601  1.00  0.00    -0.218 NA
HETATM    5  C   UNL     1      27.939  41.583  51.974  1.00  0.00     0.146 A 
HETATM    6  C   UNL     1      28.491  40.694  51.066  1.00  0.00     0.087 A 
ENDROOT
BRANCH   3   7
HETATM    7  S   UNL     1      25.511  43.737  49.766  1.00  0.00    -0.084 SA
BRANCH   7   8
HETATM    8  C   UNL     1      26.564  45.170  50.130  1.00  0.00     0.147 C 
BRANCH   8   9
HETATM    9  C   UNL     1      26.200  45.869  51.391  1.00  0.00     0.063 A 
HETATM   10  O   UNL     1      27.023  45.695  52.467  1.00  0.00    -0.309 OA
HETATM   11  C   UNL     1      26.609  46.568  53.439  1.00  0.00     0.143 A 
HETATM   12  C   UNL     1      25.500  47.260  53.000  1.00  0.00     0.045 A 
HETATM   13  C   UNL     1      25.221  46.793  51.694  1.00  0.00     0.036 A 
BRANCH  11  14
HETATM   14  C   UNL     1      27.367  46.666  54.661  1.00  0.00     0.275 C 
HETATM   15  N   UNL     1      28.416  45.778  54.776  1.00  0.00    -0.354 N 
HETATM   16  H   UNL     1      28.485  45.079  54.038  1.00  0.00     0.162 HD
HETATM   17  O   UNL     1      27.165  47.493  55.551  1.00  0.00    -0.265 OA
BRANCH  15  18
HETATM   18  C   UNL     1      29.120  45.562  56.032  1.00  0.00     0.150 C 
BRANCH  18  19
HETATM   19  C   UNL     1      30.294  44.568  55.928  1.00  0.00     0.253 C 
BRANCH  19  20
HETATM   20  N   UNL     1      30.787  44.107  57.285  1.00  0.00    -0.077 N 
HETATM   21  H   UNL     1      30.094  43.423  57.646  1.00  0.00     0.279 HD
HETATM   22  C   UNL     1      32.067  43.325  57.228  1.00  0.00     0.269 C 
HETATM   23  C   UNL     1      30.857  45.225  58.281  1.00  0.00     0.269 C 
ENDBRANCH  19  20
ENDBRANCH  18  19
ENDBRANCH  15  18
ENDBRANCH  11  14
ENDBRANCH   8   9
ENDBRANCH   7   8
ENDBRANCH   3   7
BRANCH   1  24
HETATM   24  N   UNL     1      28.568  39.876  48.788  1.00  0.00    -0.362 N 
HETATM   25  C   UNL     1      27.819  39.801  47.514  1.00  0.00     0.152 C 
HETATM   26  C   UNL     1      26.731  38.708  47.576  1.00  0.00     0.254 C 
HETATM   27  N   UNL     1      27.369  37.362  47.951  1.00  0.00    -0.072 N 
HETATM   28  C   UNL     1      26.372  36.244  47.967  1.00  0.00     0.269 C 
HETATM   29  H   UNL     1      28.055  37.145  47.215  1.00  0.00     0.279 HD
HETATM   30  C   UNL     1      28.136  37.468  49.267  1.00  0.00     0.254 C 
HETATM   31  C   UNL     1      29.187  38.599  49.193  1.00  0.00     0.152 C 
ENDBRANCH   1  24
BRANCH   5  32
HETATM   32  C   UNL     1      28.416  41.555  53.418  1.00  0.00     0.434 C 
HETATM   33  F   UNL     1      28.572  40.303  53.922  1.00  0.00    -0.165 F 
HETATM   34  F   UNL     1      29.619  42.179  53.562  1.00  0.00    -0.165 F 
HETATM   35  F   UNL     1      27.559  42.202  54.256  1.00  0.00    -0.165 F 
ENDBRANCH   5  32
TORSDOF 9
ENDMDL
MODEL 5
REMARK VINA RESULT:      -7.6     12.193     15.362
REMARK  9 active torsions:
REMARK  status: ('A' for Active; 'I' for Inactive)
REMARK    1  A    between atoms: N_6  and  C_7 
REMARK    2  A    between atoms: C_9  and  S_10 
REMARK    3  A    between atoms: S_10  and  C_11 
REMARK    4  A    between atoms: C_11  and  C_12 
REMARK    5  A    between atoms: C_14  and  C_15 
REMARK       I    between atoms: C_15  and  N_16 
REMARK    6  A    between atoms: N_16  and  C_17 
REMARK    7  A    between atoms: C_17  and  C_18 
REMARK    8  A    between atoms: C_18  and  N_19 
REMARK    9  A    between atoms: C_27  and  C_28 
ROOT
HETATM    1  C   UNL     1      30.543  52.751  40.860  1.00  0.00     0.130 A 
HETATM    2  N   UNL     1      31.524  52.574  39.958  1.00  0.00    -0.205 NA
HETATM    3  C   UNL     1      32.715  52.121  40.388  1.00  0.00     0.191 A 
HETATM    4  N   UNL     1      33.026  51.914  41.670  1.00  0.00    -0.218 NA
HETATM    5  C   UNL     1      32.045  52.098  42.580  1.00  0.00     0.146 A 
HETATM    6  C   UNL     1      30.776  52.504  42.201  1.00  0.00     0.087 A 
ENDROOT
BRANCH   3   7
HETATM    7  S   UNL     1      33.935  51.720  39.160  1.00  0.00    -0.084 SA
BRANCH   7   8
HETATM    8  C   UNL     1      35.241  52.847  39.726  1.00  0.00     0.147 C 
BRANCH   8   9
HETATM    9  C   UNL     1      36.095  52.273  40.799  1.00  0.00     0.063 A 
HETATM   10  O   UNL     1      36.246  53.006  41.943  1.00  0.00    -0.309 OA
HETATM   11  C   UNL     1      36.900  52.211  42.848  1.00  0.00     0.143 A 
HETATM   12  C   UNL     1      37.203  50.997  42.268  1.00  0.00     0.045 A 
HETATM   13  C   UNL     1      36.709  51.046  40.943  1.00  0.00     0.036 A 
BRANCH  11  14
HETATM   14  C   UNL     1      37.108  52.702  44.187  1.00  0.00     0.275 C 
HETATM   15  N   UNL     1      37.262  54.069  44.296  1.00  0.00    -0.354 N 
HETATM   16  H   UNL     1      37.313  54.578  43.415  1.00  0.00     0.162 HD
HETATM   17  O   UNL     1      37.116  52.003  45.201  1.00  0.00    -0.265 OA
BRANCH  15  18
HETATM   18  C   UNL     1      37.731  54.706  45.517  1.00  0.00     0.150 C 
BRANCH  18  19
HETATM   19  C   UNL     1      39.267  54.762  45.644  1.00  0.00     0.253 C 
BRANCH  19  20
HETATM   20  N   UNL     1      39.788  53.903  46.779  1.00  0.00    -0.077 N 
HETATM   21  H   UNL     1      40.525  54.452  47.264  1.00  0.00     0.279 HD
HETATM   22  C   UNL     1      38.772  53.641  47.852  1.00  0.00     0.269 C 
HETATM   23  C   UNL     1      40.431  52.640  46.295  1.00  0.00     0.269 C 
ENDBRANCH  19  20
ENDBRANCH  18  19
ENDBRANCH  15  18
ENDBRANCH  11  14
ENDBRANCH   8   9
ENDBRANCH   7   8
ENDBRANCH   3   7
BRANCH   1  24
HETATM   24  N   UNL     1      29.274  53.118  40.402  1.00  0.00    -0.362 N 
HETATM   25  C   UNL     1      28.151  52.836  41.324  1.00  0.00     0.152 C 
HETATM   26  C   UNL     1      27.608  51.407  41.113  1.00  0.00     0.254 C 
HETATM   27  N   UNL     1      27.210  51.215  39.642  1.00  0.00    -0.072 N 
HETATM   28  C   UNL     1      26.616  49.864  39.384  1.00  0.00     0.269 C 
HETATM   29  H   UNL     1      26.479  51.911  39.440  1.00  0.00     0.279 HD
HETATM   30  C   UNL     1      28.386  51.513  38.714  1.00  0.00     0.254 C 
HETATM   31  C   UNL     1      28.938  52.932  38.977  1.00  0.00     0.152 C 
ENDBRANCH   1  24
BRANCH   5  32
HETATM   32  C   UNL     1      32.332  51.854  44.053  1.00  0.00     0.434 C 
HETATM   33  F   UNL     1      32.156  50.564  44.443  1.00  0.00    -0.165 F 
HETATM   34  F   UNL     1      33.616  52.179  44.377  1.00  0.00    -0.165 F 
HETATM   35  F   UNL     1      31.542  52.610  44.865  1.00  0.00    -0.165 F 
ENDBRANCH   5  32
TORSDOF 9
ENDMDL
MODEL 6
REMARK VINA RESULT:      -7.4      5.046      8.001
REMARK  9 active torsions:
REMARK  status: ('A' for Active; 'I' for Inactive)
REMARK    1  A    between atoms: N_6  and  C_7 
REMARK    2  A    between atoms: C_9  and  S_10 
REMARK    3  A    between atoms: S_10  and  C_11 
REMARK    4  A    between atoms: C_11  and  C_12 
REMARK    5  A    between atoms: C_14  and  C_15 
REMARK       I    between atoms: C_15  and  N_16 
REMARK    6  A    between atoms: N_16  and  C_17 
REMARK    7  A    between atoms: C_17  and  C_18 
REMARK    8  A    between atoms: C_18  and  N_19 
REMARK    9  A    between atoms: C_27  and  C_28 
ROOT
HETATM    1  C   UNL     1      22.205  47.196  48.299  1.00  0.00     0.130 A 
HETATM    2  N   UNL     1      21.956  48.500  48.512  1.00  0.00    -0.205 NA
HETATM    3  C   UNL     1      22.789  49.189  49.312  1.00  0.00     0.191 A 
HETATM    4  N   UNL     1      23.808  48.649  49.984  1.00  0.00    -0.218 NA
HETATM    5  C   UNL     1      24.057  47.338  49.779  1.00  0.00     0.146 A 
HETATM    6  C   UNL     1      23.276  46.581  48.921  1.00  0.00     0.087 A 
ENDROOT
BRANCH   3   7
HETATM    7  S   UNL     1      22.549  50.945  49.431  1.00  0.00    -0.084 SA
BRANCH   7   8
HETATM    8  C   UNL     1      20.970  50.921  50.327  1.00  0.00     0.147 C 
BRANCH   8   9
HETATM    9  C   UNL     1      19.825  51.425  49.523  1.00  0.00     0.063 A 
HETATM   10  O   UNL     1      18.608  51.501  50.140  1.00  0.00    -0.309 OA
HETATM   11  C   UNL     1      17.763  52.161  49.287  1.00  0.00     0.143 A 
HETATM   12  C   UNL     1      18.426  52.462  48.116  1.00  0.00     0.045 A 
HETATM   13  C   UNL     1      19.744  51.966  48.257  1.00  0.00     0.036 A 
BRANCH  11  14
HETATM   14  C   UNL     1      16.425  52.469  49.727  1.00  0.00     0.275 C 
HETATM   15  N   UNL     1      16.282  53.677  50.375  1.00  0.00    -0.354 N 
HETATM   16  H   UNL     1      17.147  54.180  50.566  1.00  0.00     0.162 HD
HETATM   17  O   UNL     1      15.437  51.759  49.529  1.00  0.00    -0.265 OA
BRANCH  15  18
HETATM   18  C   UNL     1      15.074  54.032  51.106  1.00  0.00     0.150 C 
BRANCH  18  19
HETATM   19  C   UNL     1      14.372  55.299  50.577  1.00  0.00     0.253 C 
BRANCH  19  20
HETATM   20  N   UNL     1      14.471  56.463  51.543  1.00  0.00    -0.077 N 
HETATM   21  H   UNL     1      13.502  56.796  51.721  1.00  0.00     0.279 HD
HETATM   22  C   UNL     1      14.973  56.077  52.904  1.00  0.00     0.269 C 
HETATM   23  C   UNL     1      15.232  57.621  50.973  1.00  0.00     0.269 C 
ENDBRANCH  19  20
ENDBRANCH  18  19
ENDBRANCH  15  18
ENDBRANCH  11  14
ENDBRANCH   8   9
ENDBRANCH   7   8
ENDBRANCH   3   7
BRANCH   1  24
HETATM   24  N   UNL     1      21.404  46.504  47.386  1.00  0.00    -0.362 N 
HETATM   25  C   UNL     1      20.471  47.334  46.591  1.00  0.00     0.152 C 
HETATM   26  C   UNL     1      19.132  47.526  47.334  1.00  0.00     0.254 C 
HETATM   27  N   UNL     1      18.532  46.156  47.684  1.00  0.00    -0.072 N 
HETATM   28  C   UNL     1      17.197  46.273  48.354  1.00  0.00     0.269 C 
HETATM   29  H   UNL     1      18.382  45.662  46.794  1.00  0.00     0.279 HD
HETATM   30  C   UNL     1      19.515  45.322  48.503  1.00  0.00     0.254 C 
HETATM   31  C   UNL     1      20.861  45.182  47.756  1.00  0.00     0.152 C 
ENDBRANCH   1  24
BRANCH   5  32
HETATM   32  C   UNL     1      25.220  46.672  50.500  1.00  0.00     0.434 C 
HETATM   33  F   UNL     1      25.847  47.479  51.396  1.00  0.00    -0.165 F 
HETATM   34  F   UNL     1      24.817  45.570  51.194  1.00  0.00    -0.165 F 
HETATM   35  F   UNL     1      26.180  46.238  49.637  1.00  0.00    -0.165 F 
ENDBRANCH   5  32
TORSDOF 9
ENDMDL
MODEL 7
REMARK VINA RESULT:      -7.4     10.963     12.593
REMARK  9 active torsions:
REMARK  status: ('A' for Active; 'I' for Inactive)
REMARK    1  A    between atoms: N_6  and  C_7 
REMARK    2  A    between atoms: C_9  and  S_10 
REMARK    3  A    between atoms: S_10  and  C_11 
REMARK    4  A    between atoms: C_11  and  C_12 
REMARK    5  A    between atoms: C_14  and  C_15 
REMARK       I    between atoms: C_15  and  N_16 
REMARK    6  A    between atoms: N_16  and  C_17 
REMARK    7  A    between atoms: C_17  and  C_18 
REMARK    8  A    between atoms: C_18  and  N_19 
REMARK    9  A    between atoms: C_27  and  C_28 
ROOT
HETATM    1  C   UNL     1      32.519  49.928  41.590  1.00  0.00     0.130 A 
HETATM    2  N   UNL     1      31.701  50.979  41.776  1.00  0.00    -0.205 NA
HETATM    3  C   UNL     1      32.120  52.194  41.382  1.00  0.00     0.191 A 
HETATM    4  N   UNL     1      33.335  52.452  40.892  1.00  0.00    -0.218 NA
HETATM    5  C   UNL     1      34.162  51.400  40.710  1.00  0.00     0.146 A 
HETATM    6  C   UNL     1      33.774  50.111  41.037  1.00  0.00     0.087 A 
ENDROOT
BRANCH   3   7
HETATM    7  S   UNL     1      30.956  53.533  41.468  1.00  0.00    -0.084 SA
BRANCH   7   8
HETATM    8  C   UNL     1      29.434  52.541  41.476  1.00  0.00     0.147 C 
BRANCH   8   9
HETATM    9  C   UNL     1      28.952  52.184  40.116  1.00  0.00     0.063 A 
HETATM   10  O   UNL     1      28.015  51.194  40.021  1.00  0.00    -0.309 OA
HETATM   11  C   UNL     1      27.585  51.169  38.720  1.00  0.00     0.143 A 
HETATM   12  C   UNL     1      28.277  52.107  37.983  1.00  0.00     0.045 A 
HETATM   13  C   UNL     1      29.174  52.742  38.874  1.00  0.00     0.036 A 
BRANCH  11  14
HETATM   14  C   UNL     1      26.515  50.275  38.355  1.00  0.00     0.275 C 
HETATM   15  N   UNL     1      25.502  50.157  39.283  1.00  0.00    -0.354 N 
HETATM   16  H   UNL     1      25.660  50.633  40.170  1.00  0.00     0.162 HD
HETATM   17  O   UNL     1      26.440  49.666  37.286  1.00  0.00    -0.265 OA
BRANCH  15  18
HETATM   18  C   UNL     1      24.485  49.120  39.200  1.00  0.00     0.150 C 
BRANCH  18  19
HETATM   19  C   UNL     1      23.067  49.654  38.916  1.00  0.00     0.253 C 
BRANCH  19  20
HETATM   20  N   UNL     1      22.314  50.005  40.183  1.00  0.00    -0.077 N 
HETATM   21  H   UNL     1      23.007  50.020  40.957  1.00  0.00     0.279 HD
HETATM   22  C   UNL     1      21.747  51.395  40.182  1.00  0.00     0.269 C 
HETATM   23  C   UNL     1      21.282  48.980  40.542  1.00  0.00     0.269 C 
ENDBRANCH  19  20
ENDBRANCH  18  19
ENDBRANCH  15  18
ENDBRANCH  11  14
ENDBRANCH   8   9
ENDBRANCH   7   8
ENDBRANCH   3   7
BRANCH   1  24
HETATM   24  N   UNL     1      32.045  48.650  41.900  1.00  0.00    -0.362 N 
HETATM   25  C   UNL     1      32.156  47.644  40.821  1.00  0.00     0.152 C 
HETATM   26  C   UNL     1      30.914  47.677  39.904  1.00  0.00     0.254 C 
HETATM   27  N   UNL     1      29.643  47.486  40.745  1.00  0.00    -0.072 N 
HETATM   28  C   UNL     1      28.404  47.447  39.904  1.00  0.00     0.269 C 
HETATM   29  H   UNL     1      29.727  46.568  41.203  1.00  0.00     0.279 HD
HETATM   30  C   UNL     1      29.556  48.536  41.850  1.00  0.00     0.254 C 
HETATM   31  C   UNL     1      30.829  48.511  42.725  1.00  0.00     0.152 C 
ENDBRANCH   1  24
BRANCH   5  32
HETATM   32  C   UNL     1      35.551  51.628  40.132  1.00  0.00     0.434 C 
HETATM   33  F   UNL     1      35.697  51.178  38.858  1.00  0.00    -0.165 F 
HETATM   34  F   UNL     1      35.877  52.951  40.111  1.00  0.00    -0.165 F 
HETATM   35  F   UNL     1      36.522  51.018  40.867  1.00  0.00    -0.165 F 
ENDBRANCH   5  32
TORSDOF 9
ENDMDL
MODEL 8
REMARK VINA RESULT:      -7.4     11.988     14.666
REMARK  9 active torsions:
REMARK  status: ('A' for Active; 'I' for Inactive)
REMARK    1  A    between atoms: N_6  and  C_7 
REMARK    2  A    between atoms: C_9  and  S_10 
REMARK    3  A    between atoms: S_10  and  C_11 
REMARK    4  A    between atoms: C_11  and  C_12 
REMARK    5  A    between atoms: C_14  and  C_15 
REMARK       I    between atoms: C_15  and  N_16 
REMARK    6  A    between atoms: N_16  and  C_17 
REMARK    7  A    between atoms: C_17  and  C_18 
REMARK    8  A    between atoms: C_18  and  N_19 
REMARK    9  A    between atoms: C_27  and  C_28 
ROOT
HETATM    1  C   UNL     1      29.142  49.335  39.867  1.00  0.00     0.130 A 
HETATM    2  N   UNL     1      30.053  48.987  40.793  1.00  0.00    -0.205 NA
HETATM    3  C   UNL     1      30.638  49.960  41.514  1.00  0.00     0.191 A 
HETATM    4  N   UNL     1      30.443  51.266  41.317  1.00  0.00    -0.218 NA
HETATM    5  C   UNL     1      29.536  51.620  40.382  1.00  0.00     0.146 A 
HETATM    6  C   UNL     1      28.849  50.668  39.646  1.00  0.00     0.087 A 
ENDROOT
BRANCH   3   7
HETATM    7  S   UNL     1      31.696  49.467  42.853  1.00  0.00    -0.084 SA
BRANCH   7   8
HETATM    8  C   UNL     1      32.287  51.118  43.326  1.00  0.00     0.147 C 
BRANCH   8   9
HETATM    9  C   UNL     1      33.709  51.364  42.969  1.00  0.00     0.063 A 
HETATM   10  O   UNL     1      34.465  52.079  43.854  1.00  0.00    -0.309 OA
HETATM   11  C   UNL     1      35.764  52.016  43.420  1.00  0.00     0.143 A 
HETATM   12  C   UNL     1      35.825  51.303  42.240  1.00  0.00     0.045 A 
HETATM   13  C   UNL     1      34.501  50.906  41.937  1.00  0.00     0.036 A 
BRANCH  11  14
HETATM   14  C   UNL     1      36.800  52.609  44.226  1.00  0.00     0.275 C 
HETATM   15  N   UNL     1      37.237  53.848  43.807  1.00  0.00    -0.354 N 
HETATM   16  H   UNL     1      36.858  54.171  42.918  1.00  0.00     0.162 HD
HETATM   17  O   UNL     1      37.269  52.109  45.250  1.00  0.00    -0.265 OA
BRANCH  15  18
HETATM   18  C   UNL     1      38.439  54.473  44.339  1.00  0.00     0.150 C 
BRANCH  18  19
HETATM   19  C   UNL     1      38.211  55.891  44.900  1.00  0.00     0.253 C 
BRANCH  19  20
HETATM   20  N   UNL     1      38.870  56.094  46.250  1.00  0.00    -0.077 N 
HETATM   21  H   UNL     1      38.298  56.791  46.767  1.00  0.00     0.279 HD
HETATM   22  C   UNL     1      38.833  54.877  47.128  1.00  0.00     0.269 C 
HETATM   23  C   UNL     1      40.251  56.661  46.136  1.00  0.00     0.269 C 
ENDBRANCH  19  20
ENDBRANCH  18  19
ENDBRANCH  15  18
ENDBRANCH  11  14
ENDBRANCH   8   9
ENDBRANCH   7   8
ENDBRANCH   3   7
BRANCH   1  24
HETATM   24  N   UNL     1      28.455  48.322  39.193  1.00  0.00    -0.362 N 
HETATM   25  C   UNL     1      27.194  48.729  38.533  1.00  0.00     0.152 C 
HETATM   26  C   UNL     1      26.002  48.629  39.509  1.00  0.00     0.254 C 
HETATM   27  N   UNL     1      25.921  47.207  40.085  1.00  0.00    -0.072 N 
HETATM   28  C   UNL     1      24.745  47.028  40.995  1.00  0.00     0.269 C 
HETATM   29  H   UNL     1      25.786  46.572  39.287  1.00  0.00     0.279 HD
HETATM   30  C   UNL     1      27.234  46.814  40.758  1.00  0.00     0.254 C 
HETATM   31  C   UNL     1      28.416  46.965  39.773  1.00  0.00     0.152 C 
ENDBRANCH   1  24
BRANCH   5  32
HETATM   32  C   UNL     1      29.253  53.093  40.130  1.00  0.00     0.434 C 
HETATM   33  F   UNL     1      30.301  53.912  40.414  1.00  0.00    -0.165 F 
HETATM   34  F   UNL     1      28.927  53.327  38.827  1.00  0.00    -0.165 F 
HETATM   35  F   UNL     1      28.201  53.550  40.864  1.00  0.00    -0.165 F 
ENDBRANCH   5  32
TORSDOF 9
ENDMDL
MODEL 9
REMARK VINA RESULT:      -7.4      1.908      2.408
REMARK  9 active torsions:
REMARK  status: ('A' for Active; 'I' for Inactive)
REMARK    1  A    between atoms: N_6  and  C_7 
REMARK    2  A    between atoms: C_9  and  S_10 
REMARK    3  A    between atoms: S_10  and  C_11 
REMARK    4  A    between atoms: C_11  and  C_12 
REMARK    5  A    between atoms: C_14  and  C_15 
REMARK       I    between atoms: C_15  and  N_16 
REMARK    6  A    between atoms: N_16  and  C_17 
REMARK    7  A    between atoms: C_17  and  C_18 
REMARK    8  A    between atoms: C_18  and  N_19 
REMARK    9  A    between atoms: C_27  and  C_28 
ROOT
HETATM    1  C   UNL     1      27.170  42.071  51.739  1.00  0.00     0.130 A 
HETATM    2  N   UNL     1      26.493  43.218  51.554  1.00  0.00    -0.205 NA
HETATM    3  C   UNL     1      26.929  44.327  52.178  1.00  0.00     0.191 A 
HETATM    4  N   UNL     1      27.944  44.356  53.044  1.00  0.00    -0.218 NA
HETATM    5  C   UNL     1      28.622  43.204  53.238  1.00  0.00     0.146 A 
HETATM    6  C   UNL     1      28.267  42.038  52.581  1.00  0.00     0.087 A 
ENDROOT
BRANCH   3   7
HETATM    7  S   UNL     1      26.133  45.863  51.777  1.00  0.00    -0.084 SA
BRANCH   7   8
HETATM    8  C   UNL     1      25.961  45.597  49.989  1.00  0.00     0.147 C 
BRANCH   8   9
HETATM    9  C   UNL     1      24.552  45.424  49.547  1.00  0.00     0.063 A 
HETATM   10  O   UNL     1      23.851  46.552  49.226  1.00  0.00    -0.309 OA
HETATM   11  C   UNL     1      22.665  46.146  48.672  1.00  0.00     0.143 A 
HETATM   12  C   UNL     1      22.593  44.769  48.683  1.00  0.00     0.045 A 
HETATM   13  C   UNL     1      23.795  44.305  49.269  1.00  0.00     0.036 A 
BRANCH  11  14
HETATM   14  C   UNL     1      21.761  47.140  48.149  1.00  0.00     0.275 C 
HETATM   15  N   UNL     1      20.824  47.614  49.043  1.00  0.00    -0.354 N 
HETATM   16  H   UNL     1      20.800  47.143  49.946  1.00  0.00     0.162 HD
HETATM   17  O   UNL     1      21.805  47.600  47.006  1.00  0.00    -0.265 OA
BRANCH  15  18
HETATM   18  C   UNL     1      19.685  48.417  48.626  1.00  0.00     0.150 C 
BRANCH  18  19
HETATM   19  C   UNL     1      19.294  49.519  49.631  1.00  0.00     0.253 C 
BRANCH  19  20
HETATM   20  N   UNL     1      19.306  50.902  49.011  1.00  0.00    -0.077 N 
HETATM   21  H   UNL     1      18.709  50.861  48.161  1.00  0.00     0.279 HD
HETATM   22  C   UNL     1      18.648  51.950  49.861  1.00  0.00     0.269 C 
HETATM   23  C   UNL     1      20.673  51.320  48.564  1.00  0.00     0.269 C 
ENDBRANCH  19  20
ENDBRANCH  18  19
ENDBRANCH  15  18
ENDBRANCH  11  14
ENDBRANCH   8   9
ENDBRANCH   7   8
ENDBRANCH   3   7
BRANCH   1  24
HETATM   24  N   UNL     1      26.784  40.944  51.008  1.00  0.00    -0.362 N 
HETATM   25  C   UNL     1      27.881  40.046  50.583  1.00  0.00     0.152 C 
HETATM   26  C   UNL     1      28.466  40.492  49.226  1.00  0.00     0.254 C 
HETATM   27  N   UNL     1      27.345  40.572  48.179  1.00  0.00    -0.072 N 
HETATM   28  C   UNL     1      27.860  40.941  46.821  1.00  0.00     0.269 C 
HETATM   29  H   UNL     1      26.943  39.627  48.104  1.00  0.00     0.279 HD
HETATM   30  C   UNL     1      26.228  41.503  48.644  1.00  0.00     0.254 C 
HETATM   31  C   UNL     1      25.691  41.060  50.024  1.00  0.00     0.152 C 
ENDBRANCH   1  24
BRANCH   5  32
HETATM   32  C   UNL     1      29.805  43.181  54.195  1.00  0.00     0.434 C 
HETATM   33  F   UNL     1      30.010  44.356  54.846  1.00  0.00    -0.165 F 
HETATM   34  F   UNL     1      29.652  42.231  55.160  1.00  0.00    -0.165 F 
HETATM   35  F   UNL     1      30.974  42.884  53.563  1.00  0.00    -0.165 F 
ENDBRANCH   5  32
TORSDOF 9
ENDMDL
MODEL 10
REMARK VINA RESULT:      -7.3      4.467      8.749
REMARK  9 active torsions:
REMARK  status: ('A' for Active; 'I' for Inactive)
REMARK    1  A    between atoms: N_6  and  C_7 
REMARK    2  A    between atoms: C_9  and  S_10 
REMARK    3  A    between atoms: S_10  and  C_11 
REMARK    4  A    between atoms: C_11  and  C_12 
REMARK    5  A    between atoms: C_14  and  C_15 
REMARK       I    between atoms: C_15  and  N_16 
REMARK    6  A    between atoms: N_16  and  C_17 
REMARK    7  A    between atoms: C_17  and  C_18 
REMARK    8  A    between atoms: C_18  and  N_19 
REMARK    9  A    between atoms: C_27  and  C_28 
ROOT
HETATM    1  C   UNL     1      22.464  47.045  48.767  1.00  0.00     0.130 A 
HETATM    2  N   UNL     1      23.743  46.824  49.121  1.00  0.00    -0.205 NA
HETATM    3  C   UNL     1      24.468  47.859  49.582  1.00  0.00     0.191 A 
HETATM    4  N   UNL     1      24.034  49.121  49.635  1.00  0.00    -0.218 NA
HETATM    5  C   UNL     1      22.753  49.348  49.273  1.00  0.00     0.146 A 
HETATM    6  C   UNL     1      21.930  48.318  48.847  1.00  0.00     0.087 A 
ENDROOT
BRANCH   3   7
HETATM    7  S   UNL     1      26.090  47.509  50.215  1.00  0.00    -0.084 SA
BRANCH   7   8
HETATM    8  C   UNL     1      25.626  47.215  51.945  1.00  0.00     0.147 C 
BRANCH   8   9
HETATM    9  C   UNL     1      25.713  45.787  52.348  1.00  0.00     0.063 A 
HETATM   10  O   UNL     1      25.347  44.849  51.424  1.00  0.00    -0.309 OA
HETATM   11  C   UNL     1      25.687  43.624  51.935  1.00  0.00     0.143 A 
HETATM   12  C   UNL     1      26.224  43.778  53.196  1.00  0.00     0.045 A 
HETATM   13  C   UNL     1      26.217  45.166  53.472  1.00  0.00     0.036 A 
BRANCH  11  14
HETATM   14  C   UNL     1      25.500  42.450  51.120  1.00  0.00     0.275 C 
HETATM   15  N   UNL     1      26.395  41.426  51.347  1.00  0.00    -0.354 N 
HETATM   16  H   UNL     1      27.154  41.639  51.992  1.00  0.00     0.162 HD
HETATM   17  O   UNL     1      24.597  42.302  50.295  1.00  0.00    -0.265 OA
BRANCH  15  18
HETATM   18  C   UNL     1      26.517  40.284  50.453  1.00  0.00     0.150 C 
BRANCH  18  19
HETATM   19  C   UNL     1      27.972  39.854  50.181  1.00  0.00     0.253 C 
BRANCH  19  20
HETATM   20  N   UNL     1      28.133  38.349  50.124  1.00  0.00    -0.077 N 
HETATM   21  H   UNL     1      28.125  38.003  51.104  1.00  0.00     0.279 HD
HETATM   22  C   UNL     1      26.973  37.642  49.485  1.00  0.00     0.269 C 
HETATM   23  C   UNL     1      29.441  37.932  49.525  1.00  0.00     0.269 C 
ENDBRANCH  19  20
ENDBRANCH  18  19
ENDBRANCH  15  18
ENDBRANCH  11  14
ENDBRANCH   8   9
ENDBRANCH   7   8
ENDBRANCH   3   7
BRANCH   1  24
HETATM   24  N   UNL     1      21.678  45.952  48.390  1.00  0.00    -0.362 N 
HETATM   25  C   UNL     1      22.247  44.619  48.686  1.00  0.00     0.152 C 
HETATM   26  C   UNL     1      23.145  44.132  47.528  1.00  0.00     0.254 C 
HETATM   27  N   UNL     1      22.350  44.144  46.214  1.00  0.00    -0.072 N 
HETATM   28  C   UNL     1      23.150  43.622  45.060  1.00  0.00     0.269 C 
HETATM   29  H   UNL     1      21.555  43.504  46.345  1.00  0.00     0.279 HD
HETATM   30  C   UNL     1      21.775  45.531  45.936  1.00  0.00     0.254 C 
HETATM   31  C   UNL     1      20.916  46.011  47.127  1.00  0.00     0.152 C 
ENDBRANCH   1  24
BRANCH   5  32
HETATM   32  C   UNL     1      22.194  50.761  49.335  1.00  0.00     0.434 C 
HETATM   33  F   UNL     1      21.170  50.911  50.216  1.00  0.00    -0.165 F 
HETATM   34  F   UNL     1      23.148  51.664  49.700  1.00  0.00    -0.165 F 
HETATM   35  F   UNL     1      21.725  51.184  48.128  1.00  0.00    -0.165 F 
ENDBRANCH   5  32
TORSDOF 9
ENDMDL
