MODEL 1
REMARK VINA RESULT:      -9.7      0.000      0.000
REMARK  7 active torsions:
REMARK  status: ('A' for Active; 'I' for Inactive)
REMARK    1  A    between atoms: O_2  and  C_3 
REMARK    2  A    between atoms: C_6  and  C_7 
REMARK    3  A    between atoms: C_11  and  C_12 
REMARK       I    between atoms: C_12  and  N_13 
REMARK    4  A    between atoms: N_13  and  N_14 
REMARK       I    between atoms: N_14  and  C_15 
REMARK    5  A    between atoms: C_15  and  C_16 
REMARK    6  A    between atoms: C_16  and  C_17 
REMARK    7  A    between atoms: C_17  and  C_18 
ROOT
HETATM    1  C   UNL     1      25.119  48.170  49.622  1.00  0.00     0.288 C 
HETATM    2  N   UNL     1      24.652  47.337  50.615  1.00  0.00    -0.262 N 
HETATM    3  O   UNL     1      26.307  48.193  49.304  1.00  0.00    -0.264 OA
HETATM    4  H   UNL     1      23.674  47.265  50.888  1.00  0.00     0.190 HD
ENDROOT
BRANCH   1   5
HETATM    5  C   UNL     1      24.130  48.990  48.981  1.00  0.00     0.121 A 
HETATM    6  N   UNL     1      24.422  49.732  47.872  1.00  0.00    -0.272 N 
HETATM    7  N   UNL     1      23.379  50.404  47.368  1.00  0.00    -0.174 NA
HETATM    8  H   UNL     1      25.323  49.803  47.406  1.00  0.00     0.189 HD
HETATM    9  C   UNL     1      22.357  50.112  48.188  1.00  0.00     0.089 A 
HETATM   10  C   UNL     1      22.792  49.235  49.222  1.00  0.00     0.071 A 
BRANCH   9  11
HETATM   11  C   UNL     1      21.008  50.636  47.957  1.00  0.00    -0.005 A 
HETATM   12  C   UNL     1      20.182  50.061  46.981  1.00  0.00     0.016 A 
HETATM   13  C   UNL     1      18.875  50.520  46.778  1.00  0.00     0.037 A 
HETATM   14  C   UNL     1      18.375  51.568  47.546  1.00  0.00     0.068 A 
HETATM   15  C   UNL     1      19.200  52.166  48.502  1.00  0.00     0.037 A 
HETATM   16  C   UNL     1      20.504  51.704  48.711  1.00  0.00     0.016 A 
BRANCH  14  17
HETATM   17  O   UNL     1      17.119  52.103  47.459  1.00  0.00    -0.356 OA
HETATM   18  C   UNL     1      16.387  52.211  48.674  1.00  0.00     0.210 C 
ENDBRANCH  14  17
ENDBRANCH   9  11
ENDBRANCH   1   5
BRANCH   2  19
HETATM   19  N   UNL     1      25.544  46.459  51.237  1.00  0.00    -0.267 N 
HETATM   20  C   UNL     1      25.852  46.675  52.561  1.00  0.00     0.236 C 
HETATM   21  O   UNL     1      25.449  47.653  53.188  1.00  0.00    -0.272 OA
HETATM   22  H   UNL     1      25.751  45.593  50.741  1.00  0.00     0.190 HD
BRANCH  20  23
HETATM   23  C   UNL     1      26.732  45.614  53.175  1.00  0.00     0.109 C 
BRANCH  23  24
HETATM   24  C   UNL     1      27.270  46.068  54.528  1.00  0.00     0.048 C 
BRANCH  24  25
HETATM   25  C   UNL     1      28.474  45.263  54.952  1.00  0.00    -0.058 A 
HETATM   26  C   UNL     1      28.657  43.953  54.483  1.00  0.00     0.010 A 
HETATM   27  C   UNL     1      29.767  43.209  54.886  1.00  0.00     0.043 A 
HETATM   28  C   UNL     1      30.691  43.771  55.758  1.00  0.00     0.116 A 
HETATM   29  F   UNL     1      31.754  43.055  56.144  1.00  0.00    -0.206 F 
HETATM   30  C   UNL     1      30.526  45.066  56.236  1.00  0.00     0.043 A 
HETATM   31  C   UNL     1      29.419  45.813  55.833  1.00  0.00     0.010 A 
ENDBRANCH  24  25
ENDBRANCH  23  24
ENDBRANCH  20  23
ENDBRANCH   2  19
TORSDOF 7
ENDMDL
MODEL 2
REMARK VINA RESULT:      -9.7      4.118     11.592
REMARK  7 active torsions:
REMARK  status: ('A' for Active; 'I' for Inactive)
REMARK    1  A    between atoms: O_2  and  C_3 
REMARK    2  A    between atoms: C_6  and  C_7 
REMARK    3  A    between atoms: C_11  and  C_12 
REMARK       I    between atoms: C_12  and  N_13 
REMARK    4  A    between atoms: N_13  and  N_14 
REMARK       I    between atoms: N_14  and  C_15 
REMARK    5  A    between atoms: C_15  and  C_16 
REMARK    6  A    between atoms: C_16  and  C_17 
REMARK    7  A    between atoms: C_17  and  C_18 
ROOT
HETATM    1  C   UNL     1      24.527  45.951  50.652  1.00  0.00     0.288 C 
HETATM    2  N   UNL     1      24.335  47.309  50.778  1.00  0.00    -0.262 N 
HETATM    3  O   UNL     1      23.840  45.268  49.894  1.00  0.00    -0.264 OA
HETATM    4  H   UNL     1      24.901  47.915  51.369  1.00  0.00     0.190 HD
ENDROOT
BRANCH   1   5
HETATM    5  C   UNL     1      25.585  45.395  51.450  1.00  0.00     0.121 A 
HETATM    6  N   UNL     1      26.196  44.221  51.113  1.00  0.00    -0.272 N 
HETATM    7  N   UNL     1      27.194  43.865  51.933  1.00  0.00    -0.174 NA
HETATM    8  H   UNL     1      25.979  43.627  50.318  1.00  0.00     0.189 HD
HETATM    9  C   UNL     1      27.232  44.832  52.863  1.00  0.00     0.089 A 
HETATM   10  C   UNL     1      26.228  45.807  52.600  1.00  0.00     0.071 A 
BRANCH   9  11
HETATM   11  C   UNL     1      28.224  44.826  53.941  1.00  0.00    -0.005 A 
HETATM   12  C   UNL     1      28.275  45.881  54.863  1.00  0.00     0.016 A 
HETATM   13  C   UNL     1      29.187  45.870  55.926  1.00  0.00     0.037 A 
HETATM   14  C   UNL     1      30.067  44.802  56.081  1.00  0.00     0.068 A 
HETATM   15  C   UNL     1      30.042  43.759  55.152  1.00  0.00     0.037 A 
HETATM   16  C   UNL     1      29.127  43.766  54.093  1.00  0.00     0.016 A 
BRANCH  14  17
HETATM   17  O   UNL     1      30.994  44.660  57.076  1.00  0.00    -0.356 OA
HETATM   18  C   UNL     1      31.742  43.450  57.083  1.00  0.00     0.210 C 
ENDBRANCH  14  17
ENDBRANCH   9  11
ENDBRANCH   1   5
BRANCH   2  19
HETATM   19  N   UNL     1      23.371  47.932  49.981  1.00  0.00    -0.267 N 
HETATM   20  C   UNL     1      23.780  48.931  49.127  1.00  0.00     0.236 C 
HETATM   21  O   UNL     1      24.934  49.356  49.102  1.00  0.00    -0.272 OA
HETATM   22  H   UNL     1      22.462  47.475  49.923  1.00  0.00     0.190 HD
BRANCH  20  23
HETATM   23  C   UNL     1      22.691  49.465  48.229  1.00  0.00     0.109 C 
BRANCH  23  24
HETATM   24  C   UNL     1      22.352  50.910  48.583  1.00  0.00     0.048 C 
BRANCH  24  25
HETATM   25  C   UNL     1      20.909  51.063  48.996  1.00  0.00    -0.058 A 
HETATM   26  C   UNL     1      20.101  52.053  48.414  1.00  0.00     0.010 A 
HETATM   27  C   UNL     1      18.770  52.197  48.807  1.00  0.00     0.043 A 
HETATM   28  C   UNL     1      18.247  51.357  49.783  1.00  0.00     0.116 A 
HETATM   29  F   UNL     1      16.970  51.498  50.159  1.00  0.00    -0.206 F 
HETATM   30  C   UNL     1      19.031  50.372  50.373  1.00  0.00     0.043 A 
HETATM   31  C   UNL     1      20.362  50.224  49.980  1.00  0.00     0.010 A 
ENDBRANCH  24  25
ENDBRANCH  23  24
ENDBRANCH  20  23
ENDBRANCH   2  19
TORSDOF 7
ENDMDL
MODEL 3
REMARK VINA RESULT:      -9.2      1.362      1.646
REMARK  7 active torsions:
REMARK  status: ('A' for Active; 'I' for Inactive)
REMARK    1  A    between atoms: O_2  and  C_3 
REMARK    2  A    between atoms: C_6  and  C_7 
REMARK    3  A    between atoms: C_11  and  C_12 
REMARK       I    between atoms: C_12  and  N_13 
REMARK    4  A    between atoms: N_13  and  N_14 
REMARK       I    between atoms: N_14  and  C_15 
REMARK    5  A    between atoms: C_15  and  C_16 
REMARK    6  A    between atoms: C_16  and  C_17 
REMARK    7  A    between atoms: C_17  and  C_18 
ROOT
HETATM    1  C   UNL     1      25.047  47.858  49.735  1.00  0.00     0.288 C 
HETATM    2  N   UNL     1      24.671  46.535  49.822  1.00  0.00    -0.262 N 
HETATM    3  O   UNL     1      26.129  48.252  50.169  1.00  0.00    -0.264 OA
HETATM    4  H   UNL     1      23.800  46.163  49.449  1.00  0.00     0.190 HD
ENDROOT
BRANCH   1   5
HETATM    5  C   UNL     1      24.105  48.733  49.095  1.00  0.00     0.121 A 
HETATM    6  N   UNL     1      24.468  49.542  48.057  1.00  0.00    -0.272 N 
HETATM    7  N   UNL     1      23.462  50.260  47.541  1.00  0.00    -0.174 NA
HETATM    8  H   UNL     1      25.394  49.632  47.649  1.00  0.00     0.189 HD
HETATM    9  C   UNL     1      22.392  49.929  48.281  1.00  0.00     0.089 A 
HETATM   10  C   UNL     1      22.758  48.979  49.276  1.00  0.00     0.071 A 
BRANCH   9  11
HETATM   11  C   UNL     1      21.064  50.486  48.010  1.00  0.00    -0.005 A 
HETATM   12  C   UNL     1      20.200  49.850  47.108  1.00  0.00     0.016 A 
HETATM   13  C   UNL     1      18.910  50.344  46.870  1.00  0.00     0.037 A 
HETATM   14  C   UNL     1      18.468  51.487  47.530  1.00  0.00     0.068 A 
HETATM   15  C   UNL     1      19.332  52.143  48.410  1.00  0.00     0.037 A 
HETATM   16  C   UNL     1      20.618  51.648  48.653  1.00  0.00     0.016 A 
BRANCH  14  17
HETATM   17  O   UNL     1      17.235  52.065  47.400  1.00  0.00    -0.356 OA
HETATM   18  C   UNL     1      16.479  52.227  48.594  1.00  0.00     0.210 C 
ENDBRANCH  14  17
ENDBRANCH   9  11
ENDBRANCH   1   5
BRANCH   2  19
HETATM   19  N   UNL     1      25.566  45.612  50.369  1.00  0.00    -0.267 N 
HETATM   20  C   UNL     1      25.065  44.635  51.200  1.00  0.00     0.236 C 
HETATM   21  O   UNL     1      23.886  44.598  51.550  1.00  0.00    -0.272 OA
HETATM   22  H   UNL     1      26.498  45.583  49.960  1.00  0.00     0.190 HD
BRANCH  20  23
HETATM   23  C   UNL     1      26.086  43.619  51.651  1.00  0.00     0.109 C 
BRANCH  23  24
HETATM   24  C   UNL     1      27.504  44.126  51.408  1.00  0.00     0.048 C 
BRANCH  24  25
HETATM   25  C   UNL     1      28.405  43.862  52.589  1.00  0.00    -0.058 A 
HETATM   26  C   UNL     1      29.502  42.995  52.469  1.00  0.00     0.010 A 
HETATM   27  C   UNL     1      30.327  42.745  53.567  1.00  0.00     0.043 A 
HETATM   28  C   UNL     1      30.054  43.358  54.784  1.00  0.00     0.116 A 
HETATM   29  F   UNL     1      30.846  43.117  55.836  1.00  0.00    -0.206 F 
HETATM   30  C   UNL     1      28.971  44.218  54.924  1.00  0.00     0.043 A 
HETATM   31  C   UNL     1      28.146  44.471  53.827  1.00  0.00     0.010 A 
ENDBRANCH  24  25
ENDBRANCH  23  24
ENDBRANCH  20  23
ENDBRANCH   2  19
TORSDOF 7
ENDMDL
MODEL 4
REMARK VINA RESULT:      -9.0      2.061      2.772
REMARK  7 active torsions:
REMARK  status: ('A' for Active; 'I' for Inactive)
REMARK    1  A    between atoms: O_2  and  C_3 
REMARK    2  A    between atoms: C_6  and  C_7 
REMARK    3  A    between atoms: C_11  and  C_12 
REMARK       I    between atoms: C_12  and  N_13 
REMARK    4  A    between atoms: N_13  and  N_14 
REMARK       I    between atoms: N_14  and  C_15 
REMARK    5  A    between atoms: C_15  and  C_16 
REMARK    6  A    between atoms: C_16  and  C_17 
REMARK    7  A    between atoms: C_17  and  C_18 
ROOT
HETATM    1  C   UNL     1      25.331  45.163  50.195  1.00  0.00     0.288 C 
HETATM    2  N   UNL     1      25.246  44.952  51.554  1.00  0.00    -0.262 N 
HETATM    3  O   UNL     1      26.214  44.643  49.514  1.00  0.00    -0.264 OA
HETATM    4  H   UNL     1      24.515  45.337  52.148  1.00  0.00     0.190 HD
ENDROOT
BRANCH   1   5
HETATM    5  C   UNL     1      24.318  46.012  49.633  1.00  0.00     0.121 A 
HETATM    6  N   UNL     1      23.437  45.554  48.696  1.00  0.00    -0.272 N 
HETATM    7  N   UNL     1      22.526  46.457  48.308  1.00  0.00    -0.174 NA
HETATM    8  H   UNL     1      23.404  44.621  48.294  1.00  0.00     0.189 HD
HETATM    9  C   UNL     1      22.828  47.565  49.003  1.00  0.00     0.089 A 
HETATM   10  C   UNL     1      23.957  47.329  49.838  1.00  0.00     0.071 A 
BRANCH   9  11
HETATM   11  C   UNL     1      22.034  48.791  48.883  1.00  0.00    -0.005 A 
HETATM   12  C   UNL     1      22.658  50.045  48.911  1.00  0.00     0.016 A 
HETATM   13  C   UNL     1      21.920  51.225  48.753  1.00  0.00     0.037 A 
HETATM   14  C   UNL     1      20.541  51.167  48.569  1.00  0.00     0.068 A 
HETATM   15  C   UNL     1      19.906  49.922  48.566  1.00  0.00     0.037 A 
HETATM   16  C   UNL     1      20.644  48.743  48.718  1.00  0.00     0.016 A 
BRANCH  14  17
HETATM   17  O   UNL     1      19.707  52.236  48.391  1.00  0.00    -0.356 OA
HETATM   18  C   UNL     1      18.597  52.331  49.275  1.00  0.00     0.210 C 
ENDBRANCH  14  17
ENDBRANCH   9  11
ENDBRANCH   1   5
BRANCH   2  19
HETATM   19  N   UNL     1      26.155  44.081  52.161  1.00  0.00    -0.267 N 
HETATM   20  C   UNL     1      26.826  44.519  53.281  1.00  0.00     0.236 C 
HETATM   21  O   UNL     1      26.727  45.667  53.711  1.00  0.00    -0.272 OA
HETATM   22  H   UNL     1      26.116  43.106  51.870  1.00  0.00     0.190 HD
BRANCH  20  23
HETATM   23  C   UNL     1      27.699  43.474  53.930  1.00  0.00     0.109 C 
BRANCH  23  24
HETATM   24  C   UNL     1      29.176  43.820  53.769  1.00  0.00     0.048 C 
BRANCH  24  25
HETATM   25  C   UNL     1      29.836  44.100  55.097  1.00  0.00    -0.058 A 
HETATM   26  C   UNL     1      30.769  43.199  55.633  1.00  0.00     0.010 A 
HETATM   27  C   UNL     1      31.370  43.458  56.866  1.00  0.00     0.043 A 
HETATM   28  C   UNL     1      31.036  44.613  57.564  1.00  0.00     0.116 A 
HETATM   29  F   UNL     1      31.612  44.858  58.747  1.00  0.00    -0.206 F 
HETATM   30  C   UNL     1      30.112  45.516  57.051  1.00  0.00     0.043 A 
HETATM   31  C   UNL     1      29.513  45.261  55.816  1.00  0.00     0.010 A 
ENDBRANCH  24  25
ENDBRANCH  23  24
ENDBRANCH  20  23
ENDBRANCH   2  19
TORSDOF 7
ENDMDL
MODEL 5
REMARK VINA RESULT:      -8.9      4.106     11.499
REMARK  7 active torsions:
REMARK  status: ('A' for Active; 'I' for Inactive)
REMARK    1  A    between atoms: O_2  and  C_3 
REMARK    2  A    between atoms: C_6  and  C_7 
REMARK    3  A    between atoms: C_11  and  C_12 
REMARK       I    between atoms: C_12  and  N_13 
REMARK    4  A    between atoms: N_13  and  N_14 
REMARK       I    between atoms: N_14  and  C_15 
REMARK    5  A    between atoms: C_15  and  C_16 
REMARK    6  A    between atoms: C_16  and  C_17 
REMARK    7  A    between atoms: C_17  and  C_18 
ROOT
HETATM    1  C   UNL     1      24.611  46.409  50.880  1.00  0.00     0.288 C 
HETATM    2  N   UNL     1      23.829  45.590  50.095  1.00  0.00    -0.262 N 
HETATM    3  O   UNL     1      24.529  47.635  50.816  1.00  0.00    -0.264 OA
HETATM    4  H   UNL     1      23.843  44.573  50.138  1.00  0.00     0.190 HD
ENDROOT
BRANCH   1   5
HETATM    5  C   UNL     1      25.509  45.739  51.778  1.00  0.00     0.121 A 
HETATM    6  N   UNL     1      25.561  44.377  51.856  1.00  0.00    -0.272 N 
HETATM    7  N   UNL     1      26.484  43.909  52.707  1.00  0.00    -0.174 NA
HETATM    8  H   UNL     1      24.995  43.714  51.334  1.00  0.00     0.189 HD
HETATM    9  C   UNL     1      27.053  45.006  53.230  1.00  0.00     0.089 A 
HETATM   10  C   UNL     1      26.459  46.177  52.680  1.00  0.00     0.071 A 
BRANCH   9  11
HETATM   11  C   UNL     1      28.150  44.920  54.198  1.00  0.00    -0.005 A 
HETATM   12  C   UNL     1      28.339  45.935  55.145  1.00  0.00     0.016 A 
HETATM   13  C   UNL     1      29.354  45.848  56.107  1.00  0.00     0.037 A 
HETATM   14  C   UNL     1      30.199  44.741  56.132  1.00  0.00     0.068 A 
HETATM   15  C   UNL     1      30.035  43.737  55.174  1.00  0.00     0.037 A 
HETATM   16  C   UNL     1      29.017  43.821  54.217  1.00  0.00     0.016 A 
BRANCH  14  17
HETATM   17  O   UNL     1      31.217  44.525  57.019  1.00  0.00    -0.356 OA
HETATM   18  C   UNL     1      31.759  43.211  57.059  1.00  0.00     0.210 C 
ENDBRANCH  14  17
ENDBRANCH   9  11
ENDBRANCH   1   5
BRANCH   2  19
HETATM   19  N   UNL     1      22.882  46.170  49.246  1.00  0.00    -0.267 N 
HETATM   20  C   UNL     1      21.774  45.427  48.905  1.00  0.00     0.236 C 
HETATM   21  O   UNL     1      21.630  44.252  49.239  1.00  0.00    -0.272 OA
HETATM   22  H   UNL     1      22.957  47.175  49.098  1.00  0.00     0.190 HD
BRANCH  20  23
HETATM   23  C   UNL     1      20.756  46.174  48.079  1.00  0.00     0.109 C 
BRANCH  23  24
HETATM   24  C   UNL     1      21.432  47.206  47.182  1.00  0.00     0.048 C 
BRANCH  24  25
HETATM   25  C   UNL     1      21.030  48.615  47.544  1.00  0.00    -0.058 A 
HETATM   26  C   UNL     1      21.999  49.558  47.920  1.00  0.00     0.010 A 
HETATM   27  C   UNL     1      21.621  50.857  48.264  1.00  0.00     0.043 A 
HETATM   28  C   UNL     1      20.278  51.212  48.236  1.00  0.00     0.116 A 
HETATM   29  F   UNL     1      19.918  52.458  48.568  1.00  0.00    -0.206 F 
HETATM   30  C   UNL     1      19.303  50.291  47.870  1.00  0.00     0.043 A 
HETATM   31  C   UNL     1      19.678  48.993  47.522  1.00  0.00     0.010 A 
ENDBRANCH  24  25
ENDBRANCH  23  24
ENDBRANCH  20  23
ENDBRANCH   2  19
TORSDOF 7
ENDMDL
MODEL 6
REMARK VINA RESULT:      -8.7      4.453     11.990
REMARK  7 active torsions:
REMARK  status: ('A' for Active; 'I' for Inactive)
REMARK    1  A    between atoms: O_2  and  C_3 
REMARK    2  A    between atoms: C_6  and  C_7 
REMARK    3  A    between atoms: C_11  and  C_12 
REMARK       I    between atoms: C_12  and  N_13 
REMARK    4  A    between atoms: N_13  and  N_14 
REMARK       I    between atoms: N_14  and  C_15 
REMARK    5  A    between atoms: C_15  and  C_16 
REMARK    6  A    between atoms: C_16  and  C_17 
REMARK    7  A    between atoms: C_17  and  C_18 
ROOT
HETATM    1  C   UNL     1      24.262  47.980  49.621  1.00  0.00     0.288 C 
HETATM    2  N   UNL     1      22.892  47.947  49.471  1.00  0.00    -0.262 N 
HETATM    3  O   UNL     1      24.960  48.782  49.003  1.00  0.00    -0.264 OA
HETATM    4  H   UNL     1      22.275  47.322  49.985  1.00  0.00     0.190 HD
ENDROOT
BRANCH   1   5
HETATM    5  C   UNL     1      24.809  47.032  50.551  1.00  0.00     0.121 A 
HETATM    6  N   UNL     1      24.147  45.884  50.878  1.00  0.00    -0.272 N 
HETATM    7  N   UNL     1      24.814  45.084  51.721  1.00  0.00    -0.174 NA
HETATM    8  H   UNL     1      23.235  45.588  50.539  1.00  0.00     0.189 HD
HETATM    9  C   UNL     1      25.957  45.739  51.978  1.00  0.00     0.089 A 
HETATM   10  C   UNL     1      25.987  46.973  51.270  1.00  0.00     0.071 A 
BRANCH   9  11
HETATM   11  C   UNL     1      26.990  45.172  52.850  1.00  0.00    -0.005 A 
HETATM   12  C   UNL     1      27.235  45.729  54.113  1.00  0.00     0.016 A 
HETATM   13  C   UNL     1      28.187  45.174  54.977  1.00  0.00     0.037 A 
HETATM   14  C   UNL     1      28.914  44.052  54.586  1.00  0.00     0.068 A 
HETATM   15  C   UNL     1      28.696  43.506  53.319  1.00  0.00     0.037 A 
HETATM   16  C   UNL     1      27.741  44.057  52.457  1.00  0.00     0.016 A 
BRANCH  14  17
HETATM   17  O   UNL     1      29.860  43.406  55.334  1.00  0.00    -0.356 OA
HETATM   18  C   UNL     1      30.781  44.226  56.042  1.00  0.00     0.210 C 
ENDBRANCH  14  17
ENDBRANCH   9  11
ENDBRANCH   1   5
BRANCH   2  19
HETATM   19  N   UNL     1      22.281  48.886  48.637  1.00  0.00    -0.267 N 
HETATM   20  C   UNL     1      20.932  49.113  48.792  1.00  0.00     0.236 C 
HETATM   21  O   UNL     1      20.231  48.463  49.566  1.00  0.00    -0.272 OA
HETATM   22  H   UNL     1      22.900  49.498  48.108  1.00  0.00     0.190 HD
BRANCH  20  23
HETATM   23  C   UNL     1      20.384  50.221  47.926  1.00  0.00     0.109 C 
BRANCH  23  24
HETATM   24  C   UNL     1      20.131  51.481  48.748  1.00  0.00     0.048 C 
BRANCH  24  25
HETATM   25  C   UNL     1      18.675  51.878  48.733  1.00  0.00    -0.058 A 
HETATM   26  C   UNL     1      18.036  52.292  49.912  1.00  0.00     0.010 A 
HETATM   27  C   UNL     1      16.687  52.649  49.895  1.00  0.00     0.043 A 
HETATM   28  C   UNL     1      15.977  52.590  48.702  1.00  0.00     0.116 A 
HETATM   29  F   UNL     1      14.682  52.932  48.688  1.00  0.00    -0.206 F 
HETATM   30  C   UNL     1      16.590  52.181  47.524  1.00  0.00     0.043 A 
HETATM   31  C   UNL     1      17.940  51.826  47.538  1.00  0.00     0.010 A 
ENDBRANCH  24  25
ENDBRANCH  23  24
ENDBRANCH  20  23
ENDBRANCH   2  19
TORSDOF 7
ENDMDL
MODEL 7
REMARK VINA RESULT:      -8.5      5.436     11.571
REMARK  7 active torsions:
REMARK  status: ('A' for Active; 'I' for Inactive)
REMARK    1  A    between atoms: O_2  and  C_3 
REMARK    2  A    between atoms: C_6  and  C_7 
REMARK    3  A    between atoms: C_11  and  C_12 
REMARK       I    between atoms: C_12  and  N_13 
REMARK    4  A    between atoms: N_13  and  N_14 
REMARK       I    between atoms: N_14  and  C_15 
REMARK    5  A    between atoms: C_15  and  C_16 
REMARK    6  A    between atoms: C_16  and  C_17 
REMARK    7  A    between atoms: C_17  and  C_18 
ROOT
HETATM    1  C   UNL     1      24.697  47.013  50.430  1.00  0.00     0.288 C 
HETATM    2  N   UNL     1      23.479  47.378  49.900  1.00  0.00    -0.262 N 
HETATM    3  O   UNL     1      25.537  47.851  50.756  1.00  0.00    -0.264 OA
HETATM    4  H   UNL     1      22.745  46.720  49.646  1.00  0.00     0.190 HD
ENDROOT
BRANCH   1   5
HETATM    5  C   UNL     1      24.910  45.602  50.587  1.00  0.00     0.121 A 
HETATM    6  N   UNL     1      24.038  44.818  51.286  1.00  0.00    -0.272 N 
HETATM    7  N   UNL     1      24.355  43.516  51.298  1.00  0.00    -0.174 NA
HETATM    8  H   UNL     1      23.195  45.121  51.765  1.00  0.00     0.189 HD
HETATM    9  C   UNL     1      25.495  43.437  50.594  1.00  0.00     0.089 A 
HETATM   10  C   UNL     1      25.884  44.729  50.140  1.00  0.00     0.071 A 
BRANCH   9  11
HETATM   11  C   UNL     1      26.161  42.155  50.347  1.00  0.00    -0.005 A 
HETATM   12  C   UNL     1      27.441  41.910  50.865  1.00  0.00     0.016 A 
HETATM   13  C   UNL     1      28.074  40.675  50.677  1.00  0.00     0.037 A 
HETATM   14  C   UNL     1      27.435  39.665  49.961  1.00  0.00     0.068 A 
HETATM   15  C   UNL     1      26.172  39.909  49.418  1.00  0.00     0.037 A 
HETATM   16  C   UNL     1      25.536  41.141  49.611  1.00  0.00     0.016 A 
BRANCH  14  17
HETATM   17  O   UNL     1      27.933  38.415  49.716  1.00  0.00    -0.356 OA
HETATM   18  C   UNL     1      26.980  37.376  49.532  1.00  0.00     0.210 C 
ENDBRANCH  14  17
ENDBRANCH   9  11
ENDBRANCH   1   5
BRANCH   2  19
HETATM   19  N   UNL     1      23.172  48.737  49.782  1.00  0.00    -0.267 N 
HETATM   20  C   UNL     1      22.764  49.207  48.555  1.00  0.00     0.236 C 
HETATM   21  O   UNL     1      22.746  48.505  47.545  1.00  0.00    -0.272 OA
HETATM   22  H   UNL     1      23.065  49.257  50.652  1.00  0.00     0.190 HD
BRANCH  20  23
HETATM   23  C   UNL     1      22.347  50.657  48.552  1.00  0.00     0.109 C 
BRANCH  23  24
HETATM   24  C   UNL     1      21.520  50.990  49.790  1.00  0.00     0.048 C 
BRANCH  24  25
HETATM   25  C   UNL     1      20.088  51.310  49.438  1.00  0.00    -0.058 A 
HETATM   26  C   UNL     1      19.791  52.174  48.373  1.00  0.00     0.010 A 
HETATM   27  C   UNL     1      18.465  52.475  48.058  1.00  0.00     0.043 A 
HETATM   28  C   UNL     1      17.437  51.915  48.809  1.00  0.00     0.116 A 
HETATM   29  F   UNL     1      16.165  52.205  48.505  1.00  0.00    -0.206 F 
HETATM   30  C   UNL     1      17.710  51.058  49.868  1.00  0.00     0.043 A 
HETATM   31  C   UNL     1      19.036  50.754  50.184  1.00  0.00     0.010 A 
ENDBRANCH  24  25
ENDBRANCH  23  24
ENDBRANCH  20  23
ENDBRANCH   2  19
TORSDOF 7
ENDMDL
MODEL 8
REMARK VINA RESULT:      -8.5      1.987      2.525
REMARK  7 active torsions:
REMARK  status: ('A' for Active; 'I' for Inactive)
REMARK    1  A    between atoms: O_2  and  C_3 
REMARK    2  A    between atoms: C_6  and  C_7 
REMARK    3  A    between atoms: C_11  and  C_12 
REMARK       I    between atoms: C_12  and  N_13 
REMARK    4  A    between atoms: N_13  and  N_14 
REMARK       I    between atoms: N_14  and  C_15 
REMARK    5  A    between atoms: C_15  and  C_16 
REMARK    6  A    between atoms: C_16  and  C_17 
REMARK    7  A    between atoms: C_17  and  C_18 
ROOT
HETATM    1  C   UNL     1      22.759  47.563  49.131  1.00  0.00     0.288 C 
HETATM    2  N   UNL     1      23.926  47.652  49.857  1.00  0.00    -0.262 N 
HETATM    3  O   UNL     1      22.527  46.606  48.395  1.00  0.00    -0.264 OA
HETATM    4  H   UNL     1      24.144  48.410  50.501  1.00  0.00     0.190 HD
ENDROOT
BRANCH   1   5
HETATM    5  C   UNL     1      21.835  48.649  49.304  1.00  0.00     0.121 A 
HETATM    6  N   UNL     1      22.233  49.859  49.794  1.00  0.00    -0.272 N 
HETATM    7  N   UNL     1      21.261  50.779  49.848  1.00  0.00    -0.174 NA
HETATM    8  H   UNL     1      23.169  50.117  50.094  1.00  0.00     0.189 HD
HETATM    9  C   UNL     1      20.168  50.146  49.393  1.00  0.00     0.089 A 
HETATM   10  C   UNL     1      20.485  48.801  49.052  1.00  0.00     0.071 A 
BRANCH   9  11
HETATM   11  C   UNL     1      18.878  50.830  49.266  1.00  0.00    -0.005 A 
HETATM   12  C   UNL     1      17.834  50.242  48.538  1.00  0.00     0.016 A 
HETATM   13  C   UNL     1      16.580  50.860  48.444  1.00  0.00     0.037 A 
HETATM   14  C   UNL     1      16.354  52.081  49.074  1.00  0.00     0.068 A 
HETATM   15  C   UNL     1      17.397  52.688  49.778  1.00  0.00     0.037 A 
HETATM   16  C   UNL     1      18.648  52.068  49.879  1.00  0.00     0.016 A 
BRANCH  14  17
HETATM   17  O   UNL     1      15.180  52.783  49.071  1.00  0.00    -0.356 OA
HETATM   18  C   UNL     1      14.477  52.852  50.306  1.00  0.00     0.210 C 
ENDBRANCH  14  17
ENDBRANCH   9  11
ENDBRANCH   1   5
BRANCH   2  19
HETATM   19  N   UNL     1      24.843  46.599  49.795  1.00  0.00    -0.267 N 
HETATM   20  C   UNL     1      25.882  46.587  50.697  1.00  0.00     0.236 C 
HETATM   21  O   UNL     1      26.087  47.505  51.490  1.00  0.00    -0.272 OA
HETATM   22  H   UNL     1      24.576  45.795  49.229  1.00  0.00     0.190 HD
BRANCH  20  23
HETATM   23  C   UNL     1      26.753  45.357  50.627  1.00  0.00     0.109 C 
BRANCH  23  24
HETATM   24  C   UNL     1      26.410  44.380  51.747  1.00  0.00     0.048 C 
BRANCH  24  25
HETATM   25  C   UNL     1      27.607  44.081  52.617  1.00  0.00    -0.058 A 
HETATM   26  C   UNL     1      28.676  43.319  52.121  1.00  0.00     0.010 A 
HETATM   27  C   UNL     1      29.776  43.036  52.932  1.00  0.00     0.043 A 
HETATM   28  C   UNL     1      29.806  43.511  54.238  1.00  0.00     0.116 A 
HETATM   29  F   UNL     1      30.861  43.238  55.015  1.00  0.00    -0.206 F 
HETATM   30  C   UNL     1      28.756  44.265  54.749  1.00  0.00     0.043 A 
HETATM   31  C   UNL     1      27.656  44.552  53.938  1.00  0.00     0.010 A 
ENDBRANCH  24  25
ENDBRANCH  23  24
ENDBRANCH  20  23
ENDBRANCH   2  19
TORSDOF 7
ENDMDL
MODEL 9
REMARK VINA RESULT:      -8.2      4.318     11.332
REMARK  7 active torsions:
REMARK  status: ('A' for Active; 'I' for Inactive)
REMARK    1  A    between atoms: O_2  and  C_3 
REMARK    2  A    between atoms: C_6  and  C_7 
REMARK    3  A    between atoms: C_11  and  C_12 
REMARK       I    between atoms: C_12  and  N_13 
REMARK    4  A    between atoms: N_13  and  N_14 
REMARK       I    between atoms: N_14  and  C_15 
REMARK    5  A    between atoms: C_15  and  C_16 
REMARK    6  A    between atoms: C_16  and  C_17 
REMARK    7  A    between atoms: C_17  and  C_18 
ROOT
HETATM    1  C   UNL     1      24.871  46.721  51.255  1.00  0.00     0.288 C 
HETATM    2  N   UNL     1      24.338  45.525  50.825  1.00  0.00    -0.262 N 
HETATM    3  O   UNL     1      24.660  47.775  50.657  1.00  0.00    -0.264 OA
HETATM    4  H   UNL     1      24.462  44.638  51.306  1.00  0.00     0.190 HD
ENDROOT
BRANCH   1   5
HETATM    5  C   UNL     1      25.669  46.654  52.447  1.00  0.00     0.121 A 
HETATM    6  N   UNL     1      25.353  47.373  53.564  1.00  0.00    -0.272 N 
HETATM    7  N   UNL     1      26.170  47.162  54.604  1.00  0.00    -0.174 NA
HETATM    8  H   UNL     1      24.575  48.017  53.674  1.00  0.00     0.189 HD
HETATM    9  C   UNL     1      27.077  46.282  54.152  1.00  0.00     0.089 A 
HETATM   10  C   UNL     1      26.803  45.946  52.796  1.00  0.00     0.071 A 
BRANCH   9  11
HETATM   11  C   UNL     1      28.144  45.764  55.013  1.00  0.00    -0.005 A 
HETATM   12  C   UNL     1      28.907  44.660  54.608  1.00  0.00     0.016 A 
HETATM   13  C   UNL     1      29.960  44.179  55.397  1.00  0.00     0.037 A 
HETATM   14  C   UNL     1      30.263  44.796  56.609  1.00  0.00     0.068 A 
HETATM   15  C   UNL     1      29.490  45.879  57.033  1.00  0.00     0.037 A 
HETATM   16  C   UNL     1      28.442  46.364  56.243  1.00  0.00     0.016 A 
BRANCH  14  17
HETATM   17  O   UNL     1      31.267  44.437  57.465  1.00  0.00    -0.356 OA
HETATM   18  C   UNL     1      31.907  43.193  57.210  1.00  0.00     0.210 C 
ENDBRANCH  14  17
ENDBRANCH   9  11
ENDBRANCH   1   5
BRANCH   2  19
HETATM   19  N   UNL     1      23.493  45.523  49.711  1.00  0.00    -0.267 N 
HETATM   20  C   UNL     1      22.547  44.529  49.616  1.00  0.00     0.236 C 
HETATM   21  O   UNL     1      22.474  43.598  50.416  1.00  0.00    -0.272 OA
HETATM   22  H   UNL     1      23.484  46.369  49.144  1.00  0.00     0.190 HD
BRANCH  20  23
HETATM   23  C   UNL     1      21.610  44.673  48.441  1.00  0.00     0.109 C 
BRANCH  23  24
HETATM   24  C   UNL     1      20.265  45.241  48.882  1.00  0.00     0.048 C 
BRANCH  24  25
HETATM   25  C   UNL     1      20.148  46.713  48.573  1.00  0.00    -0.058 A 
HETATM   26  C   UNL     1      19.088  47.469  49.098  1.00  0.00     0.010 A 
HETATM   27  C   UNL     1      18.978  48.829  48.801  1.00  0.00     0.043 A 
HETATM   28  C   UNL     1      19.924  49.431  47.979  1.00  0.00     0.116 A 
HETATM   29  F   UNL     1      19.816  50.735  47.695  1.00  0.00    -0.206 F 
HETATM   30  C   UNL     1      20.979  48.699  47.448  1.00  0.00     0.043 A 
HETATM   31  C   UNL     1      21.093  47.340  47.746  1.00  0.00     0.010 A 
ENDBRANCH  24  25
ENDBRANCH  23  24
ENDBRANCH  20  23
ENDBRANCH   2  19
TORSDOF 7
ENDMDL
MODEL 10
REMARK VINA RESULT:      -8.1     19.305     21.046
REMARK  7 active torsions:
REMARK  status: ('A' for Active; 'I' for Inactive)
REMARK    1  A    between atoms: O_2  and  C_3 
REMARK    2  A    between atoms: C_6  and  C_7 
REMARK    3  A    between atoms: C_11  and  C_12 
REMARK       I    between atoms: C_12  and  N_13 
REMARK    4  A    between atoms: N_13  and  N_14 
REMARK       I    between atoms: N_14  and  C_15 
REMARK    5  A    between atoms: C_15  and  C_16 
REMARK    6  A    between atoms: C_16  and  C_17 
REMARK    7  A    between atoms: C_17  and  C_18 
ROOT
HETATM    1  C   UNL     1      38.525  47.481  65.603  1.00  0.00     0.288 C 
HETATM    2  N   UNL     1      38.343  47.171  64.273  1.00  0.00    -0.262 N 
HETATM    3  O   UNL     1      38.692  46.608  66.453  1.00  0.00    -0.264 OA
HETATM    4  H   UNL     1      38.232  47.862  63.535  1.00  0.00     0.190 HD
ENDROOT
BRANCH   1   5
HETATM    5  C   UNL     1      38.519  48.881  65.923  1.00  0.00     0.121 A 
HETATM    6  N   UNL     1      39.439  49.741  65.394  1.00  0.00    -0.272 N 
HETATM    7  N   UNL     1      39.267  51.020  65.754  1.00  0.00    -0.174 NA
HETATM    8  H   UNL     1      40.201  49.507  64.764  1.00  0.00     0.189 HD
HETATM    9  C   UNL     1      38.203  51.004  66.571  1.00  0.00     0.089 A 
HETATM   10  C   UNL     1      37.711  49.676  66.712  1.00  0.00     0.071 A 
BRANCH   9  11
HETATM   11  C   UNL     1      37.667  52.233  67.163  1.00  0.00    -0.005 A 
HETATM   12  C   UNL     1      37.049  52.203  68.421  1.00  0.00     0.016 A 
HETATM   13  C   UNL     1      36.572  53.374  69.022  1.00  0.00     0.037 A 
HETATM   14  C   UNL     1      36.701  54.597  68.368  1.00  0.00     0.068 A 
HETATM   15  C   UNL     1      37.290  54.634  67.102  1.00  0.00     0.037 A 
HETATM   16  C   UNL     1      37.773  53.465  66.503  1.00  0.00     0.016 A 
BRANCH  14  17
HETATM   17  O   UNL     1      36.291  55.812  68.845  1.00  0.00    -0.356 OA
HETATM   18  C   UNL     1      36.893  56.960  68.261  1.00  0.00     0.210 C 
ENDBRANCH  14  17
ENDBRANCH   9  11
ENDBRANCH   1   5
BRANCH   2  19
HETATM   19  N   UNL     1      38.406  45.833  63.876  1.00  0.00    -0.267 N 
HETATM   20  C   UNL     1      37.223  45.153  63.695  1.00  0.00     0.236 C 
HETATM   21  O   UNL     1      36.125  45.643  63.955  1.00  0.00    -0.272 OA
HETATM   22  H   UNL     1      39.308  45.498  63.541  1.00  0.00     0.190 HD
BRANCH  20  23
HETATM   23  C   UNL     1      37.387  43.751  63.159  1.00  0.00     0.109 C 
BRANCH  23  24
HETATM   24  C   UNL     1      37.231  42.720  64.271  1.00  0.00     0.048 C 
BRANCH  24  25
HETATM   25  C   UNL     1      38.076  41.494  64.023  1.00  0.00    -0.058 A 
HETATM   26  C   UNL     1      38.238  40.525  65.026  1.00  0.00     0.010 A 
HETATM   27  C   UNL     1      39.028  39.398  64.795  1.00  0.00     0.043 A 
HETATM   28  C   UNL     1      39.659  39.241  63.567  1.00  0.00     0.116 A 
HETATM   29  F   UNL     1      40.417  38.160  63.348  1.00  0.00    -0.206 F 
HETATM   30  C   UNL     1      39.513  40.191  62.562  1.00  0.00     0.043 A 
HETATM   31  C   UNL     1      38.721  41.317  62.789  1.00  0.00     0.010 A 
ENDBRANCH  24  25
ENDBRANCH  23  24
ENDBRANCH  20  23
ENDBRANCH   2  19
TORSDOF 7
ENDMDL
