MODEL 1
REMARK VINA RESULT:      -9.5      0.000      0.000
REMARK  7 active torsions:
REMARK  status: ('A' for Active; 'I' for Inactive)
REMARK    1  A    between atoms: C_2  and  C_3 
REMARK    2  A    between atoms: C_3  and  N_4 
REMARK    3  A    between atoms: C_3  and  C_22 
REMARK       I    between atoms: N_4  and  C_5 
REMARK       I    between atoms: C_5  and  N_6 
REMARK    4  A    between atoms: N_6  and  C_7 
REMARK    5  A    between atoms: C_7  and  C_8 
REMARK    6  A    between atoms: C_11  and  N_12 
REMARK       I    between atoms: N_12  and  C_13 
REMARK       I    between atoms: C_13  and  N_14 
REMARK    7  A    between atoms: N_14  and  C_15 
ROOT
HETATM    1  N   UNL     1      23.803  48.355  49.878  1.00  0.00    -0.331 N 
HETATM    2  C   UNL     1      22.761  48.210  49.011  1.00  0.00     0.317 C 
HETATM    3  N   UNL     1      21.623  48.781  49.500  1.00  0.00    -0.339 N 
HETATM    4  O   UNL     1      22.840  47.645  47.929  1.00  0.00    -0.247 OA
HETATM    5  H   UNL     1      23.733  49.069  50.591  1.00  0.00     0.165 HD
HETATM    6  H   UNL     1      21.545  48.806  50.507  1.00  0.00     0.164 HD
ENDROOT
BRANCH   1   7
HETATM    7  C   UNL     1      25.155  47.941  49.546  1.00  0.00     0.159 C 
BRANCH   7   8
HETATM    8  C   UNL     1      26.076  49.143  49.205  1.00  0.00     0.008 C 
HETATM    9  C   UNL     1      25.611  49.873  47.940  1.00  0.00     0.012 C 
HETATM   10  C   UNL     1      27.560  48.777  49.081  1.00  0.00     0.012 C 
ENDBRANCH   7   8
BRANCH   7  11
HETATM   11  C   UNL     1      25.644  47.135  50.717  1.00  0.00     0.128 A 
HETATM   12  N   UNL     1      25.626  47.496  51.988  1.00  0.00    -0.231 NA
HETATM   13  C   UNL     1      26.177  46.445  52.679  1.00  0.00     0.085 A 
HETATM   14  C   UNL     1      26.522  45.411  51.817  1.00  0.00     0.062 A 
HETATM   15  C   UNL     1      26.416  46.302  54.053  1.00  0.00     0.034 A 
HETATM   16  N   UNL     1      26.159  45.869  50.577  1.00  0.00    -0.341 N 
HETATM   17  C   UNL     1      27.105  44.217  52.247  1.00  0.00     0.032 A 
HETATM   18  H   UNL     1      26.262  45.366  49.708  1.00  0.00     0.167 HD
HETATM   19  C   UNL     1      27.338  44.092  53.622  1.00  0.00     0.002 A 
HETATM   20  C   UNL     1      27.001  45.115  54.512  1.00  0.00     0.002 A 
ENDBRANCH   7  11
ENDBRANCH   1   7
BRANCH   3  21
HETATM   21  C   UNL     1      20.389  48.722  48.749  1.00  0.00     0.162 C 
BRANCH  21  22
HETATM   22  C   UNL     1      19.570  49.967  48.966  1.00  0.00    -0.040 A 
HETATM   23  C   UNL     1      18.461  49.950  49.823  1.00  0.00     0.011 A 
HETATM   24  C   UNL     1      17.660  51.085  49.984  1.00  0.00     0.030 A 
HETATM   25  C   UNL     1      17.956  52.262  49.299  1.00  0.00     0.036 A 
HETATM   26  C   UNL     1      19.095  52.301  48.484  1.00  0.00     0.030 A 
HETATM   27  C   UNL     1      19.892  51.163  48.315  1.00  0.00     0.011 A 
BRANCH  25  28
HETATM   28  N   UNL     1      17.166  53.428  49.365  1.00  0.00    -0.309 N 
HETATM   29  C   UNL     1      15.802  53.500  49.557  1.00  0.00     0.321 C 
HETATM   30  N   UNL     1      15.382  54.816  49.516  1.00  0.00    -0.339 N 
HETATM   31  O   UNL     1      15.035  52.557  49.696  1.00  0.00    -0.247 OA
HETATM   32  H   UNL     1      16.052  55.489  49.854  1.00  0.00     0.164 HD
HETATM   33  H   UNL     1      17.595  54.278  49.033  1.00  0.00     0.170 HD
BRANCH  30  34
HETATM   34  C   UNL     1      13.980  55.215  49.600  1.00  0.00     0.078 C 
HETATM   35  C   UNL     1      13.779  56.473  50.442  1.00  0.00     0.032 C 
HETATM   36  C   UNL     1      13.329  55.344  48.226  1.00  0.00     0.032 C 
ENDBRANCH  30  34
ENDBRANCH  25  28
ENDBRANCH  21  22
ENDBRANCH   3  21
TORSDOF 7
ENDMDL
MODEL 2
REMARK VINA RESULT:      -9.4      1.291      1.653
REMARK  7 active torsions:
REMARK  status: ('A' for Active; 'I' for Inactive)
REMARK    1  A    between atoms: C_2  and  C_3 
REMARK    2  A    between atoms: C_3  and  N_4 
REMARK    3  A    between atoms: C_3  and  C_22 
REMARK       I    between atoms: N_4  and  C_5 
REMARK       I    between atoms: C_5  and  N_6 
REMARK    4  A    between atoms: N_6  and  C_7 
REMARK    5  A    between atoms: C_7  and  C_8 
REMARK    6  A    between atoms: C_11  and  N_12 
REMARK       I    between atoms: N_12  and  C_13 
REMARK       I    between atoms: C_13  and  N_14 
REMARK    7  A    between atoms: N_14  and  C_15 
ROOT
HETATM    1  N   UNL     1      22.404  48.509  49.692  1.00  0.00    -0.331 N 
HETATM    2  C   UNL     1      21.231  48.364  49.014  1.00  0.00     0.317 C 
HETATM    3  N   UNL     1      20.157  48.621  49.815  1.00  0.00    -0.339 N 
HETATM    4  O   UNL     1      21.153  48.050  47.834  1.00  0.00    -0.247 OA
HETATM    5  H   UNL     1      22.394  49.042  50.552  1.00  0.00     0.165 HD
HETATM    6  H   UNL     1      20.290  48.429  50.797  1.00  0.00     0.164 HD
ENDROOT
BRANCH   1   7
HETATM    7  C   UNL     1      23.698  48.409  49.040  1.00  0.00     0.159 C 
BRANCH   7   8
HETATM    8  C   UNL     1      24.352  49.797  48.805  1.00  0.00     0.008 C 
HETATM    9  C   UNL     1      23.476  50.695  47.924  1.00  0.00     0.012 C 
HETATM   10  C   UNL     1      25.773  49.729  48.232  1.00  0.00     0.012 C 
ENDBRANCH   7   8
BRANCH   7  11
HETATM   11  C   UNL     1      24.531  47.502  49.902  1.00  0.00     0.128 A 
HETATM   12  N   UNL     1      24.820  47.671  51.181  1.00  0.00    -0.231 NA
HETATM   13  C   UNL     1      25.604  46.599  51.528  1.00  0.00     0.085 A 
HETATM   14  C   UNL     1      25.784  45.745  50.446  1.00  0.00     0.062 A 
HETATM   15  C   UNL     1      26.203  46.285  52.756  1.00  0.00     0.034 A 
HETATM   16  N   UNL     1      25.079  46.334  49.428  1.00  0.00    -0.341 N 
HETATM   17  C   UNL     1      26.541  44.573  50.513  1.00  0.00     0.032 A 
HETATM   18  H   UNL     1      24.986  45.976  48.490  1.00  0.00     0.167 HD
HETATM   19  C   UNL     1      27.133  44.277  51.746  1.00  0.00     0.002 A 
HETATM   20  C   UNL     1      26.969  45.117  52.851  1.00  0.00     0.002 A 
ENDBRANCH   7  11
ENDBRANCH   1   7
BRANCH   3  21
HETATM   21  C   UNL     1      18.811  48.503  49.301  1.00  0.00     0.162 C 
BRANCH  21  22
HETATM   22  C   UNL     1      18.122  49.842  49.290  1.00  0.00    -0.040 A 
HETATM   23  C   UNL     1      16.893  50.005  48.636  1.00  0.00     0.011 A 
HETATM   24  C   UNL     1      16.276  51.259  48.570  1.00  0.00     0.030 A 
HETATM   25  C   UNL     1      16.869  52.371  49.164  1.00  0.00     0.036 A 
HETATM   26  C   UNL     1      18.069  52.202  49.866  1.00  0.00     0.030 A 
HETATM   27  C   UNL     1      18.694  50.950  49.925  1.00  0.00     0.011 A 
BRANCH  25  28
HETATM   28  N   UNL     1      16.338  53.675  49.093  1.00  0.00    -0.309 N 
HETATM   29  C   UNL     1      15.556  54.308  50.038  1.00  0.00     0.321 C 
HETATM   30  N   UNL     1      15.190  55.564  49.590  1.00  0.00    -0.339 N 
HETATM   31  O   UNL     1      15.180  53.842  51.103  1.00  0.00    -0.247 OA
HETATM   32  H   UNL     1      15.864  56.019  48.994  1.00  0.00     0.164 HD
HETATM   33  H   UNL     1      16.349  54.113  48.186  1.00  0.00     0.170 HD
BRANCH  30  34
HETATM   34  C   UNL     1      14.289  56.447  50.326  1.00  0.00     0.078 C 
HETATM   35  C   UNL     1      15.039  57.443  51.209  1.00  0.00     0.032 C 
HETATM   36  C   UNL     1      13.285  57.145  49.413  1.00  0.00     0.032 C 
ENDBRANCH  30  34
ENDBRANCH  25  28
ENDBRANCH  21  22
ENDBRANCH   3  21
TORSDOF 7
ENDMDL
MODEL 3
REMARK VINA RESULT:      -9.1      3.810     12.483
REMARK  7 active torsions:
REMARK  status: ('A' for Active; 'I' for Inactive)
REMARK    1  A    between atoms: C_2  and  C_3 
REMARK    2  A    between atoms: C_3  and  N_4 
REMARK    3  A    between atoms: C_3  and  C_22 
REMARK       I    between atoms: N_4  and  C_5 
REMARK       I    between atoms: C_5  and  N_6 
REMARK    4  A    between atoms: N_6  and  C_7 
REMARK    5  A    between atoms: C_7  and  C_8 
REMARK    6  A    between atoms: C_11  and  N_12 
REMARK       I    between atoms: N_12  and  C_13 
REMARK       I    between atoms: C_13  and  N_14 
REMARK    7  A    between atoms: N_14  and  C_15 
ROOT
HETATM    1  N   UNL     1      23.090  46.858  49.538  1.00  0.00    -0.331 N 
HETATM    2  C   UNL     1      24.332  47.034  50.070  1.00  0.00     0.317 C 
HETATM    3  N   UNL     1      24.480  46.333  51.232  1.00  0.00    -0.339 N 
HETATM    4  O   UNL     1      25.205  47.726  49.566  1.00  0.00    -0.247 OA
HETATM    5  H   UNL     1      22.547  46.062  49.848  1.00  0.00     0.165 HD
HETATM    6  H   UNL     1      23.634  46.184  51.762  1.00  0.00     0.164 HD
ENDROOT
BRANCH   1   7
HETATM    7  C   UNL     1      22.714  47.399  48.244  1.00  0.00     0.159 C 
BRANCH   7   8
HETATM    8  C   UNL     1      22.133  46.316  47.295  1.00  0.00     0.008 C 
HETATM    9  C   UNL     1      20.605  46.241  47.388  1.00  0.00     0.012 C 
HETATM   10  C   UNL     1      22.737  44.922  47.494  1.00  0.00     0.012 C 
ENDBRANCH   7   8
BRANCH   7  11
HETATM   11  C   UNL     1      21.751  48.519  48.522  1.00  0.00     0.128 A 
HETATM   12  N   UNL     1      21.596  49.624  47.814  1.00  0.00    -0.231 NA
HETATM   13  C   UNL     1      20.615  50.340  48.454  1.00  0.00     0.085 A 
HETATM   14  C   UNL     1      20.145  49.652  49.567  1.00  0.00     0.062 A 
HETATM   15  C   UNL     1      20.070  51.593  48.142  1.00  0.00     0.034 A 
HETATM   16  N   UNL     1      20.873  48.490  49.580  1.00  0.00    -0.341 N 
HETATM   17  C   UNL     1      19.145  50.146  50.407  1.00  0.00     0.032 A 
HETATM   18  H   UNL     1      20.786  47.746  50.255  1.00  0.00     0.167 HD
HETATM   19  C   UNL     1      18.614  51.400  50.081  1.00  0.00     0.002 A 
HETATM   20  C   UNL     1      19.066  52.114  48.969  1.00  0.00     0.002 A 
ENDBRANCH   7  11
ENDBRANCH   1   7
BRANCH   3  21
HETATM   21  C   UNL     1      25.717  46.396  51.976  1.00  0.00     0.162 C 
BRANCH  21  22
HETATM   22  C   UNL     1      26.442  45.076  51.925  1.00  0.00    -0.040 A 
HETATM   23  C   UNL     1      26.655  44.336  53.096  1.00  0.00     0.011 A 
HETATM   24  C   UNL     1      27.378  43.139  53.067  1.00  0.00     0.030 A 
HETATM   25  C   UNL     1      27.894  42.654  51.866  1.00  0.00     0.036 A 
HETATM   26  C   UNL     1      27.636  43.362  50.686  1.00  0.00     0.030 A 
HETATM   27  C   UNL     1      26.920  44.565  50.714  1.00  0.00     0.011 A 
BRANCH  25  28
HETATM   28  N   UNL     1      28.679  41.488  51.764  1.00  0.00    -0.309 N 
HETATM   29  C   UNL     1      28.425  40.378  50.984  1.00  0.00     0.321 C 
HETATM   30  N   UNL     1      29.398  39.418  51.187  1.00  0.00    -0.339 N 
HETATM   31  O   UNL     1      27.463  40.210  50.248  1.00  0.00    -0.247 OA
HETATM   32  H   UNL     1      30.315  39.778  51.403  1.00  0.00     0.164 HD
HETATM   33  H   UNL     1      29.377  41.355  52.478  1.00  0.00     0.170 HD
BRANCH  30  34
HETATM   34  C   UNL     1      29.361  38.095  50.571  1.00  0.00     0.078 C 
HETATM   35  C   UNL     1      30.049  38.065  49.208  1.00  0.00     0.032 C 
HETATM   36  C   UNL     1      29.896  37.007  51.498  1.00  0.00     0.032 C 
ENDBRANCH  30  34
ENDBRANCH  25  28
ENDBRANCH  21  22
ENDBRANCH   3  21
TORSDOF 7
ENDMDL
MODEL 4
REMARK VINA RESULT:      -9.0      2.945      5.299
REMARK  7 active torsions:
REMARK  status: ('A' for Active; 'I' for Inactive)
REMARK    1  A    between atoms: C_2  and  C_3 
REMARK    2  A    between atoms: C_3  and  N_4 
REMARK    3  A    between atoms: C_3  and  C_22 
REMARK       I    between atoms: N_4  and  C_5 
REMARK       I    between atoms: C_5  and  N_6 
REMARK    4  A    between atoms: N_6  and  C_7 
REMARK    5  A    between atoms: C_7  and  C_8 
REMARK    6  A    between atoms: C_11  and  N_12 
REMARK       I    between atoms: N_12  and  C_13 
REMARK       I    between atoms: C_13  and  N_14 
REMARK    7  A    between atoms: N_14  and  C_15 
ROOT
HETATM    1  N   UNL     1      26.435  45.327  50.795  1.00  0.00    -0.331 N 
HETATM    2  C   UNL     1      26.150  46.658  50.850  1.00  0.00     0.317 C 
HETATM    3  N   UNL     1      26.521  47.296  49.702  1.00  0.00    -0.339 N 
HETATM    4  O   UNL     1      25.622  47.209  51.807  1.00  0.00    -0.247 OA
HETATM    5  H   UNL     1      26.592  44.911  49.885  1.00  0.00     0.165 HD
HETATM    6  H   UNL     1      27.301  46.886  49.209  1.00  0.00     0.164 HD
ENDROOT
BRANCH   1   7
HETATM    7  C   UNL     1      26.034  44.400  51.839  1.00  0.00     0.159 C 
BRANCH   7   8
HETATM    8  C   UNL     1      25.631  43.011  51.276  1.00  0.00     0.008 C 
HETATM    9  C   UNL     1      26.476  42.625  50.057  1.00  0.00     0.012 C 
HETATM   10  C   UNL     1      24.141  42.881  50.940  1.00  0.00     0.012 C 
ENDBRANCH   7   8
BRANCH   7  11
HETATM   11  C   UNL     1      27.184  44.336  52.804  1.00  0.00     0.128 A 
HETATM   12  N   UNL     1      28.115  43.399  52.865  1.00  0.00    -0.231 NA
HETATM   13  C   UNL     1      28.939  43.763  53.901  1.00  0.00     0.085 A 
HETATM   14  C   UNL     1      28.517  44.956  54.475  1.00  0.00     0.062 A 
HETATM   15  C   UNL     1      30.075  43.119  54.412  1.00  0.00     0.034 A 
HETATM   16  N   UNL     1      27.408  45.308  53.750  1.00  0.00    -0.341 N 
HETATM   17  C   UNL     1      29.169  45.561  55.551  1.00  0.00     0.032 A 
HETATM   18  H   UNL     1      26.846  46.134  53.893  1.00  0.00     0.167 HD
HETATM   19  C   UNL     1      30.300  44.904  56.050  1.00  0.00     0.002 A 
HETATM   20  C   UNL     1      30.748  43.703  55.493  1.00  0.00     0.002 A 
ENDBRANCH   7  11
ENDBRANCH   1   7
BRANCH   3  21
HETATM   21  C   UNL     1      26.330  48.721  49.558  1.00  0.00     0.162 C 
BRANCH  21  22
HETATM   22  C   UNL     1      24.984  49.023  48.952  1.00  0.00    -0.040 A 
HETATM   23  C   UNL     1      24.795  50.175  48.177  1.00  0.00     0.011 A 
HETATM   24  C   UNL     1      23.535  50.493  47.660  1.00  0.00     0.030 A 
HETATM   25  C   UNL     1      22.442  49.662  47.900  1.00  0.00     0.036 A 
HETATM   26  C   UNL     1      22.638  48.482  48.627  1.00  0.00     0.030 A 
HETATM   27  C   UNL     1      23.897  48.166  49.153  1.00  0.00     0.011 A 
BRANCH  25  28
HETATM   28  N   UNL     1      21.132  49.943  47.461  1.00  0.00    -0.309 N 
HETATM   29  C   UNL     1      20.266  50.887  47.975  1.00  0.00     0.321 C 
HETATM   30  N   UNL     1      19.054  50.835  47.312  1.00  0.00    -0.339 N 
HETATM   31  O   UNL     1      20.484  51.642  48.912  1.00  0.00    -0.247 OA
HETATM   32  H   UNL     1      19.108  50.563  46.343  1.00  0.00     0.164 HD
HETATM   33  H   UNL     1      20.705  49.258  46.859  1.00  0.00     0.170 HD
BRANCH  30  34
HETATM   34  C   UNL     1      17.901  51.649  47.684  1.00  0.00     0.078 C 
HETATM   35  C   UNL     1      17.049  52.041  46.478  1.00  0.00     0.032 C 
HETATM   36  C   UNL     1      17.061  51.003  48.782  1.00  0.00     0.032 C 
ENDBRANCH  30  34
ENDBRANCH  25  28
ENDBRANCH  21  22
ENDBRANCH   3  21
TORSDOF 7
ENDMDL
MODEL 5
REMARK VINA RESULT:      -8.8      2.237      3.963
REMARK  7 active torsions:
REMARK  status: ('A' for Active; 'I' for Inactive)
REMARK    1  A    between atoms: C_2  and  C_3 
REMARK    2  A    between atoms: C_3  and  N_4 
REMARK    3  A    between atoms: C_3  and  C_22 
REMARK       I    between atoms: N_4  and  C_5 
REMARK       I    between atoms: C_5  and  N_6 
REMARK    4  A    between atoms: N_6  and  C_7 
REMARK    5  A    between atoms: C_7  and  C_8 
REMARK    6  A    between atoms: C_11  and  N_12 
REMARK       I    between atoms: N_12  and  C_13 
REMARK       I    between atoms: C_13  and  N_14 
REMARK    7  A    between atoms: N_14  and  C_15 
ROOT
HETATM    1  N   UNL     1      25.053  46.312  51.480  1.00  0.00    -0.331 N 
HETATM    2  C   UNL     1      25.017  47.228  50.471  1.00  0.00     0.317 C 
HETATM    3  N   UNL     1      23.737  47.604  50.184  1.00  0.00    -0.339 N 
HETATM    4  O   UNL     1      26.008  47.663  49.901  1.00  0.00    -0.247 OA
HETATM    5  H   UNL     1      24.241  46.232  52.078  1.00  0.00     0.165 HD
HETATM    6  H   UNL     1      23.027  46.909  50.367  1.00  0.00     0.164 HD
ENDROOT
BRANCH   1   7
HETATM    7  C   UNL     1      26.298  45.837  52.056  1.00  0.00     0.159 C 
BRANCH   7   8
HETATM    8  C   UNL     1      26.337  46.001  53.600  1.00  0.00     0.008 C 
HETATM    9  C   UNL     1      25.403  45.008  54.299  1.00  0.00     0.012 C 
HETATM   10  C   UNL     1      26.043  47.425  54.084  1.00  0.00     0.012 C 
ENDBRANCH   7   8
BRANCH   7  11
HETATM   11  C   UNL     1      26.448  44.410  51.609  1.00  0.00     0.128 A 
HETATM   12  N   UNL     1      25.535  43.670  51.005  1.00  0.00    -0.231 NA
HETATM   13  C   UNL     1      26.125  42.447  50.801  1.00  0.00     0.085 A 
HETATM   14  C   UNL     1      27.433  42.442  51.274  1.00  0.00     0.062 A 
HETATM   15  C   UNL     1      25.603  41.285  50.217  1.00  0.00     0.034 A 
HETATM   16  N   UNL     1      27.619  43.707  51.770  1.00  0.00    -0.341 N 
HETATM   17  C   UNL     1      28.270  41.327  51.200  1.00  0.00     0.032 A 
HETATM   18  H   UNL     1      28.467  44.059  52.189  1.00  0.00     0.167 HD
HETATM   19  C   UNL     1      27.731  40.175  50.615  1.00  0.00     0.002 A 
HETATM   20  C   UNL     1      26.421  40.151  50.130  1.00  0.00     0.002 A 
ENDBRANCH   7  11
ENDBRANCH   1   7
BRANCH   3  21
HETATM   21  C   UNL     1      23.468  48.553  49.128  1.00  0.00     0.162 C 
BRANCH  21  22
HETATM   22  C   UNL     1      22.120  49.199  49.317  1.00  0.00    -0.040 A 
HETATM   23  C   UNL     1      22.022  50.526  49.757  1.00  0.00     0.011 A 
HETATM   24  C   UNL     1      20.775  51.114  49.992  1.00  0.00     0.030 A 
HETATM   25  C   UNL     1      19.602  50.390  49.783  1.00  0.00     0.036 A 
HETATM   26  C   UNL     1      19.694  49.082  49.291  1.00  0.00     0.030 A 
HETATM   27  C   UNL     1      20.942  48.489  49.064  1.00  0.00     0.011 A 
BRANCH  25  28
HETATM   28  N   UNL     1      18.313  50.893  50.051  1.00  0.00    -0.309 N 
HETATM   29  C   UNL     1      17.755  52.057  49.562  1.00  0.00     0.321 C 
HETATM   30  N   UNL     1      16.488  52.236  50.086  1.00  0.00    -0.339 N 
HETATM   31  O   UNL     1      18.290  52.863  48.815  1.00  0.00    -0.247 OA
HETATM   32  H   UNL     1      15.982  51.386  50.280  1.00  0.00     0.164 HD
HETATM   33  H   UNL     1      17.825  50.482  50.831  1.00  0.00     0.170 HD
BRANCH  30  34
HETATM   34  C   UNL     1      15.673  53.420  49.829  1.00  0.00     0.078 C 
HETATM   35  C   UNL     1      14.846  53.294  48.551  1.00  0.00     0.032 C 
HETATM   36  C   UNL     1      14.809  53.802  51.027  1.00  0.00     0.032 C 
ENDBRANCH  30  34
ENDBRANCH  25  28
ENDBRANCH  21  22
ENDBRANCH   3  21
TORSDOF 7
ENDMDL
MODEL 6
REMARK VINA RESULT:      -8.7      8.818     13.738
REMARK  7 active torsions:
REMARK  status: ('A' for Active; 'I' for Inactive)
REMARK    1  A    between atoms: C_2  and  C_3 
REMARK    2  A    between atoms: C_3  and  N_4 
REMARK    3  A    between atoms: C_3  and  C_22 
REMARK       I    between atoms: N_4  and  C_5 
REMARK       I    between atoms: C_5  and  N_6 
REMARK    4  A    between atoms: N_6  and  C_7 
REMARK    5  A    between atoms: C_7  and  C_8 
REMARK    6  A    between atoms: C_11  and  N_12 
REMARK       I    between atoms: N_12  and  C_13 
REMARK       I    between atoms: C_13  and  N_14 
REMARK    7  A    between atoms: N_14  and  C_15 
ROOT
HETATM    1  N   UNL     1      27.507  43.874  52.578  1.00  0.00    -0.331 N 
HETATM    2  C   UNL     1      27.374  43.834  51.223  1.00  0.00     0.317 C 
HETATM    3  N   UNL     1      27.142  42.565  50.781  1.00  0.00    -0.339 N 
HETATM    4  O   UNL     1      27.448  44.816  50.495  1.00  0.00    -0.247 OA
HETATM    5  H   UNL     1      27.148  43.094  53.114  1.00  0.00     0.165 HD
HETATM    6  H   UNL     1      27.530  41.827  51.351  1.00  0.00     0.164 HD
ENDROOT
BRANCH   1   7
HETATM    7  C   UNL     1      27.643  45.120  53.312  1.00  0.00     0.159 C 
BRANCH   7   8
HETATM    8  C   UNL     1      26.282  45.649  53.839  1.00  0.00     0.008 C 
HETATM    9  C   UNL     1      25.306  44.506  54.139  1.00  0.00     0.012 C 
HETATM   10  C   UNL     1      25.613  46.678  52.920  1.00  0.00     0.012 C 
ENDBRANCH   7   8
BRANCH   7  11
HETATM   11  C   UNL     1      28.637  44.854  54.407  1.00  0.00     0.128 A 
HETATM   12  N   UNL     1      29.483  43.841  54.478  1.00  0.00    -0.231 NA
HETATM   13  C   UNL     1      30.176  44.020  55.650  1.00  0.00     0.085 A 
HETATM   14  C   UNL     1      29.761  45.175  56.301  1.00  0.00     0.062 A 
HETATM   15  C   UNL     1      31.181  43.231  56.227  1.00  0.00     0.034 A 
HETATM   16  N   UNL     1      28.792  45.696  55.483  1.00  0.00    -0.341 N 
HETATM   17  C   UNL     1      30.294  45.603  57.519  1.00  0.00     0.032 A 
HETATM   18  H   UNL     1      28.274  46.546  55.646  1.00  0.00     0.167 HD
HETATM   19  C   UNL     1      31.295  44.802  58.081  1.00  0.00     0.002 A 
HETATM   20  C   UNL     1      31.733  43.635  57.450  1.00  0.00     0.002 A 
ENDBRANCH   7  11
ENDBRANCH   1   7
BRANCH   3  21
HETATM   21  C   UNL     1      26.992  42.293  49.370  1.00  0.00     0.162 C 
BRANCH  21  22
HETATM   22  C   UNL     1      27.227  40.834  49.077  1.00  0.00    -0.040 A 
HETATM   23  C   UNL     1      28.030  40.445  47.995  1.00  0.00     0.011 A 
HETATM   24  C   UNL     1      28.205  39.093  47.681  1.00  0.00     0.030 A 
HETATM   25  C   UNL     1      27.590  38.104  48.446  1.00  0.00     0.036 A 
HETATM   26  C   UNL     1      26.832  38.486  49.560  1.00  0.00     0.030 A 
HETATM   27  C   UNL     1      26.648  39.839  49.871  1.00  0.00     0.011 A 
BRANCH  25  28
HETATM   28  N   UNL     1      27.672  36.727  48.160  1.00  0.00    -0.309 N 
HETATM   29  C   UNL     1      26.715  35.944  47.545  1.00  0.00     0.321 C 
HETATM   30  N   UNL     1      27.140  34.631  47.481  1.00  0.00    -0.339 N 
HETATM   31  O   UNL     1      25.619  36.313  47.148  1.00  0.00    -0.247 OA
HETATM   32  H   UNL     1      28.137  34.508  47.390  1.00  0.00     0.164 HD
HETATM   33  H   UNL     1      28.402  36.215  48.630  1.00  0.00     0.170 HD
BRANCH  30  34
HETATM   34  C   UNL     1      26.313  33.544  46.966  1.00  0.00     0.078 C 
HETATM   35  C   UNL     1      26.364  33.442  45.443  1.00  0.00     0.032 C 
HETATM   36  C   UNL     1      26.628  32.207  47.632  1.00  0.00     0.032 C 
ENDBRANCH  30  34
ENDBRANCH  25  28
ENDBRANCH  21  22
ENDBRANCH   3  21
TORSDOF 7
ENDMDL
MODEL 7
REMARK VINA RESULT:      -8.6      1.704      2.314
REMARK  7 active torsions:
REMARK  status: ('A' for Active; 'I' for Inactive)
REMARK    1  A    between atoms: C_2  and  C_3 
REMARK    2  A    between atoms: C_3  and  N_4 
REMARK    3  A    between atoms: C_3  and  C_22 
REMARK       I    between atoms: N_4  and  C_5 
REMARK       I    between atoms: C_5  and  N_6 
REMARK    4  A    between atoms: N_6  and  C_7 
REMARK    5  A    between atoms: C_7  and  C_8 
REMARK    6  A    between atoms: C_11  and  N_12 
REMARK       I    between atoms: N_12  and  C_13 
REMARK       I    between atoms: C_13  and  N_14 
REMARK    7  A    between atoms: N_14  and  C_15 
ROOT
HETATM    1  N   UNL     1      23.970  47.226  50.337  1.00  0.00    -0.331 N 
HETATM    2  C   UNL     1      23.357  47.427  49.137  1.00  0.00     0.317 C 
HETATM    3  N   UNL     1      22.970  48.726  48.986  1.00  0.00    -0.339 N 
HETATM    4  O   UNL     1      23.181  46.553  48.298  1.00  0.00    -0.247 OA
HETATM    5  H   UNL     1      24.330  48.034  50.828  1.00  0.00     0.165 HD
HETATM    6  H   UNL     1      22.755  49.219  49.841  1.00  0.00     0.164 HD
ENDROOT
BRANCH   1   7
HETATM    7  C   UNL     1      24.582  45.959  50.696  1.00  0.00     0.159 C 
BRANCH   7   8
HETATM    8  C   UNL     1      25.456  45.377  49.552  1.00  0.00     0.008 C 
HETATM    9  C   UNL     1      25.285  43.859  49.423  1.00  0.00     0.012 C 
HETATM   10  C   UNL     1      26.944  45.727  49.663  1.00  0.00     0.012 C 
ENDBRANCH   7   8
BRANCH   7  11
HETATM   11  C   UNL     1      25.355  46.211  51.960  1.00  0.00     0.128 A 
HETATM   12  N   UNL     1      25.486  47.366  52.589  1.00  0.00    -0.231 NA
HETATM   13  C   UNL     1      26.278  47.105  53.680  1.00  0.00     0.085 A 
HETATM   14  C   UNL     1      26.624  45.760  53.732  1.00  0.00     0.062 A 
HETATM   15  C   UNL     1      26.747  47.972  54.677  1.00  0.00     0.034 A 
HETATM   16  N   UNL     1      26.012  45.210  52.635  1.00  0.00    -0.341 N 
HETATM   17  C   UNL     1      27.426  45.212  54.735  1.00  0.00     0.032 A 
HETATM   18  H   UNL     1      26.046  44.239  52.364  1.00  0.00     0.167 HD
HETATM   19  C   UNL     1      27.886  46.093  55.721  1.00  0.00     0.002 A 
HETATM   20  C   UNL     1      27.555  47.451  55.696  1.00  0.00     0.002 A 
ENDBRANCH   7  11
ENDBRANCH   1   7
BRANCH   3  21
HETATM   21  C   UNL     1      22.277  49.154  47.792  1.00  0.00     0.162 C 
BRANCH  21  22
HETATM   22  C   UNL     1      21.137  50.077  48.134  1.00  0.00    -0.040 A 
HETATM   23  C   UNL     1      20.140  50.358  47.190  1.00  0.00     0.011 A 
HETATM   24  C   UNL     1      19.111  51.260  47.480  1.00  0.00     0.030 A 
HETATM   25  C   UNL     1      19.054  51.892  48.720  1.00  0.00     0.036 A 
HETATM   26  C   UNL     1      20.017  51.573  49.686  1.00  0.00     0.030 A 
HETATM   27  C   UNL     1      21.053  50.678  49.395  1.00  0.00     0.011 A 
BRANCH  25  28
HETATM   28  N   UNL     1      18.083  52.854  49.066  1.00  0.00    -0.309 N 
HETATM   29  C   UNL     1      16.730  52.646  49.241  1.00  0.00     0.321 C 
HETATM   30  N   UNL     1      16.096  53.840  49.530  1.00  0.00    -0.339 N 
HETATM   31  O   UNL     1      16.134  51.585  49.116  1.00  0.00    -0.247 OA
HETATM   32  H   UNL     1      16.652  54.505  50.044  1.00  0.00     0.164 HD
HETATM   33  H   UNL     1      18.357  53.819  48.974  1.00  0.00     0.170 HD
BRANCH  30  34
HETATM   34  C   UNL     1      14.649  53.964  49.682  1.00  0.00     0.078 C 
HETATM   35  C   UNL     1      14.190  53.726  51.119  1.00  0.00     0.032 C 
HETATM   36  C   UNL     1      14.118  55.284  49.131  1.00  0.00     0.032 C 
ENDBRANCH  30  34
ENDBRANCH  25  28
ENDBRANCH  21  22
ENDBRANCH   3  21
TORSDOF 7
ENDMDL
MODEL 8
REMARK VINA RESULT:      -8.6      4.200     10.148
REMARK  7 active torsions:
REMARK  status: ('A' for Active; 'I' for Inactive)
REMARK    1  A    between atoms: C_2  and  C_3 
REMARK    2  A    between atoms: C_3  and  N_4 
REMARK    3  A    between atoms: C_3  and  C_22 
REMARK       I    between atoms: N_4  and  C_5 
REMARK       I    between atoms: C_5  and  N_6 
REMARK    4  A    between atoms: N_6  and  C_7 
REMARK    5  A    between atoms: C_7  and  C_8 
REMARK    6  A    between atoms: C_11  and  N_12 
REMARK       I    between atoms: N_12  and  C_13 
REMARK       I    between atoms: C_13  and  N_14 
REMARK    7  A    between atoms: N_14  and  C_15 
ROOT
HETATM    1  N   UNL     1      21.016  48.575  48.255  1.00  0.00    -0.331 N 
HETATM    2  C   UNL     1      21.221  47.391  47.611  1.00  0.00     0.317 C 
HETATM    3  N   UNL     1      20.389  46.417  48.081  1.00  0.00    -0.339 N 
HETATM    4  O   UNL     1      22.042  47.226  46.718  1.00  0.00    -0.247 OA
HETATM    5  H   UNL     1      20.145  48.700  48.754  1.00  0.00     0.165 HD
HETATM    6  H   UNL     1      20.105  46.515  49.045  1.00  0.00     0.164 HD
ENDROOT
BRANCH   1   7
HETATM    7  C   UNL     1      21.689  49.801  47.863  1.00  0.00     0.159 C 
BRANCH   7   8
HETATM    8  C   UNL     1      21.065  51.057  48.528  1.00  0.00     0.008 C 
HETATM    9  C   UNL     1      20.951  50.898  50.048  1.00  0.00     0.012 C 
HETATM   10  C   UNL     1      19.708  51.465  47.942  1.00  0.00     0.012 C 
ENDBRANCH   7   8
BRANCH   7  11
HETATM   11  C   UNL     1      23.140  49.610  48.207  1.00  0.00     0.128 A 
HETATM   12  N   UNL     1      24.157  50.334  47.774  1.00  0.00    -0.231 NA
HETATM   13  C   UNL     1      25.275  49.782  48.349  1.00  0.00     0.085 A 
HETATM   14  C   UNL     1      24.935  48.709  49.165  1.00  0.00     0.062 A 
HETATM   15  C   UNL     1      26.623  50.146  48.220  1.00  0.00     0.034 A 
HETATM   16  N   UNL     1      23.570  48.629  49.069  1.00  0.00    -0.341 N 
HETATM   17  C   UNL     1      25.875  47.959  49.875  1.00  0.00     0.032 A 
HETATM   18  H   UNL     1      22.982  47.960  49.543  1.00  0.00     0.167 HD
HETATM   19  C   UNL     1      27.216  48.334  49.732  1.00  0.00     0.002 A 
HETATM   20  C   UNL     1      27.587  49.409  48.919  1.00  0.00     0.002 A 
ENDBRANCH   7  11
ENDBRANCH   1   7
BRANCH   3  21
HETATM   21  C   UNL     1      20.455  45.075  47.550  1.00  0.00     0.162 C 
BRANCH  21  22
HETATM   22  C   UNL     1      21.555  44.289  48.215  1.00  0.00    -0.040 A 
HETATM   23  C   UNL     1      22.248  43.296  47.509  1.00  0.00     0.011 A 
HETATM   24  C   UNL     1      23.229  42.521  48.136  1.00  0.00     0.030 A 
HETATM   25  C   UNL     1      23.543  42.729  49.478  1.00  0.00     0.036 A 
HETATM   26  C   UNL     1      22.892  43.757  50.172  1.00  0.00     0.030 A 
HETATM   27  C   UNL     1      21.903  44.527  49.549  1.00  0.00     0.011 A 
BRANCH  25  28
HETATM   28  N   UNL     1      24.478  41.954  50.194  1.00  0.00    -0.309 N 
HETATM   29  C   UNL     1      25.838  42.169  50.292  1.00  0.00     0.321 C 
HETATM   30  N   UNL     1      26.427  41.170  51.043  1.00  0.00    -0.339 N 
HETATM   31  O   UNL     1      26.472  43.070  49.763  1.00  0.00    -0.247 OA
HETATM   32  H   UNL     1      25.846  40.784  51.772  1.00  0.00     0.164 HD
HETATM   33  H   UNL     1      24.168  41.042  50.491  1.00  0.00     0.170 HD
BRANCH  30  34
HETATM   34  C   UNL     1      27.867  41.067  51.255  1.00  0.00     0.078 C 
HETATM   35  C   UNL     1      28.247  41.121  52.733  1.00  0.00     0.032 C 
HETATM   36  C   UNL     1      28.472  39.851  50.560  1.00  0.00     0.032 C 
ENDBRANCH  30  34
ENDBRANCH  25  28
ENDBRANCH  21  22
ENDBRANCH   3  21
TORSDOF 7
ENDMDL
MODEL 9
REMARK VINA RESULT:      -8.5      5.241      8.168
REMARK  7 active torsions:
REMARK  status: ('A' for Active; 'I' for Inactive)
REMARK    1  A    between atoms: C_2  and  C_3 
REMARK    2  A    between atoms: C_3  and  N_4 
REMARK    3  A    between atoms: C_3  and  C_22 
REMARK       I    between atoms: N_4  and  C_5 
REMARK       I    between atoms: C_5  and  N_6 
REMARK    4  A    between atoms: N_6  and  C_7 
REMARK    5  A    between atoms: C_7  and  C_8 
REMARK    6  A    between atoms: C_11  and  N_12 
REMARK       I    between atoms: N_12  and  C_13 
REMARK       I    between atoms: C_13  and  N_14 
REMARK    7  A    between atoms: N_14  and  C_15 
ROOT
HETATM    1  N   UNL     1      27.159  43.693  53.001  1.00  0.00    -0.331 N 
HETATM    2  C   UNL     1      26.934  43.269  51.726  1.00  0.00     0.317 C 
HETATM    3  N   UNL     1      26.305  42.058  51.707  1.00  0.00    -0.339 N 
HETATM    4  O   UNL     1      27.251  43.898  50.725  1.00  0.00    -0.247 OA
HETATM    5  H   UNL     1      26.618  43.271  53.745  1.00  0.00     0.165 HD
HETATM    6  H   UNL     1      26.491  41.458  52.497  1.00  0.00     0.164 HD
ENDROOT
BRANCH   1   7
HETATM    7  C   UNL     1      27.707  45.005  53.300  1.00  0.00     0.159 C 
BRANCH   7   8
HETATM    8  C   UNL     1      26.604  46.048  53.626  1.00  0.00     0.008 C 
HETATM    9  C   UNL     1      25.362  45.389  54.236  1.00  0.00     0.012 C 
HETATM   10  C   UNL     1      26.200  46.922  52.434  1.00  0.00     0.012 C 
ENDBRANCH   7   8
BRANCH   7  11
HETATM   11  C   UNL     1      28.681  44.803  54.427  1.00  0.00     0.128 A 
HETATM   12  N   UNL     1      29.550  43.815  54.554  1.00  0.00    -0.231 NA
HETATM   13  C   UNL     1      30.210  44.053  55.735  1.00  0.00     0.085 A 
HETATM   14  C   UNL     1      29.750  45.219  56.334  1.00  0.00     0.062 A 
HETATM   15  C   UNL     1      31.220  43.311  56.363  1.00  0.00     0.034 A 
HETATM   16  N   UNL     1      28.789  45.686  55.475  1.00  0.00    -0.341 N 
HETATM   17  C   UNL     1      30.243  45.703  57.548  1.00  0.00     0.032 A 
HETATM   18  H   UNL     1      28.246  46.528  55.597  1.00  0.00     0.167 HD
HETATM   19  C   UNL     1      31.250  44.949  58.162  1.00  0.00     0.002 A 
HETATM   20  C   UNL     1      31.732  43.772  57.582  1.00  0.00     0.002 A 
ENDBRANCH   7  11
ENDBRANCH   1   7
BRANCH   3  21
HETATM   21  C   UNL     1      25.992  41.412  50.453  1.00  0.00     0.162 C 
BRANCH  21  22
HETATM   22  C   UNL     1      24.837  42.097  49.770  1.00  0.00    -0.040 A 
HETATM   23  C   UNL     1      24.760  42.141  48.371  1.00  0.00     0.011 A 
HETATM   24  C   UNL     1      23.723  42.826  47.730  1.00  0.00     0.030 A 
HETATM   25  C   UNL     1      22.737  43.472  48.474  1.00  0.00     0.036 A 
HETATM   26  C   UNL     1      22.779  43.384  49.871  1.00  0.00     0.030 A 
HETATM   27  C   UNL     1      23.822  42.707  50.515  1.00  0.00     0.011 A 
BRANCH  25  28
HETATM   28  N   UNL     1      21.694  44.228  47.903  1.00  0.00    -0.309 N 
HETATM   29  C   UNL     1      21.672  45.592  47.692  1.00  0.00     0.321 C 
HETATM   30  N   UNL     1      20.457  45.973  47.153  1.00  0.00    -0.339 N 
HETATM   31  O   UNL     1      22.557  46.386  47.974  1.00  0.00    -0.247 OA
HETATM   32  H   UNL     1      20.019  45.286  46.559  1.00  0.00     0.164 HD
HETATM   33  H   UNL     1      20.797  43.772  47.833  1.00  0.00     0.170 HD
BRANCH  30  34
HETATM   34  C   UNL     1      20.093  47.363  46.898  1.00  0.00     0.078 C 
HETATM   35  C   UNL     1      19.123  47.508  45.727  1.00  0.00     0.032 C 
HETATM   36  C   UNL     1      19.578  48.069  48.150  1.00  0.00     0.032 C 
ENDBRANCH  30  34
ENDBRANCH  25  28
ENDBRANCH  21  22
ENDBRANCH   3  21
TORSDOF 7
ENDMDL
MODEL 10
REMARK VINA RESULT:      -8.5      2.662      4.415
REMARK  7 active torsions:
REMARK  status: ('A' for Active; 'I' for Inactive)
REMARK    1  A    between atoms: C_2  and  C_3 
REMARK    2  A    between atoms: C_3  and  N_4 
REMARK    3  A    between atoms: C_3  and  C_22 
REMARK       I    between atoms: N_4  and  C_5 
REMARK       I    between atoms: C_5  and  N_6 
REMARK    4  A    between atoms: N_6  and  C_7 
REMARK    5  A    between atoms: C_7  and  C_8 
REMARK    6  A    between atoms: C_11  and  N_12 
REMARK       I    between atoms: N_12  and  C_13 
REMARK       I    between atoms: C_13  and  N_14 
REMARK    7  A    between atoms: N_14  and  C_15 
ROOT
HETATM    1  N   UNL     1      20.769  48.964  47.947  1.00  0.00    -0.331 N 
HETATM    2  C   UNL     1      19.430  49.143  47.769  1.00  0.00     0.317 C 
HETATM    3  N   UNL     1      19.172  50.232  46.989  1.00  0.00    -0.339 N 
HETATM    4  O   UNL     1      18.570  48.413  48.243  1.00  0.00    -0.247 OA
HETATM    5  H   UNL     1      21.400  49.418  47.299  1.00  0.00     0.165 HD
HETATM    6  H   UNL     1      19.859  50.971  47.032  1.00  0.00     0.164 HD
ENDROOT
BRANCH   1   7
HETATM    7  C   UNL     1      21.316  47.809  48.638  1.00  0.00     0.159 C 
BRANCH   7   8
HETATM    8  C   UNL     1      21.026  46.479  47.890  1.00  0.00     0.008 C 
HETATM    9  C   UNL     1      21.028  45.280  48.845  1.00  0.00     0.012 C 
HETATM   10  C   UNL     1      21.966  46.209  46.710  1.00  0.00     0.012 C 
ENDBRANCH   7   8
BRANCH   7  11
HETATM   11  C   UNL     1      22.784  48.082  48.811  1.00  0.00     0.128 A 
HETATM   12  N   UNL     1      23.630  47.405  49.567  1.00  0.00    -0.231 NA
HETATM   13  C   UNL     1      24.845  48.024  49.409  1.00  0.00     0.085 A 
HETATM   14  C   UNL     1      24.746  49.092  48.523  1.00  0.00     0.062 A 
HETATM   15  C   UNL     1      26.085  47.730  49.992  1.00  0.00     0.034 A 
HETATM   16  N   UNL     1      23.428  49.098  48.146  1.00  0.00    -0.341 N 
HETATM   17  C   UNL     1      25.829  49.903  48.177  1.00  0.00     0.032 A 
HETATM   18  H   UNL     1      23.002  49.744  47.498  1.00  0.00     0.167 HD
HETATM   19  C   UNL     1      27.059  49.596  48.771  1.00  0.00     0.002 A 
HETATM   20  C   UNL     1      27.189  48.529  49.664  1.00  0.00     0.002 A 
ENDBRANCH   7  11
ENDBRANCH   1   7
BRANCH   3  21
HETATM   21  C   UNL     1      17.811  50.618  46.693  1.00  0.00     0.162 C 
BRANCH  21  22
HETATM   22  C   UNL     1      17.216  51.403  47.833  1.00  0.00    -0.040 A 
HETATM   23  C   UNL     1      18.039  52.142  48.694  1.00  0.00     0.011 A 
HETATM   24  C   UNL     1      17.501  52.825  49.790  1.00  0.00     0.030 A 
HETATM   25  C   UNL     1      16.130  52.791  50.040  1.00  0.00     0.036 A 
HETATM   26  C   UNL     1      15.298  52.100  49.151  1.00  0.00     0.030 A 
HETATM   27  C   UNL     1      15.836  51.408  48.059  1.00  0.00     0.011 A 
BRANCH  25  28
HETATM   28  N   UNL     1      15.521  53.406  51.153  1.00  0.00    -0.309 N 
HETATM   29  C   UNL     1      15.133  54.726  51.266  1.00  0.00     0.321 C 
HETATM   30  N   UNL     1      14.615  54.965  52.525  1.00  0.00    -0.339 N 
HETATM   31  O   UNL     1      15.259  55.597  50.418  1.00  0.00    -0.247 OA
HETATM   32  H   UNL     1      14.142  54.182  52.949  1.00  0.00     0.164 HD
HETATM   33  H   UNL     1      15.561  52.898  52.022  1.00  0.00     0.170 HD
BRANCH  30  34
HETATM   34  C   UNL     1      14.197  56.286  52.984  1.00  0.00     0.078 C 
HETATM   35  C   UNL     1      12.843  56.260  53.690  1.00  0.00     0.032 C 
HETATM   36  C   UNL     1      15.264  56.971  53.833  1.00  0.00     0.032 C 
ENDBRANCH  30  34
ENDBRANCH  25  28
ENDBRANCH  21  22
ENDBRANCH   3  21
TORSDOF 7
ENDMDL
