MODEL 1
REMARK VINA RESULT:      -9.6      0.000      0.000
REMARK  10 active torsions:
REMARK  status: ('A' for Active; 'I' for Inactive)
REMARK    1  A    between atoms: C_4  and  C_5 
REMARK    2  A    between atoms: C_8  and  O_9 
REMARK    3  A    between atoms: C_14  and  C_15 
REMARK    4  A    between atoms: C_18  and  C_19 
REMARK    5  A    between atoms: C_19  and  N_20 
REMARK    6  A    between atoms: N_20  and  C_21 
REMARK    7  A    between atoms: C_21  and  N_22 
REMARK    8  A    between atoms: N_22  and  C_23 
REMARK    9  A    between atoms: C_25  and  C_26 
REMARK   10  A    between atoms: C_26  and  O_27 
ROOT
HETATM    1  C   UNL     1      25.369  43.007  50.382  1.00  0.00     0.067 C 
HETATM    2  C   UNL     1      25.290  43.431  48.903  1.00  0.00     0.001 C 
HETATM    3  C   UNL     1      24.082  44.349  48.628  1.00  0.00     0.040 C 
HETATM    4  C   UNL     1      22.745  43.645  48.911  1.00  0.00     0.206 C 
HETATM    5  N   UNL     1      23.080  42.340  49.630  1.00  0.00    -0.065 N 
HETATM    6  H   UNL     1      22.208  41.888  49.940  1.00  0.00     0.280 HD
HETATM    7  C   UNL     1      23.965  42.571  50.858  1.00  0.00     0.246 C 
HETATM    8  C   UNL     1      25.019  42.132  48.097  1.00  0.00     0.033 C 
HETATM    9  C   UNL     1      23.786  41.404  48.654  1.00  0.00     0.236 C 
ENDROOT
BRANCH   4  10
HETATM   10  C   UNL     1      21.738  44.513  49.700  1.00  0.00     0.155 C 
BRANCH  10  11
HETATM   11  N   UNL     1      20.739  45.138  48.835  1.00  0.00    -0.365 N 
HETATM   12  H   UNL     1      19.766  44.901  49.008  1.00  0.00     0.161 HD
BRANCH  11  13
HETATM   13  C   UNL     1      20.867  46.342  48.198  1.00  0.00     0.172 C 
HETATM   14  S   UNL     1      20.822  46.564  46.543  1.00  0.00    -0.041 SA
BRANCH  13  15
HETATM   15  N   UNL     1      21.073  47.443  48.980  1.00  0.00    -0.333 N 
HETATM   16  H   UNL     1      20.689  47.333  49.915  1.00  0.00     0.168 HD
BRANCH  15  17
HETATM   17  C   UNL     1      21.830  48.619  48.780  1.00  0.00     0.035 A 
HETATM   18  C   UNL     1      23.220  48.643  48.663  1.00  0.00     0.047 A 
HETATM   19  C   UNL     1      23.913  49.852  48.483  1.00  0.00     0.041 A 
HETATM   20  C   UNL     1      23.204  51.056  48.449  1.00  0.00     0.018 A 
HETATM   21  C   UNL     1      21.818  51.044  48.601  1.00  0.00     0.003 A 
HETATM   22  C   UNL     1      21.138  49.834  48.767  1.00  0.00     0.029 A 
BRANCH  19  23
HETATM   23  C   UNL     1      25.391  49.780  48.330  1.00  0.00     0.293 C 
HETATM   24  O   UNL     1      25.982  50.257  47.371  1.00  0.00    -0.259 OA
BRANCH  23  25
HETATM   25  O   UNL     1      25.953  49.127  49.373  1.00  0.00    -0.323 OA
HETATM   26  C   UNL     1      27.281  48.660  49.132  1.00  0.00     0.213 C 
ENDBRANCH  23  25
ENDBRANCH  19  23
ENDBRANCH  15  17
ENDBRANCH  13  15
ENDBRANCH  11  13
ENDBRANCH  10  11
ENDBRANCH   4  10
BRANCH   1  27
HETATM   27  C   UNL     1      26.074  43.857  51.404  1.00  0.00     0.038 C 
HETATM   28  N   UNL     1      25.847  45.142  51.842  1.00  0.00    -0.277 N 
HETATM   29  C   UNL     1      24.943  46.166  51.379  1.00  0.00     0.179 C 
HETATM   30  N   UNL     1      26.599  45.476  52.904  1.00  0.00    -0.172 NA
HETATM   31  C   UNL     1      27.452  44.465  53.085  1.00  0.00     0.089 C 
HETATM   32  C   UNL     1      27.163  43.437  52.160  1.00  0.00     0.061 C 
BRANCH  31  33
HETATM   33  C   UNL     1      28.465  44.479  54.141  1.00  0.00    -0.005 A 
HETATM   34  C   UNL     1      29.365  43.416  54.276  1.00  0.00     0.016 A 
HETATM   35  C   UNL     1      30.365  43.449  55.252  1.00  0.00     0.037 A 
HETATM   36  C   UNL     1      30.483  44.541  56.112  1.00  0.00     0.068 A 
HETATM   37  C   UNL     1      29.573  45.591  56.008  1.00  0.00     0.037 A 
HETATM   38  C   UNL     1      28.570  45.561  55.027  1.00  0.00     0.016 A 
BRANCH  36  39
HETATM   39  O   UNL     1      31.513  44.459  57.006  1.00  0.00    -0.356 OA
HETATM   40  C   UNL     1      32.048  43.165  57.253  1.00  0.00     0.210 C 
ENDBRANCH  36  39
ENDBRANCH  31  33
ENDBRANCH   1  27
TORSDOF 10
ENDMDL
MODEL 2
REMARK VINA RESULT:      -9.2      2.228      3.563
REMARK  10 active torsions:
REMARK  status: ('A' for Active; 'I' for Inactive)
REMARK    1  A    between atoms: C_4  and  C_5 
REMARK    2  A    between atoms: C_8  and  O_9 
REMARK    3  A    between atoms: C_14  and  C_15 
REMARK    4  A    between atoms: C_18  and  C_19 
REMARK    5  A    between atoms: C_19  and  N_20 
REMARK    6  A    between atoms: N_20  and  C_21 
REMARK    7  A    between atoms: C_21  and  N_22 
REMARK    8  A    between atoms: N_22  and  C_23 
REMARK    9  A    between atoms: C_25  and  C_26 
REMARK   10  A    between atoms: C_26  and  O_27 
ROOT
HETATM    1  C   UNL     1      25.752  41.844  50.300  1.00  0.00     0.067 C 
HETATM    2  C   UNL     1      25.806  42.487  48.902  1.00  0.00     0.001 C 
HETATM    3  C   UNL     1      25.366  43.965  48.927  1.00  0.00     0.040 C 
HETATM    4  C   UNL     1      23.907  44.126  49.382  1.00  0.00     0.206 C 
HETATM    5  N   UNL     1      23.460  42.767  49.914  1.00  0.00    -0.065 N 
HETATM    6  H   UNL     1      22.524  42.855  50.334  1.00  0.00     0.280 HD
HETATM    7  C   UNL     1      24.417  42.223  50.980  1.00  0.00     0.246 C 
HETATM    8  C   UNL     1      24.739  41.750  48.047  1.00  0.00     0.033 C 
HETATM    9  C   UNL     1      23.373  41.784  48.751  1.00  0.00     0.236 C 
ENDROOT
BRANCH   4  10
HETATM   10  C   UNL     1      23.697  45.262  50.411  1.00  0.00     0.155 C 
BRANCH  10  11
HETATM   11  N   UNL     1      24.738  45.289  51.436  1.00  0.00    -0.365 N 
HETATM   12  H   UNL     1      25.151  44.397  51.697  1.00  0.00     0.161 HD
BRANCH  11  13
HETATM   13  C   UNL     1      25.572  46.339  51.709  1.00  0.00     0.172 C 
HETATM   14  S   UNL     1      25.701  47.106  53.187  1.00  0.00    -0.041 SA
BRANCH  13  15
HETATM   15  N   UNL     1      26.338  46.811  50.681  1.00  0.00    -0.333 N 
HETATM   16  H   UNL     1      27.057  46.149  50.397  1.00  0.00     0.168 HD
BRANCH  15  17
HETATM   17  C   UNL     1      26.225  47.957  49.864  1.00  0.00     0.035 A 
HETATM   18  C   UNL     1      25.014  48.478  49.410  1.00  0.00     0.047 A 
HETATM   19  C   UNL     1      24.975  49.614  48.584  1.00  0.00     0.041 A 
HETATM   20  C   UNL     1      26.170  50.218  48.183  1.00  0.00     0.018 A 
HETATM   21  C   UNL     1      27.387  49.683  48.604  1.00  0.00     0.003 A 
HETATM   22  C   UNL     1      27.413  48.559  49.436  1.00  0.00     0.029 A 
BRANCH  19  23
HETATM   23  C   UNL     1      23.636  50.123  48.179  1.00  0.00     0.293 C 
HETATM   24  O   UNL     1      23.203  51.207  48.541  1.00  0.00    -0.259 OA
BRANCH  23  25
HETATM   25  O   UNL     1      23.003  49.231  47.383  1.00  0.00    -0.323 OA
HETATM   26  C   UNL     1      21.739  48.789  47.880  1.00  0.00     0.213 C 
ENDBRANCH  23  25
ENDBRANCH  19  23
ENDBRANCH  15  17
ENDBRANCH  13  15
ENDBRANCH  11  13
ENDBRANCH  10  11
ENDBRANCH   4  10
BRANCH   1  27
HETATM   27  C   UNL     1      26.915  41.934  51.250  1.00  0.00     0.038 C 
HETATM   28  N   UNL     1      28.082  41.209  51.342  1.00  0.00    -0.277 N 
HETATM   29  C   UNL     1      28.531  40.027  50.649  1.00  0.00     0.179 C 
HETATM   30  N   UNL     1      28.951  41.722  52.228  1.00  0.00    -0.172 NA
HETATM   31  C   UNL     1      28.304  42.709  52.852  1.00  0.00     0.089 C 
HETATM   32  C   UNL     1      27.023  42.866  52.276  1.00  0.00     0.061 C 
BRANCH  31  33
HETATM   33  C   UNL     1      28.922  43.493  53.922  1.00  0.00    -0.005 A 
HETATM   34  C   UNL     1      28.345  44.696  54.344  1.00  0.00     0.016 A 
HETATM   35  C   UNL     1      28.906  45.422  55.399  1.00  0.00     0.037 A 
HETATM   36  C   UNL     1      30.051  44.963  56.049  1.00  0.00     0.068 A 
HETATM   37  C   UNL     1      30.652  43.782  55.616  1.00  0.00     0.037 A 
HETATM   38  C   UNL     1      30.090  43.051  54.559  1.00  0.00     0.016 A 
BRANCH  36  39
HETATM   39  O   UNL     1      30.486  45.754  57.075  1.00  0.00    -0.356 OA
HETATM   40  C   UNL     1      30.998  45.092  58.223  1.00  0.00     0.210 C 
ENDBRANCH  36  39
ENDBRANCH  31  33
ENDBRANCH   1  27
TORSDOF 10
ENDMDL
MODEL 3
REMARK VINA RESULT:      -9.1      2.799      3.902
REMARK  10 active torsions:
REMARK  status: ('A' for Active; 'I' for Inactive)
REMARK    1  A    between atoms: C_4  and  C_5 
REMARK    2  A    between atoms: C_8  and  O_9 
REMARK    3  A    between atoms: C_14  and  C_15 
REMARK    4  A    between atoms: C_18  and  C_19 
REMARK    5  A    between atoms: C_19  and  N_20 
REMARK    6  A    between atoms: N_20  and  C_21 
REMARK    7  A    between atoms: C_21  and  N_22 
REMARK    8  A    between atoms: N_22  and  C_23 
REMARK    9  A    between atoms: C_25  and  C_26 
REMARK   10  A    between atoms: C_26  and  O_27 
ROOT
HETATM    1  C   UNL     1      25.329  42.971  50.944  1.00  0.00     0.067 C 
HETATM    2  C   UNL     1      25.307  43.309  49.441  1.00  0.00     0.001 C 
HETATM    3  C   UNL     1      25.374  44.829  49.189  1.00  0.00     0.040 C 
HETATM    4  C   UNL     1      24.161  45.566  49.779  1.00  0.00     0.206 C 
HETATM    5  N   UNL     1      23.420  44.559  50.657  1.00  0.00    -0.065 N 
HETATM    6  H   UNL     1      22.663  45.040  51.163  1.00  0.00     0.280 HD
HETATM    7  C   UNL     1      24.345  43.902  51.686  1.00  0.00     0.246 C 
HETATM    8  C   UNL     1      23.916  42.861  48.918  1.00  0.00     0.033 C 
HETATM    9  C   UNL     1      22.798  43.489  49.765  1.00  0.00     0.236 C 
ENDROOT
BRANCH   4  10
HETATM   10  C   UNL     1      24.529  46.859  50.544  1.00  0.00     0.155 C 
BRANCH  10  11
HETATM   11  N   UNL     1      24.930  47.944  49.651  1.00  0.00    -0.365 N 
HETATM   12  H   UNL     1      25.725  47.769  49.042  1.00  0.00     0.161 HD
BRANCH  11  13
HETATM   13  C   UNL     1      24.113  48.924  49.157  1.00  0.00     0.172 C 
HETATM   14  S   UNL     1      24.558  50.067  48.024  1.00  0.00    -0.041 SA
BRANCH  13  15
HETATM   15  N   UNL     1      22.841  48.983  49.653  1.00  0.00    -0.333 N 
HETATM   16  H   UNL     1      22.785  48.668  50.618  1.00  0.00     0.168 HD
BRANCH  15  17
HETATM   17  C   UNL     1      21.646  49.526  49.131  1.00  0.00     0.035 A 
HETATM   18  C   UNL     1      20.662  48.775  48.488  1.00  0.00     0.047 A 
HETATM   19  C   UNL     1      19.503  49.383  47.975  1.00  0.00     0.041 A 
HETATM   20  C   UNL     1      19.344  50.767  48.083  1.00  0.00     0.018 A 
HETATM   21  C   UNL     1      20.340  51.530  48.693  1.00  0.00     0.003 A 
HETATM   22  C   UNL     1      21.483  50.913  49.210  1.00  0.00     0.029 A 
BRANCH  19  23
HETATM   23  C   UNL     1      18.489  48.500  47.339  1.00  0.00     0.293 C 
HETATM   24  O   UNL     1      17.937  48.779  46.284  1.00  0.00    -0.259 OA
BRANCH  23  25
HETATM   25  O   UNL     1      18.281  47.390  48.084  1.00  0.00    -0.323 OA
HETATM   26  C   UNL     1      17.003  47.335  48.719  1.00  0.00     0.213 C 
ENDBRANCH  23  25
ENDBRANCH  19  23
ENDBRANCH  15  17
ENDBRANCH  13  15
ENDBRANCH  11  13
ENDBRANCH  10  11
ENDBRANCH   4  10
BRANCH   1  27
HETATM   27  C   UNL     1      26.624  42.805  51.691  1.00  0.00     0.038 C 
HETATM   28  N   UNL     1      27.739  42.039  51.435  1.00  0.00    -0.277 N 
HETATM   29  C   UNL     1      27.998  41.028  50.439  1.00  0.00     0.179 C 
HETATM   30  N   UNL     1      28.764  42.309  52.261  1.00  0.00    -0.172 NA
HETATM   31  C   UNL     1      28.285  43.151  53.180  1.00  0.00     0.089 C 
HETATM   32  C   UNL     1      26.947  43.478  52.864  1.00  0.00     0.061 C 
BRANCH  31  33
HETATM   33  C   UNL     1      29.108  43.653  54.281  1.00  0.00    -0.005 A 
HETATM   34  C   UNL     1      28.809  44.877  54.890  1.00  0.00     0.016 A 
HETATM   35  C   UNL     1      29.563  45.335  55.974  1.00  0.00     0.037 A 
HETATM   36  C   UNL     1      30.628  44.583  56.469  1.00  0.00     0.068 A 
HETATM   37  C   UNL     1      30.955  43.377  55.850  1.00  0.00     0.037 A 
HETATM   38  C   UNL     1      30.198  42.914  54.763  1.00  0.00     0.016 A 
BRANCH  36  39
HETATM   39  O   UNL     1      31.270  45.132  57.542  1.00  0.00    -0.356 OA
HETATM   40  C   UNL     1      30.558  46.116  58.282  1.00  0.00     0.210 C 
ENDBRANCH  36  39
ENDBRANCH  31  33
ENDBRANCH   1  27
TORSDOF 10
ENDMDL
MODEL 4
REMARK VINA RESULT:      -8.6      2.252      3.289
REMARK  10 active torsions:
REMARK  status: ('A' for Active; 'I' for Inactive)
REMARK    1  A    between atoms: C_4  and  C_5 
REMARK    2  A    between atoms: C_8  and  O_9 
REMARK    3  A    between atoms: C_14  and  C_15 
REMARK    4  A    between atoms: C_18  and  C_19 
REMARK    5  A    between atoms: C_19  and  N_20 
REMARK    6  A    between atoms: N_20  and  C_21 
REMARK    7  A    between atoms: C_21  and  N_22 
REMARK    8  A    between atoms: N_22  and  C_23 
REMARK    9  A    between atoms: C_25  and  C_26 
REMARK   10  A    between atoms: C_26  and  O_27 
ROOT
HETATM    1  C   UNL     1      27.639  40.682  50.322  1.00  0.00     0.067 C 
HETATM    2  C   UNL     1      28.097  40.558  48.857  1.00  0.00     0.001 C 
HETATM    3  C   UNL     1      27.047  41.117  47.874  1.00  0.00     0.040 C 
HETATM    4  C   UNL     1      25.722  40.343  47.943  1.00  0.00     0.206 C 
HETATM    5  N   UNL     1      25.807  39.434  49.167  1.00  0.00    -0.065 N 
HETATM    6  H   UNL     1      24.896  38.979  49.318  1.00  0.00     0.280 HD
HETATM    7  C   UNL     1      26.172  40.211  50.436  1.00  0.00     0.246 C 
HETATM    8  C   UNL     1      28.178  39.036  48.558  1.00  0.00     0.033 C 
HETATM    9  C   UNL     1      26.849  38.350  48.909  1.00  0.00     0.236 C 
ENDROOT
BRANCH   4  10
HETATM   10  C   UNL     1      24.470  41.251  47.967  1.00  0.00     0.155 C 
BRANCH  10  11
HETATM   11  N   UNL     1      24.506  42.282  46.931  1.00  0.00    -0.365 N 
HETATM   12  H   UNL     1      25.053  42.079  46.098  1.00  0.00     0.161 HD
BRANCH  11  13
HETATM   13  C   UNL     1      23.536  43.217  46.692  1.00  0.00     0.172 C 
HETATM   14  S   UNL     1      23.071  43.756  45.181  1.00  0.00    -0.041 SA
BRANCH  13  15
HETATM   15  N   UNL     1      22.921  43.769  47.780  1.00  0.00    -0.333 N 
HETATM   16  H   UNL     1      22.779  43.096  48.529  1.00  0.00     0.168 HD
BRANCH  15  17
HETATM   17  C   UNL     1      22.586  45.102  48.102  1.00  0.00     0.035 A 
HETATM   18  C   UNL     1      23.431  45.978  48.784  1.00  0.00     0.047 A 
HETATM   19  C   UNL     1      23.027  47.289  49.090  1.00  0.00     0.041 A 
HETATM   20  C   UNL     1      21.745  47.717  48.732  1.00  0.00     0.018 A 
HETATM   21  C   UNL     1      20.881  46.837  48.082  1.00  0.00     0.003 A 
HETATM   22  C   UNL     1      21.299  45.539  47.772  1.00  0.00     0.029 A 
BRANCH  19  23
HETATM   23  C   UNL     1      24.007  48.165  49.785  1.00  0.00     0.293 C 
HETATM   24  O   UNL     1      24.775  47.749  50.642  1.00  0.00    -0.259 OA
BRANCH  23  25
HETATM   25  O   UNL     1      23.915  49.440  49.341  1.00  0.00    -0.323 OA
HETATM   26  C   UNL     1      24.879  49.789  48.347  1.00  0.00     0.213 C 
ENDBRANCH  23  25
ENDBRANCH  19  23
ENDBRANCH  15  17
ENDBRANCH  13  15
ENDBRANCH  11  13
ENDBRANCH  10  11
ENDBRANCH   4  10
BRANCH   1  27
HETATM   27  C   UNL     1      27.895  41.932  51.120  1.00  0.00     0.038 C 
HETATM   28  N   UNL     1      27.455  43.227  50.961  1.00  0.00    -0.277 N 
HETATM   29  C   UNL     1      26.711  43.862  49.902  1.00  0.00     0.179 C 
HETATM   30  N   UNL     1      27.771  44.020  51.998  1.00  0.00    -0.172 NA
HETATM   31  C   UNL     1      28.565  43.295  52.790  1.00  0.00     0.089 C 
HETATM   32  C   UNL     1      28.675  41.986  52.270  1.00  0.00     0.061 C 
BRANCH  31  33
HETATM   33  C   UNL     1      29.145  43.837  54.019  1.00  0.00    -0.005 A 
HETATM   34  C   UNL     1      30.228  43.197  54.635  1.00  0.00     0.016 A 
HETATM   35  C   UNL     1      30.815  43.739  55.782  1.00  0.00     0.037 A 
HETATM   36  C   UNL     1      30.334  44.925  56.335  1.00  0.00     0.068 A 
HETATM   37  C   UNL     1      29.237  45.554  55.748  1.00  0.00     0.037 A 
HETATM   38  C   UNL     1      28.647  45.013  54.596  1.00  0.00     0.016 A 
BRANCH  36  39
HETATM   39  O   UNL     1      31.008  45.358  57.442  1.00  0.00    -0.356 OA
HETATM   40  C   UNL     1      30.245  45.542  58.628  1.00  0.00     0.210 C 
ENDBRANCH  36  39
ENDBRANCH  31  33
ENDBRANCH   1  27
TORSDOF 10
ENDMDL
MODEL 5
REMARK VINA RESULT:      -8.5      3.265      6.324
REMARK  10 active torsions:
REMARK  status: ('A' for Active; 'I' for Inactive)
REMARK    1  A    between atoms: C_4  and  C_5 
REMARK    2  A    between atoms: C_8  and  O_9 
REMARK    3  A    between atoms: C_14  and  C_15 
REMARK    4  A    between atoms: C_18  and  C_19 
REMARK    5  A    between atoms: C_19  and  N_20 
REMARK    6  A    between atoms: N_20  and  C_21 
REMARK    7  A    between atoms: C_21  and  N_22 
REMARK    8  A    between atoms: N_22  and  C_23 
REMARK    9  A    between atoms: C_25  and  C_26 
REMARK   10  A    between atoms: C_26  and  O_27 
ROOT
HETATM    1  C   UNL     1      22.094  49.792  48.367  1.00  0.00     0.067 C 
HETATM    2  C   UNL     1      21.461  50.894  49.237  1.00  0.00     0.001 C 
HETATM    3  C   UNL     1      20.508  50.314  50.303  1.00  0.00     0.040 C 
HETATM    4  C   UNL     1      19.319  49.572  49.673  1.00  0.00     0.206 C 
HETATM    5  N   UNL     1      19.627  49.434  48.184  1.00  0.00    -0.065 N 
HETATM    6  H   UNL     1      18.909  48.844  47.740  1.00  0.00     0.280 HD
HETATM    7  C   UNL     1      20.996  48.794  47.936  1.00  0.00     0.246 C 
HETATM    8  C   UNL     1      20.561  51.730  48.286  1.00  0.00     0.033 C 
HETATM    9  C   UNL     1      19.579  50.815  47.538  1.00  0.00     0.236 C 
ENDROOT
BRANCH   4  10
HETATM   10  C   UNL     1      19.008  48.213  50.341  1.00  0.00     0.155 C 
BRANCH  10  11
HETATM   11  N   UNL     1      17.662  47.732  50.032  1.00  0.00    -0.365 N 
HETATM   12  H   UNL     1      16.897  48.129  50.571  1.00  0.00     0.161 HD
BRANCH  11  13
HETATM   13  C   UNL     1      17.240  47.240  48.828  1.00  0.00     0.172 C 
HETATM   14  S   UNL     1      16.095  47.956  47.844  1.00  0.00    -0.041 SA
BRANCH  13  15
HETATM   15  N   UNL     1      17.781  46.057  48.413  1.00  0.00    -0.333 N 
HETATM   16  H   UNL     1      17.142  45.274  48.534  1.00  0.00     0.168 HD
BRANCH  15  17
HETATM   17  C   UNL     1      18.978  45.751  47.729  1.00  0.00     0.035 A 
HETATM   18  C   UNL     1      20.123  45.247  48.345  1.00  0.00     0.047 A 
HETATM   19  C   UNL     1      21.289  44.981  47.606  1.00  0.00     0.041 A 
HETATM   20  C   UNL     1      21.315  45.253  46.235  1.00  0.00     0.018 A 
HETATM   21  C   UNL     1      20.186  45.791  45.618  1.00  0.00     0.003 A 
HETATM   22  C   UNL     1      19.028  46.039  46.361  1.00  0.00     0.029 A 
BRANCH  19  23
HETATM   23  C   UNL     1      22.451  44.409  48.339  1.00  0.00     0.293 C 
HETATM   24  O   UNL     1      23.597  44.477  47.918  1.00  0.00    -0.259 OA
BRANCH  23  25
HETATM   25  O   UNL     1      22.052  43.824  49.492  1.00  0.00    -0.323 OA
HETATM   26  C   UNL     1      23.068  43.064  50.150  1.00  0.00     0.213 C 
ENDBRANCH  23  25
ENDBRANCH  19  23
ENDBRANCH  15  17
ENDBRANCH  13  15
ENDBRANCH  11  13
ENDBRANCH  10  11
ENDBRANCH   4  10
BRANCH   1  27
HETATM   27  C   UNL     1      23.360  49.094  48.786  1.00  0.00     0.038 C 
HETATM   28  N   UNL     1      24.686  49.429  48.629  1.00  0.00    -0.277 N 
HETATM   29  C   UNL     1      25.325  50.492  47.893  1.00  0.00     0.179 C 
HETATM   30  N   UNL     1      25.516  48.619  49.307  1.00  0.00    -0.172 NA
HETATM   31  C   UNL     1      24.756  47.637  49.797  1.00  0.00     0.089 C 
HETATM   32  C   UNL     1      23.402  47.892  49.484  1.00  0.00     0.061 C 
BRANCH  31  33
HETATM   33  C   UNL     1      25.316  46.531  50.575  1.00  0.00    -0.005 A 
HETATM   34  C   UNL     1      25.031  46.408  51.940  1.00  0.00     0.016 A 
HETATM   35  C   UNL     1      25.525  45.327  52.675  1.00  0.00     0.037 A 
HETATM   36  C   UNL     1      26.312  44.351  52.063  1.00  0.00     0.068 A 
HETATM   37  C   UNL     1      26.628  44.480  50.712  1.00  0.00     0.037 A 
HETATM   38  C   UNL     1      26.132  45.563  49.972  1.00  0.00     0.016 A 
BRANCH  36  39
HETATM   39  O   UNL     1      26.713  43.337  52.887  1.00  0.00    -0.356 OA
HETATM   40  C   UNL     1      26.770  43.625  54.278  1.00  0.00     0.210 C 
ENDBRANCH  36  39
ENDBRANCH  31  33
ENDBRANCH   1  27
TORSDOF 10
ENDMDL
MODEL 6
REMARK VINA RESULT:      -8.4      2.287      3.122
REMARK  10 active torsions:
REMARK  status: ('A' for Active; 'I' for Inactive)
REMARK    1  A    between atoms: C_4  and  C_5 
REMARK    2  A    between atoms: C_8  and  O_9 
REMARK    3  A    between atoms: C_14  and  C_15 
REMARK    4  A    between atoms: C_18  and  C_19 
REMARK    5  A    between atoms: C_19  and  N_20 
REMARK    6  A    between atoms: N_20  and  C_21 
REMARK    7  A    between atoms: C_21  and  N_22 
REMARK    8  A    between atoms: N_22  and  C_23 
REMARK    9  A    between atoms: C_25  and  C_26 
REMARK   10  A    between atoms: C_26  and  O_27 
ROOT
HETATM    1  C   UNL     1      25.421  42.899  50.318  1.00  0.00     0.067 C 
HETATM    2  C   UNL     1      25.435  43.256  48.819  1.00  0.00     0.001 C 
HETATM    3  C   UNL     1      24.271  44.193  48.438  1.00  0.00     0.040 C 
HETATM    4  C   UNL     1      22.901  43.540  48.677  1.00  0.00     0.206 C 
HETATM    5  N   UNL     1      23.157  42.261  49.471  1.00  0.00    -0.065 N 
HETATM    6  H   UNL     1      22.257  41.848  49.752  1.00  0.00     0.280 HD
HETATM    7  C   UNL     1      23.982  42.523  50.735  1.00  0.00     0.246 C 
HETATM    8  C   UNL     1      25.169  41.929  48.058  1.00  0.00     0.033 C 
HETATM    9  C   UNL     1      23.887  41.262  48.578  1.00  0.00     0.236 C 
ENDROOT
BRANCH   4  10
HETATM   10  C   UNL     1      21.880  44.471  49.370  1.00  0.00     0.155 C 
BRANCH  10  11
HETATM   11  N   UNL     1      21.855  45.811  48.785  1.00  0.00    -0.365 N 
HETATM   12  H   UNL     1      22.741  46.187  48.457  1.00  0.00     0.161 HD
BRANCH  11  13
HETATM   13  C   UNL     1      20.788  46.397  48.160  1.00  0.00     0.172 C 
HETATM   14  S   UNL     1      19.232  45.791  48.146  1.00  0.00    -0.041 SA
BRANCH  13  15
HETATM   15  N   UNL     1      21.024  47.555  47.475  1.00  0.00    -0.333 N 
HETATM   16  H   UNL     1      21.210  47.391  46.489  1.00  0.00     0.168 HD
BRANCH  15  17
HETATM   17  C   UNL     1      20.915  48.913  47.846  1.00  0.00     0.035 A 
HETATM   18  C   UNL     1      19.766  49.683  47.668  1.00  0.00     0.047 A 
HETATM   19  C   UNL     1      19.732  51.037  48.043  1.00  0.00     0.041 A 
HETATM   20  C   UNL     1      20.878  51.634  48.577  1.00  0.00     0.018 A 
HETATM   21  C   UNL     1      22.042  50.881  48.725  1.00  0.00     0.003 A 
HETATM   22  C   UNL     1      22.060  49.531  48.360  1.00  0.00     0.029 A 
BRANCH  19  23
HETATM   23  C   UNL     1      18.452  51.770  47.852  1.00  0.00     0.293 C 
HETATM   24  O   UNL     1      17.659  51.497  46.962  1.00  0.00    -0.259 OA
BRANCH  23  25
HETATM   25  O   UNL     1      18.314  52.748  48.777  1.00  0.00    -0.323 OA
HETATM   26  C   UNL     1      17.361  52.461  49.801  1.00  0.00     0.213 C 
ENDBRANCH  23  25
ENDBRANCH  19  23
ENDBRANCH  15  17
ENDBRANCH  13  15
ENDBRANCH  11  13
ENDBRANCH  10  11
ENDBRANCH   4  10
BRANCH   1  27
HETATM   27  C   UNL     1      26.096  43.775  51.339  1.00  0.00     0.038 C 
HETATM   28  N   UNL     1      25.849  45.067  51.745  1.00  0.00    -0.277 N 
HETATM   29  C   UNL     1      24.948  46.074  51.239  1.00  0.00     0.179 C 
HETATM   30  N   UNL     1      26.573  45.428  52.817  1.00  0.00    -0.172 NA
HETATM   31  C   UNL     1      27.428  44.428  53.040  1.00  0.00     0.089 C 
HETATM   32  C   UNL     1      27.169  43.379  52.129  1.00  0.00     0.061 C 
BRANCH  31  33
HETATM   33  C   UNL     1      28.415  44.472  54.119  1.00  0.00    -0.005 A 
HETATM   34  C   UNL     1      29.354  43.443  54.264  1.00  0.00     0.016 A 
HETATM   35  C   UNL     1      30.329  43.507  55.264  1.00  0.00     0.037 A 
HETATM   36  C   UNL     1      30.384  44.594  56.137  1.00  0.00     0.068 A 
HETATM   37  C   UNL     1      29.434  45.608  56.021  1.00  0.00     0.037 A 
HETATM   38  C   UNL     1      28.457  45.547  55.017  1.00  0.00     0.016 A 
BRANCH  36  39
HETATM   39  O   UNL     1      31.395  44.543  57.054  1.00  0.00    -0.356 OA
HETATM   40  C   UNL     1      32.019  43.281  57.253  1.00  0.00     0.210 C 
ENDBRANCH  36  39
ENDBRANCH  31  33
ENDBRANCH   1  27
TORSDOF 10
ENDMDL
MODEL 7
REMARK VINA RESULT:      -8.4      4.314      6.976
REMARK  10 active torsions:
REMARK  status: ('A' for Active; 'I' for Inactive)
REMARK    1  A    between atoms: C_4  and  C_5 
REMARK    2  A    between atoms: C_8  and  O_9 
REMARK    3  A    between atoms: C_14  and  C_15 
REMARK    4  A    between atoms: C_18  and  C_19 
REMARK    5  A    between atoms: C_19  and  N_20 
REMARK    6  A    between atoms: N_20  and  C_21 
REMARK    7  A    between atoms: C_21  and  N_22 
REMARK    8  A    between atoms: N_22  and  C_23 
REMARK    9  A    between atoms: C_25  and  C_26 
REMARK   10  A    between atoms: C_26  and  O_27 
ROOT
HETATM    1  C   UNL     1      22.191  49.554  48.311  1.00  0.00     0.067 C 
HETATM    2  C   UNL     1      21.373  50.578  49.121  1.00  0.00     0.001 C 
HETATM    3  C   UNL     1      20.301  49.897  49.997  1.00  0.00     0.040 C 
HETATM    4  C   UNL     1      19.264  49.138  49.155  1.00  0.00     0.206 C 
HETATM    5  N   UNL     1      19.804  49.095  47.728  1.00  0.00    -0.065 N 
HETATM    6  H   UNL     1      19.196  48.497  47.150  1.00  0.00     0.280 HD
HETATM    7  C   UNL     1      21.227  48.532  47.667  1.00  0.00     0.246 C 
HETATM    8  C   UNL     1      20.588  51.422  48.081  1.00  0.00     0.033 C 
HETATM    9  C   UNL     1      19.783  50.505  47.147  1.00  0.00     0.236 C 
ENDROOT
BRANCH   4  10
HETATM   10  C   UNL     1      18.926  47.731  49.702  1.00  0.00     0.155 C 
BRANCH  10  11
HETATM   11  N   UNL     1      17.551  47.332  49.411  1.00  0.00    -0.365 N 
HETATM   12  H   UNL     1      16.822  47.730  49.998  1.00  0.00     0.161 HD
BRANCH  11  13
HETATM   13  C   UNL     1      17.069  46.935  48.193  1.00  0.00     0.172 C 
HETATM   14  S   UNL     1      17.653  45.650  47.301  1.00  0.00    -0.041 SA
BRANCH  13  15
HETATM   15  N   UNL     1      16.046  47.666  47.658  1.00  0.00    -0.333 N 
HETATM   16  H   UNL     1      15.168  47.153  47.644  1.00  0.00     0.168 HD
BRANCH  15  17
HETATM   17  C   UNL     1      15.954  49.019  47.265  1.00  0.00     0.035 A 
HETATM   18  C   UNL     1      15.753  50.078  48.150  1.00  0.00     0.047 A 
HETATM   19  C   UNL     1      15.652  51.402  47.688  1.00  0.00     0.041 A 
HETATM   20  C   UNL     1      15.725  51.663  46.317  1.00  0.00     0.018 A 
HETATM   21  C   UNL     1      15.891  50.606  45.422  1.00  0.00     0.003 A 
HETATM   22  C   UNL     1      16.002  49.294  45.895  1.00  0.00     0.029 A 
BRANCH  19  23
HETATM   23  C   UNL     1      15.476  52.472  48.707  1.00  0.00     0.293 C 
HETATM   24  O   UNL     1      14.785  53.463  48.513  1.00  0.00    -0.259 OA
BRANCH  23  25
HETATM   25  O   UNL     1      16.174  52.189  49.830  1.00  0.00    -0.323 OA
HETATM   26  C   UNL     1      17.556  52.547  49.773  1.00  0.00     0.213 C 
ENDBRANCH  23  25
ENDBRANCH  19  23
ENDBRANCH  15  17
ENDBRANCH  13  15
ENDBRANCH  11  13
ENDBRANCH  10  11
ENDBRANCH   4  10
BRANCH   1  27
HETATM   27  C   UNL     1      23.413  48.893  48.889  1.00  0.00     0.038 C 
HETATM   28  N   UNL     1      24.755  49.170  48.757  1.00  0.00    -0.277 N 
HETATM   29  C   UNL     1      25.461  50.102  47.912  1.00  0.00     0.179 C 
HETATM   30  N   UNL     1      25.526  48.445  49.585  1.00  0.00    -0.172 NA
HETATM   31  C   UNL     1      24.712  47.561  50.167  1.00  0.00     0.089 C 
HETATM   32  C   UNL     1      23.384  47.802  49.751  1.00  0.00     0.061 C 
BRANCH  31  33
HETATM   33  C   UNL     1      25.199  46.564  51.121  1.00  0.00    -0.005 A 
HETATM   34  C   UNL     1      25.978  46.953  52.218  1.00  0.00     0.016 A 
HETATM   35  C   UNL     1      26.404  46.010  53.157  1.00  0.00     0.037 A 
HETATM   36  C   UNL     1      26.063  44.664  53.020  1.00  0.00     0.068 A 
HETATM   37  C   UNL     1      25.314  44.262  51.916  1.00  0.00     0.037 A 
HETATM   38  C   UNL     1      24.884  45.206  50.973  1.00  0.00     0.016 A 
BRANCH  36  39
HETATM   39  O   UNL     1      26.524  43.850  54.016  1.00  0.00    -0.356 OA
HETATM   40  C   UNL     1      27.935  43.748  54.160  1.00  0.00     0.210 C 
ENDBRANCH  36  39
ENDBRANCH  31  33
ENDBRANCH   1  27
TORSDOF 10
ENDMDL
MODEL 8
REMARK VINA RESULT:      -8.3      5.119     11.432
REMARK  10 active torsions:
REMARK  status: ('A' for Active; 'I' for Inactive)
REMARK    1  A    between atoms: C_4  and  C_5 
REMARK    2  A    between atoms: C_8  and  O_9 
REMARK    3  A    between atoms: C_14  and  C_15 
REMARK    4  A    between atoms: C_18  and  C_19 
REMARK    5  A    between atoms: C_19  and  N_20 
REMARK    6  A    between atoms: N_20  and  C_21 
REMARK    7  A    between atoms: C_21  and  N_22 
REMARK    8  A    between atoms: N_22  and  C_23 
REMARK    9  A    between atoms: C_25  and  C_26 
REMARK   10  A    between atoms: C_26  and  O_27 
ROOT
HETATM    1  C   UNL     1      19.910  51.063  49.355  1.00  0.00     0.067 C 
HETATM    2  C   UNL     1      20.742  51.019  48.059  1.00  0.00     0.001 C 
HETATM    3  C   UNL     1      20.705  49.626  47.396  1.00  0.00     0.040 C 
HETATM    4  C   UNL     1      21.316  48.541  48.297  1.00  0.00     0.206 C 
HETATM    5  N   UNL     1      21.517  49.174  49.672  1.00  0.00    -0.065 N 
HETATM    6  H   UNL     1      21.819  48.451  50.340  1.00  0.00     0.280 HD
HETATM    7  C   UNL     1      20.231  49.813  50.205  1.00  0.00     0.246 C 
HETATM    8  C   UNL     1      22.218  51.237  48.487  1.00  0.00     0.033 C 
HETATM    9  C   UNL     1      22.615  50.228  49.576  1.00  0.00     0.236 C 
ENDROOT
BRANCH   4  10
HETATM   10  C   UNL     1      20.480  47.242  48.361  1.00  0.00     0.155 C 
BRANCH  10  11
HETATM   11  N   UNL     1      21.118  46.130  47.657  1.00  0.00    -0.365 N 
HETATM   12  H   UNL     1      21.365  46.283  46.683  1.00  0.00     0.161 HD
BRANCH  11  13
HETATM   13  C   UNL     1      21.873  45.143  48.229  1.00  0.00     0.172 C 
HETATM   14  S   UNL     1      22.174  43.647  47.550  1.00  0.00    -0.041 SA
BRANCH  13  15
HETATM   15  N   UNL     1      22.399  45.396  49.464  1.00  0.00    -0.333 N 
HETATM   16  H   UNL     1      21.701  45.343  50.202  1.00  0.00     0.168 HD
BRANCH  15  17
HETATM   17  C   UNL     1      23.728  45.570  49.910  1.00  0.00     0.035 A 
HETATM   18  C   UNL     1      24.591  46.555  49.431  1.00  0.00     0.047 A 
HETATM   19  C   UNL     1      25.910  46.660  49.906  1.00  0.00     0.041 A 
HETATM   20  C   UNL     1      26.377  45.745  50.853  1.00  0.00     0.018 A 
HETATM   21  C   UNL     1      25.532  44.734  51.312  1.00  0.00     0.003 A 
HETATM   22  C   UNL     1      24.218  44.648  50.840  1.00  0.00     0.029 A 
BRANCH  19  23
HETATM   23  C   UNL     1      26.748  47.765  49.367  1.00  0.00     0.293 C 
HETATM   24  O   UNL     1      27.835  47.574  48.841  1.00  0.00    -0.259 OA
BRANCH  23  25
HETATM   25  O   UNL     1      26.142  48.961  49.547  1.00  0.00    -0.323 OA
HETATM   26  C   UNL     1      26.116  49.790  48.384  1.00  0.00     0.213 C 
ENDBRANCH  23  25
ENDBRANCH  19  23
ENDBRANCH  15  17
ENDBRANCH  13  15
ENDBRANCH  11  13
ENDBRANCH  10  11
ENDBRANCH   4  10
BRANCH   1  27
HETATM   27  C   UNL     1      18.437  51.367  49.331  1.00  0.00     0.038 C 
HETATM   28  N   UNL     1      17.347  50.600  48.986  1.00  0.00    -0.277 N 
HETATM   29  C   UNL     1      17.250  49.286  48.398  1.00  0.00     0.179 C 
HETATM   30  N   UNL     1      16.175  51.191  49.272  1.00  0.00    -0.172 NA
HETATM   31  C   UNL     1      16.474  52.430  49.668  1.00  0.00     0.089 C 
HETATM   32  C   UNL     1      17.878  52.583  49.709  1.00  0.00     0.061 C 
BRANCH  31  33
HETATM   33  C   UNL     1      15.443  53.400  50.037  1.00  0.00    -0.005 A 
HETATM   34  C   UNL     1      15.715  54.773  50.005  1.00  0.00     0.016 A 
HETATM   35  C   UNL     1      14.718  55.703  50.310  1.00  0.00     0.037 A 
HETATM   36  C   UNL     1      13.433  55.282  50.654  1.00  0.00     0.068 A 
HETATM   37  C   UNL     1      13.159  53.917  50.720  1.00  0.00     0.037 A 
HETATM   38  C   UNL     1      14.158  52.982  50.412  1.00  0.00     0.016 A 
BRANCH  36  39
HETATM   39  O   UNL     1      12.547  56.291  50.909  1.00  0.00    -0.356 OA
HETATM   40  C   UNL     1      12.882  57.190  51.959  1.00  0.00     0.210 C 
ENDBRANCH  36  39
ENDBRANCH  31  33
ENDBRANCH   1  27
TORSDOF 10
ENDMDL
MODEL 9
REMARK VINA RESULT:      -8.3      3.555      5.315
REMARK  10 active torsions:
REMARK  status: ('A' for Active; 'I' for Inactive)
REMARK    1  A    between atoms: C_4  and  C_5 
REMARK    2  A    between atoms: C_8  and  O_9 
REMARK    3  A    between atoms: C_14  and  C_15 
REMARK    4  A    between atoms: C_18  and  C_19 
REMARK    5  A    between atoms: C_19  and  N_20 
REMARK    6  A    between atoms: N_20  and  C_21 
REMARK    7  A    between atoms: C_21  and  N_22 
REMARK    8  A    between atoms: N_22  and  C_23 
REMARK    9  A    between atoms: C_25  and  C_26 
REMARK   10  A    between atoms: C_26  and  O_27 
ROOT
HETATM    1  C   UNL     1      27.877  39.097  48.556  1.00  0.00     0.067 C 
HETATM    2  C   UNL     1      28.021  40.044  47.350  1.00  0.00     0.001 C 
HETATM    3  C   UNL     1      26.820  41.005  47.223  1.00  0.00     0.040 C 
HETATM    4  C   UNL     1      25.502  40.253  46.983  1.00  0.00     0.206 C 
HETATM    5  N   UNL     1      25.792  38.773  47.216  1.00  0.00    -0.065 N 
HETATM    6  H   UNL     1      24.910  38.242  47.177  1.00  0.00     0.280 HD
HETATM    7  C   UNL     1      26.444  38.521  48.579  1.00  0.00     0.246 C 
HETATM    8  C   UNL     1      27.968  39.144  46.086  1.00  0.00     0.033 C 
HETATM    9  C   UNL     1      26.707  38.266  46.106  1.00  0.00     0.236 C 
ENDROOT
BRANCH   4  10
HETATM   10  C   UNL     1      24.325  40.768  47.844  1.00  0.00     0.155 C 
BRANCH  10  11
HETATM   11  N   UNL     1      24.765  41.298  49.134  1.00  0.00    -0.365 N 
HETATM   12  H   UNL     1      25.590  40.874  49.549  1.00  0.00     0.161 HD
BRANCH  11  13
HETATM   13  C   UNL     1      24.555  42.569  49.595  1.00  0.00     0.172 C 
HETATM   14  S   UNL     1      23.059  43.279  49.811  1.00  0.00    -0.041 SA
BRANCH  13  15
HETATM   15  N   UNL     1      25.661  43.322  49.875  1.00  0.00    -0.333 N 
HETATM   16  H   UNL     1      26.516  42.902  49.519  1.00  0.00     0.168 HD
BRANCH  15  17
HETATM   17  C   UNL     1      25.812  44.614  50.425  1.00  0.00     0.035 A 
HETATM   18  C   UNL     1      25.821  44.885  51.793  1.00  0.00     0.047 A 
HETATM   19  C   UNL     1      25.958  46.199  52.273  1.00  0.00     0.041 A 
HETATM   20  C   UNL     1      26.057  47.258  51.367  1.00  0.00     0.018 A 
HETATM   21  C   UNL     1      26.013  47.000  49.997  1.00  0.00     0.003 A 
HETATM   22  C   UNL     1      25.889  45.687  49.531  1.00  0.00     0.029 A 
BRANCH  19  23
HETATM   23  C   UNL     1      25.995  46.391  53.748  1.00  0.00     0.293 C 
HETATM   24  O   UNL     1      25.300  45.742  54.517  1.00  0.00    -0.259 OA
BRANCH  23  25
HETATM   25  O   UNL     1      26.880  47.357  54.086  1.00  0.00    -0.323 OA
HETATM   26  C   UNL     1      26.514  48.114  55.240  1.00  0.00     0.213 C 
ENDBRANCH  23  25
ENDBRANCH  19  23
ENDBRANCH  15  17
ENDBRANCH  13  15
ENDBRANCH  11  13
ENDBRANCH  10  11
ENDBRANCH   4  10
BRANCH   1  27
HETATM   27  C   UNL     1      28.348  39.498  49.928  1.00  0.00     0.038 C 
HETATM   28  N   UNL     1      29.184  38.877  50.829  1.00  0.00    -0.277 N 
HETATM   29  C   UNL     1      29.788  37.567  50.828  1.00  0.00     0.179 C 
HETATM   30  N   UNL     1      29.495  39.654  51.880  1.00  0.00    -0.172 NA
HETATM   31  C   UNL     1      28.738  40.748  51.767  1.00  0.00     0.089 C 
HETATM   32  C   UNL     1      27.999  40.684  50.564  1.00  0.00     0.061 C 
BRANCH  31  33
HETATM   33  C   UNL     1      28.773  41.825  52.756  1.00  0.00    -0.005 A 
HETATM   34  C   UNL     1      27.611  42.197  53.442  1.00  0.00     0.016 A 
HETATM   35  C   UNL     1      27.651  43.192  54.423  1.00  0.00     0.037 A 
HETATM   36  C   UNL     1      28.849  43.835  54.735  1.00  0.00     0.068 A 
HETATM   37  C   UNL     1      30.006  43.496  54.036  1.00  0.00     0.037 A 
HETATM   38  C   UNL     1      29.968  42.496  53.053  1.00  0.00     0.016 A 
BRANCH  36  39
HETATM   39  O   UNL     1      28.757  44.773  55.725  1.00  0.00    -0.356 OA
HETATM   40  C   UNL     1      29.648  45.878  55.647  1.00  0.00     0.210 C 
ENDBRANCH  36  39
ENDBRANCH  31  33
ENDBRANCH   1  27
TORSDOF 10
ENDMDL
MODEL 10
REMARK VINA RESULT:      -8.2      3.301      5.098
REMARK  10 active torsions:
REMARK  status: ('A' for Active; 'I' for Inactive)
REMARK    1  A    between atoms: C_4  and  C_5 
REMARK    2  A    between atoms: C_8  and  O_9 
REMARK    3  A    between atoms: C_14  and  C_15 
REMARK    4  A    between atoms: C_18  and  C_19 
REMARK    5  A    between atoms: C_19  and  N_20 
REMARK    6  A    between atoms: N_20  and  C_21 
REMARK    7  A    between atoms: C_21  and  N_22 
REMARK    8  A    between atoms: N_22  and  C_23 
REMARK    9  A    between atoms: C_25  and  C_26 
REMARK   10  A    between atoms: C_26  and  O_27 
ROOT
HETATM    1  C   UNL     1      27.962  39.833  50.290  1.00  0.00     0.067 C 
HETATM    2  C   UNL     1      28.761  39.512  49.012  1.00  0.00     0.001 C 
HETATM    3  C   UNL     1      28.011  39.946  47.736  1.00  0.00     0.040 C 
HETATM    4  C   UNL     1      26.679  39.200  47.568  1.00  0.00     0.206 C 
HETATM    5  N   UNL     1      26.421  38.460  48.878  1.00  0.00    -0.065 N 
HETATM    6  H   UNL     1      25.482  38.037  48.852  1.00  0.00     0.280 HD
HETATM    7  C   UNL     1      26.494  39.394  50.090  1.00  0.00     0.246 C 
HETATM    8  C   UNL     1      28.850  37.964  48.937  1.00  0.00     0.033 C 
HETATM    9  C   UNL     1      27.448  37.342  49.026  1.00  0.00     0.236 C 
ENDROOT
BRANCH   4  10
HETATM   10  C   UNL     1      25.499  40.115  47.163  1.00  0.00     0.155 C 
BRANCH  10  11
HETATM   11  N   UNL     1      24.214  39.418  47.191  1.00  0.00    -0.365 N 
HETATM   12  H   UNL     1      24.155  38.585  47.770  1.00  0.00     0.161 HD
BRANCH  11  13
HETATM   13  C   UNL     1      22.987  39.984  46.980  1.00  0.00     0.172 C 
HETATM   14  S   UNL     1      21.540  39.152  46.928  1.00  0.00    -0.041 SA
BRANCH  13  15
HETATM   15  N   UNL     1      22.950  41.334  46.770  1.00  0.00    -0.333 N 
HETATM   16  H   UNL     1      23.010  41.575  45.784  1.00  0.00     0.168 HD
BRANCH  15  17
HETATM   17  C   UNL     1      22.703  42.420  47.637  1.00  0.00     0.035 A 
HETATM   18  C   UNL     1      22.240  43.667  47.217  1.00  0.00     0.047 A 
HETATM   19  C   UNL     1      22.033  44.712  48.133  1.00  0.00     0.041 A 
HETATM   20  C   UNL     1      22.323  44.513  49.486  1.00  0.00     0.018 A 
HETATM   21  C   UNL     1      22.820  43.280  49.910  1.00  0.00     0.003 A 
HETATM   22  C   UNL     1      23.010  42.244  48.990  1.00  0.00     0.029 A 
BRANCH  19  23
HETATM   23  C   UNL     1      21.502  45.996  47.601  1.00  0.00     0.293 C 
HETATM   24  O   UNL     1      22.161  46.742  46.891  1.00  0.00    -0.259 OA
BRANCH  23  25
HETATM   25  O   UNL     1      20.229  46.199  48.014  1.00  0.00    -0.323 OA
HETATM   26  C   UNL     1      20.034  47.403  48.757  1.00  0.00     0.213 C 
ENDBRANCH  23  25
ENDBRANCH  19  23
ENDBRANCH  15  17
ENDBRANCH  13  15
ENDBRANCH  11  13
ENDBRANCH  10  11
ENDBRANCH   4  10
BRANCH   1  27
HETATM   27  C   UNL     1      28.064  41.175  50.963  1.00  0.00     0.038 C 
HETATM   28  N   UNL     1      27.508  42.397  50.661  1.00  0.00    -0.277 N 
HETATM   29  C   UNL     1      26.746  42.847  49.521  1.00  0.00     0.179 C 
HETATM   30  N   UNL     1      27.706  43.316  51.620  1.00  0.00    -0.172 NA
HETATM   31  C   UNL     1      28.535  42.756  52.503  1.00  0.00     0.089 C 
HETATM   32  C   UNL     1      28.791  41.419  52.122  1.00  0.00     0.061 C 
BRANCH  31  33
HETATM   33  C   UNL     1      29.013  43.471  53.687  1.00  0.00    -0.005 A 
HETATM   34  C   UNL     1      30.185  43.067  54.335  1.00  0.00     0.016 A 
HETATM   35  C   UNL     1      30.670  43.778  55.437  1.00  0.00     0.037 A 
HETATM   36  C   UNL     1      29.995  44.902  55.912  1.00  0.00     0.068 A 
HETATM   37  C   UNL     1      28.809  45.295  55.293  1.00  0.00     0.037 A 
HETATM   38  C   UNL     1      28.322  44.584  54.186  1.00  0.00     0.016 A 
BRANCH  36  39
HETATM   39  O   UNL     1      30.584  45.518  56.980  1.00  0.00    -0.356 OA
HETATM   40  C   UNL     1      29.723  45.957  58.022  1.00  0.00     0.210 C 
ENDBRANCH  36  39
ENDBRANCH  31  33
ENDBRANCH   1  27
TORSDOF 10
ENDMDL
