MODEL 1
REMARK VINA RESULT:      -7.5      0.000      0.000
REMARK  8 active torsions:
REMARK  status: ('A' for Active; 'I' for Inactive)
REMARK    1  A    between atoms: N_4  and  C_5 
REMARK    2  A    between atoms: C_5  and  C_6 
REMARK    3  A    between atoms: C_6  and  C_7 
REMARK       I    between atoms: C_7  and  N_8 
REMARK    4  A    between atoms: N_8  and  N_9 
REMARK    5  A    between atoms: N_9  and  C_10 
REMARK    6  A    between atoms: C_10  and  N_11 
REMARK    7  A    between atoms: N_11  and  C_12 
REMARK    8  A    between atoms: C_13  and  O_14 
ROOT
HETATM    1  C   UNL     1      28.519  41.005  52.790  1.00  0.00     0.237 C 
HETATM    2  N   UNL     1      27.143  41.104  52.757  1.00  0.00    -0.268 N 
HETATM    3  O   UNL     1      29.169  40.455  51.904  1.00  0.00    -0.272 OA
HETATM    4  H   UNL     1      26.629  41.742  53.363  1.00  0.00     0.190 HD
ENDROOT
BRANCH   2   5
HETATM    5  N   UNL     1      26.489  40.704  51.576  1.00  0.00    -0.274 N 
HETATM    6  H   UNL     1      26.769  39.778  51.251  1.00  0.00     0.189 HD
BRANCH   5   7
HETATM    7  C   UNL     1      26.107  41.651  50.621  1.00  0.00     0.191 C 
HETATM    8  S   UNL     1      26.727  41.646  49.063  1.00  0.00    -0.039 SA
BRANCH   7   9
HETATM    9  N   UNL     1      25.241  42.566  51.194  1.00  0.00    -0.330 N 
HETATM   10  H   UNL     1      24.563  42.163  51.835  1.00  0.00     0.168 HD
BRANCH   9  11
HETATM   11  C   UNL     1      25.204  43.982  51.221  1.00  0.00     0.068 A 
HETATM   12  C   UNL     1      25.580  44.593  52.440  1.00  0.00     0.095 A 
HETATM   13  C   UNL     1      25.548  45.985  52.563  1.00  0.00     0.039 A 
HETATM   14  C   UNL     1      25.136  46.773  51.488  1.00  0.00     0.003 A 
HETATM   15  C   UNL     1      24.745  46.174  50.295  1.00  0.00     0.002 A 
HETATM   16  C   UNL     1      24.772  44.783  50.164  1.00  0.00     0.032 A 
BRANCH  12  17
HETATM   17  O   UNL     1      25.957  43.724  53.442  1.00  0.00    -0.354 OA
HETATM   18  C   UNL     1      25.415  43.959  54.737  1.00  0.00     0.210 C 
ENDBRANCH  12  17
ENDBRANCH   9  11
ENDBRANCH   7   9
ENDBRANCH   5   7
ENDBRANCH   2   5
BRANCH   1  19
HETATM   19  C   UNL     1      29.133  41.664  53.997  1.00  0.00     0.126 C 
BRANCH  19  20
HETATM   20  C   UNL     1      29.869  42.934  53.594  1.00  0.00     0.160 C 
BRANCH  20  21
HETATM   21  N   UNL     1      29.692  43.989  54.578  1.00  0.00    -0.272 N 
HETATM   22  N   UNL     1      28.811  44.973  54.303  1.00  0.00    -0.176 NA
HETATM   23  C   UNL     1      28.866  45.776  55.372  1.00  0.00     0.070 A 
HETATM   24  C   UNL     1      28.014  46.988  55.438  1.00  0.00     0.074 C 
HETATM   25  C   UNL     1      29.788  45.290  56.318  1.00  0.00     0.060 A 
HETATM   26  C   UNL     1      30.322  44.138  55.789  1.00  0.00     0.046 A 
HETATM   27 BR   UNL     1      30.175  46.092  57.967  1.00  0.00    -0.047 Br
HETATM   28  C   UNL     1      31.334  43.189  56.314  1.00  0.00     0.071 C 
ENDBRANCH  20  21
ENDBRANCH  19  20
ENDBRANCH   1  19
TORSDOF 8
ENDMDL
MODEL 2
REMARK VINA RESULT:      -7.4      3.225      4.676
REMARK  8 active torsions:
REMARK  status: ('A' for Active; 'I' for Inactive)
REMARK    1  A    between atoms: N_4  and  C_5 
REMARK    2  A    between atoms: C_5  and  C_6 
REMARK    3  A    between atoms: C_6  and  C_7 
REMARK       I    between atoms: C_7  and  N_8 
REMARK    4  A    between atoms: N_8  and  N_9 
REMARK    5  A    between atoms: N_9  and  C_10 
REMARK    6  A    between atoms: C_10  and  N_11 
REMARK    7  A    between atoms: N_11  and  C_12 
REMARK    8  A    between atoms: C_13  and  O_14 
ROOT
HETATM    1  C   UNL     1      24.913  44.562  52.033  1.00  0.00     0.237 C 
HETATM    2  N   UNL     1      25.016  45.564  51.090  1.00  0.00    -0.268 N 
HETATM    3  O   UNL     1      24.486  43.440  51.769  1.00  0.00    -0.272 OA
HETATM    4  H   UNL     1      25.568  46.406  51.250  1.00  0.00     0.190 HD
ENDROOT
BRANCH   2   5
HETATM    5  N   UNL     1      24.777  45.222  49.747  1.00  0.00    -0.274 N 
HETATM    6  H   UNL     1      25.625  45.183  49.180  1.00  0.00     0.189 HD
BRANCH   5   7
HETATM    7  C   UNL     1      23.582  45.596  49.122  1.00  0.00     0.191 C 
HETATM    8  S   UNL     1      22.834  44.625  47.977  1.00  0.00    -0.039 SA
BRANCH   7   9
HETATM    9  N   UNL     1      23.210  46.859  49.548  1.00  0.00    -0.330 N 
HETATM   10  H   UNL     1      22.999  46.926  50.540  1.00  0.00     0.168 HD
BRANCH   9  11
HETATM   11  C   UNL     1      23.229  48.135  48.933  1.00  0.00     0.068 A 
HETATM   12  C   UNL     1      24.398  48.907  49.134  1.00  0.00     0.095 A 
HETATM   13  C   UNL     1      24.493  50.189  48.584  1.00  0.00     0.039 A 
HETATM   14  C   UNL     1      23.432  50.713  47.845  1.00  0.00     0.003 A 
HETATM   15  C   UNL     1      22.272  49.964  47.664  1.00  0.00     0.002 A 
HETATM   16  C   UNL     1      22.169  48.683  48.212  1.00  0.00     0.032 A 
BRANCH  12  17
HETATM   17  O   UNL     1      25.379  48.302  49.890  1.00  0.00    -0.354 OA
HETATM   18  C   UNL     1      26.712  48.375  49.395  1.00  0.00     0.210 C 
ENDBRANCH  12  17
ENDBRANCH   9  11
ENDBRANCH   7   9
ENDBRANCH   5   7
ENDBRANCH   2   5
BRANCH   1  19
HETATM   19  C   UNL     1      25.406  44.974  53.396  1.00  0.00     0.126 C 
BRANCH  19  20
HETATM   20  C   UNL     1      26.622  45.881  53.271  1.00  0.00     0.160 C 
BRANCH  20  21
HETATM   21  N   UNL     1      27.676  45.492  54.193  1.00  0.00    -0.272 N 
HETATM   22  N   UNL     1      27.780  46.164  55.358  1.00  0.00    -0.176 NA
HETATM   23  C   UNL     1      28.817  45.589  55.980  1.00  0.00     0.070 A 
HETATM   24  C   UNL     1      29.238  46.065  57.320  1.00  0.00     0.074 C 
HETATM   25  C   UNL     1      29.363  44.556  55.196  1.00  0.00     0.060 A 
HETATM   26  C   UNL     1      28.621  44.508  54.038  1.00  0.00     0.046 A 
HETATM   27 BR   UNL     1      30.817  43.479  55.682  1.00  0.00    -0.047 Br
HETATM   28  C   UNL     1      28.716  43.636  52.842  1.00  0.00     0.071 C 
ENDBRANCH  20  21
ENDBRANCH  19  20
ENDBRANCH   1  19
TORSDOF 8
ENDMDL
MODEL 3
REMARK VINA RESULT:      -7.3      3.442      7.181
REMARK  8 active torsions:
REMARK  status: ('A' for Active; 'I' for Inactive)
REMARK    1  A    between atoms: N_4  and  C_5 
REMARK    2  A    between atoms: C_5  and  C_6 
REMARK    3  A    between atoms: C_6  and  C_7 
REMARK       I    between atoms: C_7  and  N_8 
REMARK    4  A    between atoms: N_8  and  N_9 
REMARK    5  A    between atoms: N_9  and  C_10 
REMARK    6  A    between atoms: C_10  and  N_11 
REMARK    7  A    between atoms: N_11  and  C_12 
REMARK    8  A    between atoms: C_13  and  O_14 
ROOT
HETATM    1  C   UNL     1      25.307  44.651  52.421  1.00  0.00     0.237 C 
HETATM    2  N   UNL     1      25.823  43.382  52.592  1.00  0.00    -0.268 N 
HETATM    3  O   UNL     1      25.500  45.563  53.222  1.00  0.00    -0.272 OA
HETATM    4  H   UNL     1      25.852  42.701  51.835  1.00  0.00     0.190 HD
ENDROOT
BRANCH   2   5
HETATM    5  N   UNL     1      26.741  43.188  53.641  1.00  0.00    -0.274 N 
HETATM    6  H   UNL     1      26.620  43.844  54.414  1.00  0.00     0.189 HD
BRANCH   5   7
HETATM    7  C   UNL     1      28.029  42.710  53.377  1.00  0.00     0.191 C 
HETATM    8  S   UNL     1      28.303  41.156  52.810  1.00  0.00    -0.039 SA
BRANCH   7   9
HETATM    9  N   UNL     1      28.961  43.673  53.719  1.00  0.00    -0.330 N 
HETATM   10  H   UNL     1      29.112  44.388  53.012  1.00  0.00     0.168 HD
BRANCH   9  11
HETATM   11  C   UNL     1      29.633  43.988  54.926  1.00  0.00     0.068 A 
HETATM   12  C   UNL     1      29.267  45.207  55.545  1.00  0.00     0.095 A 
HETATM   13  C   UNL     1      29.897  45.608  56.726  1.00  0.00     0.039 A 
HETATM   14  C   UNL     1      30.893  44.813  57.292  1.00  0.00     0.003 A 
HETATM   15  C   UNL     1      31.270  43.624  56.675  1.00  0.00     0.002 A 
HETATM   16  C   UNL     1      30.647  43.216  55.492  1.00  0.00     0.032 A 
BRANCH  12  17
HETATM   17  O   UNL     1      28.283  45.922  54.896  1.00  0.00    -0.354 OA
HETATM   18  C   UNL     1      27.749  47.050  55.580  1.00  0.00     0.210 C 
ENDBRANCH  12  17
ENDBRANCH   9  11
ENDBRANCH   7   9
ENDBRANCH   5   7
ENDBRANCH   2   5
BRANCH   1  19
HETATM   19  C   UNL     1      24.519  44.806  51.147  1.00  0.00     0.126 C 
BRANCH  19  20
HETATM   20  C   UNL     1      25.315  45.600  50.121  1.00  0.00     0.160 C 
BRANCH  20  21
HETATM   21  N   UNL     1      24.551  46.725  49.607  1.00  0.00    -0.272 N 
HETATM   22  N   UNL     1      23.244  46.534  49.335  1.00  0.00    -0.176 NA
HETATM   23  C   UNL     1      22.821  47.724  48.890  1.00  0.00     0.070 A 
HETATM   24  C   UNL     1      21.405  47.909  48.490  1.00  0.00     0.074 C 
HETATM   25  C   UNL     1      23.873  48.660  48.882  1.00  0.00     0.060 A 
HETATM   26  C   UNL     1      24.989  47.999  49.341  1.00  0.00     0.046 A 
HETATM   27 BR   UNL     1      23.727  50.449  48.347  1.00  0.00    -0.047 Br
HETATM   28  C   UNL     1      26.385  48.453  49.553  1.00  0.00     0.071 C 
ENDBRANCH  20  21
ENDBRANCH  19  20
ENDBRANCH   1  19
TORSDOF 8
ENDMDL
MODEL 4
REMARK VINA RESULT:      -7.3      3.596      5.114
REMARK  8 active torsions:
REMARK  status: ('A' for Active; 'I' for Inactive)
REMARK    1  A    between atoms: N_4  and  C_5 
REMARK    2  A    between atoms: C_5  and  C_6 
REMARK    3  A    between atoms: C_6  and  C_7 
REMARK       I    between atoms: C_7  and  N_8 
REMARK    4  A    between atoms: N_8  and  N_9 
REMARK    5  A    between atoms: N_9  and  C_10 
REMARK    6  A    between atoms: C_10  and  N_11 
REMARK    7  A    between atoms: N_11  and  C_12 
REMARK    8  A    between atoms: C_13  and  O_14 
ROOT
HETATM    1  C   UNL     1      25.960  46.729  53.274  1.00  0.00     0.237 C 
HETATM    2  N   UNL     1      26.073  46.275  51.976  1.00  0.00    -0.268 N 
HETATM    3  O   UNL     1      25.435  47.803  53.561  1.00  0.00    -0.272 OA
HETATM    4  H   UNL     1      26.300  45.306  51.757  1.00  0.00     0.190 HD
ENDROOT
BRANCH   2   5
HETATM    5  N   UNL     1      25.407  47.001  50.971  1.00  0.00    -0.274 N 
HETATM    6  H   UNL     1      25.266  47.984  51.206  1.00  0.00     0.189 HD
BRANCH   5   7
HETATM    7  C   UNL     1      24.460  46.375  50.154  1.00  0.00     0.191 C 
HETATM    8  S   UNL     1      23.932  44.809  50.439  1.00  0.00    -0.039 SA
BRANCH   7   9
HETATM    9  N   UNL     1      24.127  47.213  49.104  1.00  0.00    -0.330 N 
HETATM   10  H   UNL     1      24.429  46.886  48.189  1.00  0.00     0.168 HD
BRANCH   9  11
HETATM   11  C   UNL     1      23.294  48.354  48.999  1.00  0.00     0.068 A 
HETATM   12  C   UNL     1      23.952  49.606  48.970  1.00  0.00     0.095 A 
HETATM   13  C   UNL     1      23.207  50.786  48.894  1.00  0.00     0.039 A 
HETATM   14  C   UNL     1      21.814  50.732  48.856  1.00  0.00     0.003 A 
HETATM   15  C   UNL     1      21.163  49.503  48.905  1.00  0.00     0.002 A 
HETATM   16  C   UNL     1      21.900  48.318  48.984  1.00  0.00     0.032 A 
BRANCH  12  17
HETATM   17  O   UNL     1      25.328  49.548  49.027  1.00  0.00    -0.354 OA
HETATM   18  C   UNL     1      26.042  50.043  47.899  1.00  0.00     0.210 C 
ENDBRANCH  12  17
ENDBRANCH   9  11
ENDBRANCH   7   9
ENDBRANCH   5   7
ENDBRANCH   2   5
BRANCH   1  19
HETATM   19  C   UNL     1      26.513  45.766  54.292  1.00  0.00     0.126 C 
BRANCH  19  20
HETATM   20  C   UNL     1      27.792  45.123  53.777  1.00  0.00     0.160 C 
BRANCH  20  21
HETATM   21  N   UNL     1      28.769  44.950  54.839  1.00  0.00    -0.272 N 
HETATM   22  N   UNL     1      28.756  45.827  55.863  1.00  0.00    -0.176 NA
HETATM   23  C   UNL     1      29.746  45.416  56.665  1.00  0.00     0.070 A 
HETATM   24  C   UNL     1      30.037  46.146  57.922  1.00  0.00     0.074 C 
HETATM   25  C   UNL     1      30.380  44.276  56.135  1.00  0.00     0.060 A 
HETATM   26  C   UNL     1      29.744  43.989  54.950  1.00  0.00     0.046 A 
HETATM   27 BR   UNL     1      31.807  43.361  56.933  1.00  0.00    -0.047 Br
HETATM   28  C   UNL     1      29.962  42.916  53.949  1.00  0.00     0.071 C 
ENDBRANCH  20  21
ENDBRANCH  19  20
ENDBRANCH   1  19
TORSDOF 8
ENDMDL
MODEL 5
REMARK VINA RESULT:      -7.3     13.661     15.406
REMARK  8 active torsions:
REMARK  status: ('A' for Active; 'I' for Inactive)
REMARK    1  A    between atoms: N_4  and  C_5 
REMARK    2  A    between atoms: C_5  and  C_6 
REMARK    3  A    between atoms: C_6  and  C_7 
REMARK       I    between atoms: C_7  and  N_8 
REMARK    4  A    between atoms: N_8  and  N_9 
REMARK    5  A    between atoms: N_9  and  C_10 
REMARK    6  A    between atoms: C_10  and  N_11 
REMARK    7  A    between atoms: N_11  and  C_12 
REMARK    8  A    between atoms: C_13  and  O_14 
ROOT
HETATM    1  C   UNL     1      28.068  51.342  41.314  1.00  0.00     0.237 C 
HETATM    2  N   UNL     1      27.003  51.347  40.437  1.00  0.00    -0.268 N 
HETATM    3  O   UNL     1      28.330  50.385  42.040  1.00  0.00    -0.272 OA
HETATM    4  H   UNL     1      26.918  52.034  39.689  1.00  0.00     0.190 HD
ENDROOT
BRANCH   2   5
HETATM    5  N   UNL     1      26.302  50.140  40.257  1.00  0.00    -0.274 N 
HETATM    6  H   UNL     1      26.504  49.442  40.973  1.00  0.00     0.189 HD
BRANCH   5   7
HETATM    7  C   UNL     1      25.978  49.692  38.972  1.00  0.00     0.191 C 
HETATM    8  S   UNL     1      24.398  49.654  38.413  1.00  0.00    -0.039 SA
BRANCH   7   9
HETATM    9  N   UNL     1      27.124  49.253  38.332  1.00  0.00    -0.330 N 
HETATM   10  H   UNL     1      27.130  49.401  37.326  1.00  0.00     0.168 HD
BRANCH   9  11
HETATM   11  C   UNL     1      28.381  48.796  38.798  1.00  0.00     0.068 A 
HETATM   12  C   UNL     1      29.473  49.676  38.612  1.00  0.00     0.095 A 
HETATM   13  C   UNL     1      30.755  49.296  39.019  1.00  0.00     0.039 A 
HETATM   14  C   UNL     1      30.962  48.045  39.600  1.00  0.00     0.003 A 
HETATM   15  C   UNL     1      29.893  47.168  39.765  1.00  0.00     0.002 A 
HETATM   16  C   UNL     1      28.609  47.539  39.358  1.00  0.00     0.032 A 
BRANCH  12  17
HETATM   17  O   UNL     1      29.163  50.880  38.017  1.00  0.00    -0.354 OA
HETATM   18  C   UNL     1      30.250  51.736  37.686  1.00  0.00     0.210 C 
ENDBRANCH  12  17
ENDBRANCH   9  11
ENDBRANCH   7   9
ENDBRANCH   5   7
ENDBRANCH   2   5
BRANCH   1  19
HETATM   19  C   UNL     1      28.885  52.607  41.264  1.00  0.00     0.126 C 
BRANCH  19  20
HETATM   20  C   UNL     1      29.991  52.569  42.309  1.00  0.00     0.160 C 
BRANCH  20  21
HETATM   21  N   UNL     1      31.261  52.166  41.729  1.00  0.00    -0.272 N 
HETATM   22  N   UNL     1      31.779  52.927  40.744  1.00  0.00    -0.176 NA
HETATM   23  C   UNL     1      32.927  52.318  40.422  1.00  0.00     0.070 A 
HETATM   24  C   UNL     1      33.795  52.878  39.359  1.00  0.00     0.074 C 
HETATM   25  C   UNL     1      33.123  51.169  41.212  1.00  0.00     0.060 A 
HETATM   26  C   UNL     1      32.034  51.077  42.048  1.00  0.00     0.046 A 
HETATM   27 BR   UNL     1      34.601  50.022  41.108  1.00  0.00    -0.047 Br
HETATM   28  C   UNL     1      31.677  50.090  43.095  1.00  0.00     0.071 C 
ENDBRANCH  20  21
ENDBRANCH  19  20
ENDBRANCH   1  19
TORSDOF 8
ENDMDL
MODEL 6
REMARK VINA RESULT:      -7.2      5.554      7.126
REMARK  8 active torsions:
REMARK  status: ('A' for Active; 'I' for Inactive)
REMARK    1  A    between atoms: N_4  and  C_5 
REMARK    2  A    between atoms: C_5  and  C_6 
REMARK    3  A    between atoms: C_6  and  C_7 
REMARK       I    between atoms: C_7  and  N_8 
REMARK    4  A    between atoms: N_8  and  N_9 
REMARK    5  A    between atoms: N_9  and  C_10 
REMARK    6  A    between atoms: C_10  and  N_11 
REMARK    7  A    between atoms: N_11  and  C_12 
REMARK    8  A    between atoms: C_13  and  O_14 
ROOT
HETATM    1  C   UNL     1      24.631  46.398  50.146  1.00  0.00     0.237 C 
HETATM    2  N   UNL     1      23.953  47.571  50.412  1.00  0.00    -0.268 N 
HETATM    3  O   UNL     1      24.265  45.596  49.291  1.00  0.00    -0.272 OA
HETATM    4  H   UNL     1      24.370  48.329  50.952  1.00  0.00     0.190 HD
ENDROOT
BRANCH   2   5
HETATM    5  N   UNL     1      22.902  47.927  49.547  1.00  0.00    -0.274 N 
HETATM    6  H   UNL     1      22.739  47.246  48.804  1.00  0.00     0.189 HD
BRANCH   5   7
HETATM    7  C   UNL     1      22.627  49.272  49.281  1.00  0.00     0.191 C 
HETATM    8  S   UNL     1      23.717  50.263  48.480  1.00  0.00    -0.039 SA
BRANCH   7   9
HETATM    9  N   UNL     1      21.404  49.614  49.832  1.00  0.00    -0.330 N 
HETATM   10  H   UNL     1      21.207  49.176  50.728  1.00  0.00     0.168 HD
BRANCH   9  11
HETATM   11  C   UNL     1      20.430  50.588  49.503  1.00  0.00     0.068 A 
HETATM   12  C   UNL     1      19.237  50.560  50.264  1.00  0.00     0.095 A 
HETATM   13  C   UNL     1      18.212  51.469  49.991  1.00  0.00     0.039 A 
HETATM   14  C   UNL     1      18.358  52.399  48.962  1.00  0.00     0.003 A 
HETATM   15  C   UNL     1      19.521  52.415  48.197  1.00  0.00     0.002 A 
HETATM   16  C   UNL     1      20.550  51.508  48.462  1.00  0.00     0.032 A 
BRANCH  12  17
HETATM   17  O   UNL     1      19.190  49.594  51.247  1.00  0.00    -0.354 OA
HETATM   18  C   UNL     1      18.351  48.470  51.007  1.00  0.00     0.210 C 
ENDBRANCH  12  17
ENDBRANCH   9  11
ENDBRANCH   7   9
ENDBRANCH   5   7
ENDBRANCH   2   5
BRANCH   1  19
HETATM   19  C   UNL     1      25.871  46.225  50.985  1.00  0.00     0.126 C 
BRANCH  19  20
HETATM   20  C   UNL     1      25.534  46.336  52.464  1.00  0.00     0.160 C 
BRANCH  20  21
HETATM   21  N   UNL     1      26.639  45.895  53.299  1.00  0.00    -0.272 N 
HETATM   22  N   UNL     1      27.271  44.751  52.964  1.00  0.00    -0.176 NA
HETATM   23  C   UNL     1      28.221  44.612  53.897  1.00  0.00     0.070 A 
HETATM   24  C   UNL     1      29.141  43.450  53.855  1.00  0.00     0.074 C 
HETATM   25  C   UNL     1      28.179  45.675  54.819  1.00  0.00     0.060 A 
HETATM   26  C   UNL     1      27.145  46.494  54.426  1.00  0.00     0.046 A 
HETATM   27 BR   UNL     1      29.332  45.889  56.279  1.00  0.00    -0.047 Br
HETATM   28  C   UNL     1      26.618  47.757  54.996  1.00  0.00     0.071 C 
ENDBRANCH  20  21
ENDBRANCH  19  20
ENDBRANCH   1  19
TORSDOF 8
ENDMDL
MODEL 7
REMARK VINA RESULT:      -7.2      2.034      3.205
REMARK  8 active torsions:
REMARK  status: ('A' for Active; 'I' for Inactive)
REMARK    1  A    between atoms: N_4  and  C_5 
REMARK    2  A    between atoms: C_5  and  C_6 
REMARK    3  A    between atoms: C_6  and  C_7 
REMARK       I    between atoms: C_7  and  N_8 
REMARK    4  A    between atoms: N_8  and  N_9 
REMARK    5  A    between atoms: N_9  and  C_10 
REMARK    6  A    between atoms: C_10  and  N_11 
REMARK    7  A    between atoms: N_11  and  C_12 
REMARK    8  A    between atoms: C_13  and  O_14 
ROOT
HETATM    1  C   UNL     1      25.751  44.058  53.107  1.00  0.00     0.237 C 
HETATM    2  N   UNL     1      26.317  43.059  52.341  1.00  0.00    -0.268 N 
HETATM    3  O   UNL     1      24.705  44.624  52.798  1.00  0.00    -0.272 OA
HETATM    4  H   UNL     1      27.048  42.446  52.700  1.00  0.00     0.190 HD
ENDROOT
BRANCH   2   5
HETATM    5  N   UNL     1      25.567  42.566  51.257  1.00  0.00    -0.274 N 
HETATM    6  H   UNL     1      24.951  41.793  51.507  1.00  0.00     0.189 HD
BRANCH   5   7
HETATM    7  C   UNL     1      26.090  42.600  49.959  1.00  0.00     0.191 C 
HETATM    8  S   UNL     1      27.263  41.519  49.443  1.00  0.00    -0.039 SA
BRANCH   7   9
HETATM    9  N   UNL     1      25.542  43.665  49.266  1.00  0.00    -0.330 N 
HETATM   10  H   UNL     1      24.913  43.401  48.512  1.00  0.00     0.168 HD
BRANCH   9  11
HETATM   11  C   UNL     1      25.528  45.064  49.490  1.00  0.00     0.068 A 
HETATM   12  C   UNL     1      24.259  45.689  49.447  1.00  0.00     0.095 A 
HETATM   13  C   UNL     1      24.154  47.071  49.632  1.00  0.00     0.039 A 
HETATM   14  C   UNL     1      25.299  47.836  49.849  1.00  0.00     0.003 A 
HETATM   15  C   UNL     1      26.551  47.227  49.871  1.00  0.00     0.002 A 
HETATM   16  C   UNL     1      26.665  45.847  49.684  1.00  0.00     0.032 A 
BRANCH  12  17
HETATM   17  O   UNL     1      23.195  44.845  49.212  1.00  0.00    -0.354 OA
HETATM   18  C   UNL     1      22.066  45.399  48.546  1.00  0.00     0.210 C 
ENDBRANCH  12  17
ENDBRANCH   9  11
ENDBRANCH   7   9
ENDBRANCH   5   7
ENDBRANCH   2   5
BRANCH   1  19
HETATM   19  C   UNL     1      26.527  44.354  54.364  1.00  0.00     0.126 C 
BRANCH  19  20
HETATM   20  C   UNL     1      27.777  45.159  54.042  1.00  0.00     0.160 C 
BRANCH  20  21
HETATM   21  N   UNL     1      28.806  44.977  55.053  1.00  0.00    -0.272 N 
HETATM   22  N   UNL     1      28.850  45.852  56.079  1.00  0.00    -0.176 NA
HETATM   23  C   UNL     1      29.877  45.432  56.828  1.00  0.00     0.070 A 
HETATM   24  C   UNL     1      30.237  46.156  58.071  1.00  0.00     0.074 C 
HETATM   25  C   UNL     1      30.477  44.290  56.264  1.00  0.00     0.060 A 
HETATM   26  C   UNL     1      29.780  44.010  55.111  1.00  0.00     0.046 A 
HETATM   27 BR   UNL     1      31.937  43.364  56.985  1.00  0.00    -0.047 Br
HETATM   28  C   UNL     1      29.940  42.939  54.098  1.00  0.00     0.071 C 
ENDBRANCH  20  21
ENDBRANCH  19  20
ENDBRANCH   1  19
TORSDOF 8
ENDMDL
MODEL 8
REMARK VINA RESULT:      -7.0      2.880      5.234
REMARK  8 active torsions:
REMARK  status: ('A' for Active; 'I' for Inactive)
REMARK    1  A    between atoms: N_4  and  C_5 
REMARK    2  A    between atoms: C_5  and  C_6 
REMARK    3  A    between atoms: C_6  and  C_7 
REMARK       I    between atoms: C_7  and  N_8 
REMARK    4  A    between atoms: N_8  and  N_9 
REMARK    5  A    between atoms: N_9  and  C_10 
REMARK    6  A    between atoms: C_10  and  N_11 
REMARK    7  A    between atoms: N_11  and  C_12 
REMARK    8  A    between atoms: C_13  and  O_14 
ROOT
HETATM    1  C   UNL     1      27.735  41.941  52.555  1.00  0.00     0.237 C 
HETATM    2  N   UNL     1      27.681  40.743  51.870  1.00  0.00    -0.268 N 
HETATM    3  O   UNL     1      26.755  42.667  52.705  1.00  0.00    -0.272 OA
HETATM    4  H   UNL     1      28.422  40.046  51.936  1.00  0.00     0.190 HD
ENDROOT
BRANCH   2   5
HETATM    5  N   UNL     1      26.414  40.271  51.481  1.00  0.00    -0.274 N 
HETATM    6  H   UNL     1      26.104  39.455  52.011  1.00  0.00     0.189 HD
BRANCH   5   7
HETATM    7  C   UNL     1      25.986  40.399  50.156  1.00  0.00     0.191 C 
HETATM    8  S   UNL     1      25.391  41.844  49.547  1.00  0.00    -0.039 SA
BRANCH   7   9
HETATM    9  N   UNL     1      26.074  39.174  49.519  1.00  0.00    -0.330 N 
HETATM   10  H   UNL     1      25.362  38.502  49.793  1.00  0.00     0.168 HD
BRANCH   9  11
HETATM   11  C   UNL     1      26.841  38.702  48.426  1.00  0.00     0.068 A 
HETATM   12  C   UNL     1      28.096  38.131  48.745  1.00  0.00     0.095 A 
HETATM   13  C   UNL     1      28.931  37.662  47.726  1.00  0.00     0.039 A 
HETATM   14  C   UNL     1      28.532  37.765  46.393  1.00  0.00     0.003 A 
HETATM   15  C   UNL     1      27.308  38.345  46.075  1.00  0.00     0.002 A 
HETATM   16  C   UNL     1      26.469  38.819  47.087  1.00  0.00     0.032 A 
BRANCH  12  17
HETATM   17  O   UNL     1      28.399  38.090  50.089  1.00  0.00    -0.354 OA
HETATM   18  C   UNL     1      29.778  38.078  50.440  1.00  0.00     0.210 C 
ENDBRANCH  12  17
ENDBRANCH   9  11
ENDBRANCH   7   9
ENDBRANCH   5   7
ENDBRANCH   2   5
BRANCH   1  19
HETATM   19  C   UNL     1      29.098  42.242  53.120  1.00  0.00     0.126 C 
BRANCH  19  20
HETATM   20  C   UNL     1      29.273  43.740  53.320  1.00  0.00     0.160 C 
BRANCH  20  21
HETATM   21  N   UNL     1      29.799  44.046  54.640  1.00  0.00    -0.272 N 
HETATM   22  N   UNL     1      30.730  43.220  55.160  1.00  0.00    -0.176 NA
HETATM   23  C   UNL     1      31.014  43.752  56.355  1.00  0.00     0.070 A 
HETATM   24  C   UNL     1      32.021  43.110  57.235  1.00  0.00     0.074 C 
HETATM   25  C   UNL     1      30.254  44.915  56.581  1.00  0.00     0.060 A 
HETATM   26  C   UNL     1      29.465  45.090  55.467  1.00  0.00     0.046 A 
HETATM   27 BR   UNL     1      30.340  45.984  58.117  1.00  0.00    -0.047 Br
HETATM   28  C   UNL     1      28.465  46.129  55.122  1.00  0.00     0.071 C 
ENDBRANCH  20  21
ENDBRANCH  19  20
ENDBRANCH   1  19
TORSDOF 8
ENDMDL
MODEL 9
REMARK VINA RESULT:      -7.0      5.786      7.395
REMARK  8 active torsions:
REMARK  status: ('A' for Active; 'I' for Inactive)
REMARK    1  A    between atoms: N_4  and  C_5 
REMARK    2  A    between atoms: C_5  and  C_6 
REMARK    3  A    between atoms: C_6  and  C_7 
REMARK       I    between atoms: C_7  and  N_8 
REMARK    4  A    between atoms: N_8  and  N_9 
REMARK    5  A    between atoms: N_9  and  C_10 
REMARK    6  A    between atoms: C_10  and  N_11 
REMARK    7  A    between atoms: N_11  and  C_12 
REMARK    8  A    between atoms: C_13  and  O_14 
ROOT
HETATM    1  C   UNL     1      24.936  47.470  49.987  1.00  0.00     0.237 C 
HETATM    2  N   UNL     1      23.597  47.187  49.813  1.00  0.00    -0.268 N 
HETATM    3  O   UNL     1      25.423  48.571  49.739  1.00  0.00    -0.272 OA
HETATM    4  H   UNL     1      23.158  46.363  50.221  1.00  0.00     0.190 HD
ENDROOT
BRANCH   2   5
HETATM    5  N   UNL     1      22.740  48.258  49.500  1.00  0.00    -0.274 N 
HETATM    6  H   UNL     1      22.892  49.084  50.081  1.00  0.00     0.189 HD
BRANCH   5   7
HETATM    7  C   UNL     1      21.448  48.017  49.022  1.00  0.00     0.191 C 
HETATM    8  S   UNL     1      21.147  46.947  47.766  1.00  0.00    -0.039 SA
BRANCH   7   9
HETATM    9  N   UNL     1      20.547  48.828  49.690  1.00  0.00    -0.330 N 
HETATM   10  H   UNL     1      20.512  48.684  50.696  1.00  0.00     0.168 HD
BRANCH   9  11
HETATM   11  C   UNL     1      19.779  49.952  49.299  1.00  0.00     0.068 A 
HETATM   12  C   UNL     1      18.387  49.738  49.155  1.00  0.00     0.095 A 
HETATM   13  C   UNL     1      17.557  50.786  48.748  1.00  0.00     0.039 A 
HETATM   14  C   UNL     1      18.099  52.042  48.474  1.00  0.00     0.003 A 
HETATM   15  C   UNL     1      19.470  52.250  48.594  1.00  0.00     0.002 A 
HETATM   16  C   UNL     1      20.308  51.207  48.998  1.00  0.00     0.032 A 
BRANCH  12  17
HETATM   17  O   UNL     1      17.958  48.459  49.437  1.00  0.00    -0.354 OA
HETATM   18  C   UNL     1      16.895  47.945  48.643  1.00  0.00     0.210 C 
ENDBRANCH  12  17
ENDBRANCH   9  11
ENDBRANCH   7   9
ENDBRANCH   5   7
ENDBRANCH   2   5
BRANCH   1  19
HETATM   19  C   UNL     1      25.723  46.308  50.537  1.00  0.00     0.126 C 
BRANCH  19  20
HETATM   20  C   UNL     1      25.112  45.824  51.844  1.00  0.00     0.160 C 
BRANCH  20  21
HETATM   21  N   UNL     1      25.913  46.223  52.989  1.00  0.00    -0.272 N 
HETATM   22  N   UNL     1      25.590  47.371  53.621  1.00  0.00    -0.176 NA
HETATM   23  C   UNL     1      26.485  47.467  54.612  1.00  0.00     0.070 A 
HETATM   24  C   UNL     1      26.443  48.620  55.544  1.00  0.00     0.074 C 
HETATM   25  C   UNL     1      27.372  46.374  54.595  1.00  0.00     0.060 A 
HETATM   26  C   UNL     1      26.996  45.580  53.536  1.00  0.00     0.046 A 
HETATM   27 BR   UNL     1      28.773  46.097  55.807  1.00  0.00    -0.047 Br
HETATM   28  C   UNL     1      27.545  44.304  53.017  1.00  0.00     0.071 C 
ENDBRANCH  20  21
ENDBRANCH  19  20
ENDBRANCH   1  19
TORSDOF 8
ENDMDL
MODEL 10
REMARK VINA RESULT:      -6.9      4.020      5.735
REMARK  8 active torsions:
REMARK  status: ('A' for Active; 'I' for Inactive)
REMARK    1  A    between atoms: N_4  and  C_5 
REMARK    2  A    between atoms: C_5  and  C_6 
REMARK    3  A    between atoms: C_6  and  C_7 
REMARK       I    between atoms: C_7  and  N_8 
REMARK    4  A    between atoms: N_8  and  N_9 
REMARK    5  A    between atoms: N_9  and  C_10 
REMARK    6  A    between atoms: C_10  and  N_11 
REMARK    7  A    between atoms: N_11  and  C_12 
REMARK    8  A    between atoms: C_13  and  O_14 
ROOT
HETATM    1  C   UNL     1      25.326  46.020  50.356  1.00  0.00     0.237 C 
HETATM    2  N   UNL     1      24.003  45.716  50.607  1.00  0.00    -0.268 N 
HETATM    3  O   UNL     1      25.888  45.731  49.303  1.00  0.00    -0.272 OA
HETATM    4  H   UNL     1      23.482  46.143  51.372  1.00  0.00     0.190 HD
ENDROOT
BRANCH   2   5
HETATM    5  N   UNL     1      23.239  45.206  49.541  1.00  0.00    -0.274 N 
HETATM    6  H   UNL     1      23.640  44.370  49.116  1.00  0.00     0.189 HD
BRANCH   5   7
HETATM    7  C   UNL     1      22.494  46.067  48.727  1.00  0.00     0.191 C 
HETATM    8  S   UNL     1      22.019  45.639  47.177  1.00  0.00    -0.039 SA
BRANCH   7   9
HETATM    9  N   UNL     1      22.307  47.275  49.377  1.00  0.00    -0.330 N 
HETATM   10  H   UNL     1      22.021  47.192  50.349  1.00  0.00     0.168 HD
BRANCH   9  11
HETATM   11  C   UNL     1      22.601  48.617  49.033  1.00  0.00     0.068 A 
HETATM   12  C   UNL     1      21.530  49.536  49.137  1.00  0.00     0.095 A 
HETATM   13  C   UNL     1      21.724  50.877  48.793  1.00  0.00     0.039 A 
HETATM   14  C   UNL     1      22.970  51.310  48.339  1.00  0.00     0.003 A 
HETATM   15  C   UNL     1      24.019  50.404  48.215  1.00  0.00     0.002 A 
HETATM   16  C   UNL     1      23.834  49.061  48.554  1.00  0.00     0.032 A 
BRANCH  12  17
HETATM   17  O   UNL     1      20.339  49.004  49.582  1.00  0.00    -0.354 OA
HETATM   18  C   UNL     1      19.447  49.888  50.251  1.00  0.00     0.210 C 
ENDBRANCH  12  17
ENDBRANCH   9  11
ENDBRANCH   7   9
ENDBRANCH   5   7
ENDBRANCH   2   5
BRANCH   1  19
HETATM   19  C   UNL     1      25.989  46.764  51.486  1.00  0.00     0.126 C 
BRANCH  19  20
HETATM   20  C   UNL     1      25.622  46.139  52.824  1.00  0.00     0.160 C 
BRANCH  20  21
HETATM   21  N   UNL     1      26.802  45.708  53.554  1.00  0.00    -0.272 N 
HETATM   22  N   UNL     1      27.354  44.521  53.227  1.00  0.00    -0.176 NA
HETATM   23  C   UNL     1      28.402  44.403  54.052  1.00  0.00     0.070 A 
HETATM   24  C   UNL     1      29.273  43.206  53.983  1.00  0.00     0.074 C 
HETATM   25  C   UNL     1      28.501  45.523  54.899  1.00  0.00     0.060 A 
HETATM   26  C   UNL     1      27.456  46.356  54.573  1.00  0.00     0.046 A 
HETATM   27 BR   UNL     1      29.824  45.783  56.200  1.00  0.00    -0.047 Br
HETATM   28  C   UNL     1      27.040  47.673  55.114  1.00  0.00     0.071 C 
ENDBRANCH  20  21
ENDBRANCH  19  20
ENDBRANCH   1  19
TORSDOF 8
ENDMDL
