MODEL 1
REMARK VINA RESULT:      -9.3      0.000      0.000
REMARK  10 active torsions:
REMARK  status: ('A' for Active; 'I' for Inactive)
REMARK    1  A    between atoms: C_2  and  N_3 
REMARK    2  A    between atoms: N_3  and  C_5 
REMARK    3  A    between atoms: N_3  and  C_35 
REMARK    4  A    between atoms: C_5  and  C_6 
REMARK    5  A    between atoms: C_6  and  N_7 
REMARK       I    between atoms: N_7  and  C_8 
REMARK    6  A    between atoms: C_8  and  C_9 
REMARK    7  A    between atoms: N_15  and  C_16 
REMARK    8  A    between atoms: C_16  and  C_17 
REMARK       I    between atoms: C_17  and  N_18 
REMARK    9  A    between atoms: N_18  and  C_19 
REMARK   10  A    between atoms: C_21  and  C_22 
ROOT
HETATM    1  C   UNL     1      23.843  46.978  49.306  1.00  0.00     0.081 A 
HETATM    2  S   UNL     1      22.959  45.676  48.620  1.00  0.00    -0.063 SA
HETATM    3  C   UNL     1      24.247  44.590  48.818  1.00  0.00     0.116 A 
HETATM    4  C   UNL     1      25.352  45.196  49.372  1.00  0.00     0.075 A 
HETATM    5  C   UNL     1      26.504  44.344  49.650  1.00  0.00     0.262 C 
HETATM    6  O   UNL     1      27.569  44.780  50.078  1.00  0.00    -0.267 OA
HETATM    7  N   UNL     1      26.275  42.991  49.428  1.00  0.00    -0.299 N 
HETATM    8  C   UNL     1      25.125  42.543  48.807  1.00  0.00     0.214 C 
HETATM    9  N   UNL     1      24.115  43.283  48.482  1.00  0.00    -0.235 NA
HETATM   10  C   UNL     1      25.144  46.604  49.645  1.00  0.00    -0.021 A 
HETATM   11  C   UNL     1      26.172  47.490  50.280  1.00  0.00     0.051 C 
ENDROOT
BRANCH   7  12
HETATM   12  C   UNL     1      27.285  42.040  49.865  1.00  0.00     0.236 C 
BRANCH  12  13
HETATM   13  C   UNL     1      26.732  41.083  50.923  1.00  0.00     0.240 C 
HETATM   14  N   UNL     1      26.879  41.397  52.250  1.00  0.00    -0.326 N 
HETATM   15  H   UNL     1      26.184  40.953  52.840  1.00  0.00     0.169 HD
HETATM   16  O   UNL     1      25.988  40.149  50.614  1.00  0.00    -0.271 OA
BRANCH  14  17
HETATM   17  C   UNL     1      27.831  42.201  52.896  1.00  0.00     0.035 A 
HETATM   18  C   UNL     1      27.514  43.429  53.483  1.00  0.00     0.045 A 
HETATM   19  C   UNL     1      28.509  44.217  54.087  1.00  0.00     0.050 A 
HETATM   20  C   UNL     1      29.834  43.756  54.090  1.00  0.00     0.016 A 
HETATM   21  C   UNL     1      30.160  42.551  53.470  1.00  0.00     0.003 A 
HETATM   22  C   UNL     1      29.165  41.789  52.855  1.00  0.00     0.029 A 
BRANCH  19  23
HETATM   23  C   UNL     1      28.178  45.554  54.708  1.00  0.00     0.417 C 
HETATM   24  F   UNL     1      29.269  46.343  54.913  1.00  0.00    -0.166 F 
HETATM   25  F   UNL     1      27.331  46.287  53.935  1.00  0.00    -0.166 F 
HETATM   26  F   UNL     1      27.573  45.433  55.921  1.00  0.00    -0.166 F 
ENDBRANCH  19  23
ENDBRANCH  14  17
ENDBRANCH  12  13
ENDBRANCH   7  12
BRANCH   1  27
HETATM   27  C   UNL     1      23.124  48.230  49.495  1.00  0.00     0.259 C 
HETATM   28  N   UNL     1      21.749  48.180  49.336  1.00  0.00    -0.355 N 
HETATM   29  H   UNL     1      21.310  47.270  49.432  1.00  0.00     0.162 HD
HETATM   30  O   UNL     1      23.655  49.312  49.749  1.00  0.00    -0.267 OA
BRANCH  28  31
HETATM   31  C   UNL     1      20.948  49.382  49.484  1.00  0.00     0.150 C 
BRANCH  31  32
HETATM   32  C   UNL     1      19.478  49.075  49.845  1.00  0.00     0.254 C 
BRANCH  32  33
HETATM   33  N   UNL     1      18.506  50.212  49.554  1.00  0.00    -0.070 N 
HETATM   34  H   UNL     1      17.750  50.092  50.242  1.00  0.00     0.279 HD
BRANCH  33  35
HETATM   35  C   UNL     1      17.823  50.120  48.199  1.00  0.00     0.230 C 
HETATM   36  C   UNL     1      16.313  50.051  48.336  1.00  0.00     0.034 C 
ENDBRANCH  33  35
BRANCH  33  37
HETATM   37  C   UNL     1      19.054  51.605  49.794  1.00  0.00     0.230 C 
HETATM   38  C   UNL     1      19.122  52.408  48.508  1.00  0.00     0.034 C 
ENDBRANCH  33  37
ENDBRANCH  32  33
ENDBRANCH  31  32
ENDBRANCH  28  31
ENDBRANCH   1  27
TORSDOF 10
ENDMDL
MODEL 2
REMARK VINA RESULT:      -9.2      1.572      2.205
REMARK  10 active torsions:
REMARK  status: ('A' for Active; 'I' for Inactive)
REMARK    1  A    between atoms: C_2  and  N_3 
REMARK    2  A    between atoms: N_3  and  C_5 
REMARK    3  A    between atoms: N_3  and  C_35 
REMARK    4  A    between atoms: C_5  and  C_6 
REMARK    5  A    between atoms: C_6  and  N_7 
REMARK       I    between atoms: N_7  and  C_8 
REMARK    6  A    between atoms: C_8  and  C_9 
REMARK    7  A    between atoms: N_15  and  C_16 
REMARK    8  A    between atoms: C_16  and  C_17 
REMARK       I    between atoms: C_17  and  N_18 
REMARK    9  A    between atoms: N_18  and  C_19 
REMARK   10  A    between atoms: C_21  and  C_22 
ROOT
HETATM    1  C   UNL     1      22.796  46.332  48.488  1.00  0.00     0.081 A 
HETATM    2  S   UNL     1      22.604  44.737  47.883  1.00  0.00    -0.063 SA
HETATM    3  C   UNL     1      24.085  44.224  48.532  1.00  0.00     0.116 A 
HETATM    4  C   UNL     1      24.744  45.245  49.181  1.00  0.00     0.075 A 
HETATM    5  C   UNL     1      26.003  44.906  49.837  1.00  0.00     0.262 C 
HETATM    6  O   UNL     1      26.715  45.743  50.387  1.00  0.00    -0.267 OA
HETATM    7  N   UNL     1      26.304  43.550  49.821  1.00  0.00    -0.299 N 
HETATM    8  C   UNL     1      25.569  42.653  49.071  1.00  0.00     0.214 C 
HETATM    9  N   UNL     1      24.487  42.935  48.418  1.00  0.00    -0.235 NA
HETATM   10  C   UNL     1      24.016  46.497  49.146  1.00  0.00    -0.021 A 
HETATM   11  C   UNL     1      24.490  47.755  49.807  1.00  0.00     0.051 C 
ENDROOT
BRANCH   7  12
HETATM   12  C   UNL     1      27.427  43.083  50.619  1.00  0.00     0.236 C 
BRANCH  12  13
HETATM   13  C   UNL     1      26.984  42.058  51.664  1.00  0.00     0.240 C 
HETATM   14  N   UNL     1      26.850  42.452  52.971  1.00  0.00    -0.326 N 
HETATM   15  H   UNL     1      26.209  41.865  53.497  1.00  0.00     0.169 HD
HETATM   16  O   UNL     1      26.552  40.951  51.331  1.00  0.00    -0.271 OA
BRANCH  14  17
HETATM   17  C   UNL     1      27.463  43.500  53.674  1.00  0.00     0.035 A 
HETATM   18  C   UNL     1      26.961  44.805  53.680  1.00  0.00     0.045 A 
HETATM   19  C   UNL     1      27.631  45.831  54.369  1.00  0.00     0.050 A 
HETATM   20  C   UNL     1      28.819  45.528  55.052  1.00  0.00     0.016 A 
HETATM   21  C   UNL     1      29.343  44.238  55.016  1.00  0.00     0.003 A 
HETATM   22  C   UNL     1      28.678  43.233  54.309  1.00  0.00     0.029 A 
BRANCH  19  23
HETATM   23  C   UNL     1      27.107  47.247  54.366  1.00  0.00     0.417 C 
HETATM   24  F   UNL     1      26.186  47.489  55.340  1.00  0.00    -0.166 F 
HETATM   25  F   UNL     1      28.094  48.164  54.554  1.00  0.00    -0.166 F 
HETATM   26  F   UNL     1      26.502  47.579  53.192  1.00  0.00    -0.166 F 
ENDBRANCH  19  23
ENDBRANCH  14  17
ENDBRANCH  12  13
ENDBRANCH   7  12
BRANCH   1  27
HETATM   27  C   UNL     1      21.677  47.244  48.297  1.00  0.00     0.259 C 
HETATM   28  N   UNL     1      20.687  47.214  49.264  1.00  0.00    -0.355 N 
HETATM   29  H   UNL     1      20.943  46.835  50.170  1.00  0.00     0.162 HD
HETATM   30  O   UNL     1      21.545  48.000  47.333  1.00  0.00    -0.267 OA
BRANCH  28  31
HETATM   31  C   UNL     1      19.521  48.072  49.150  1.00  0.00     0.150 C 
BRANCH  31  32
HETATM   32  C   UNL     1      19.701  49.420  49.884  1.00  0.00     0.254 C 
BRANCH  32  33
HETATM   33  N   UNL     1      20.548  50.439  49.131  1.00  0.00    -0.070 N 
HETATM   34  H   UNL     1      20.738  49.999  48.220  1.00  0.00     0.279 HD
BRANCH  33  35
HETATM   35  C   UNL     1      21.918  50.687  49.742  1.00  0.00     0.230 C 
HETATM   36  C   UNL     1      22.943  51.058  48.686  1.00  0.00     0.034 C 
ENDBRANCH  33  35
BRANCH  33  37
HETATM   37  C   UNL     1      19.849  51.747  48.812  1.00  0.00     0.230 C 
HETATM   38  C   UNL     1      18.709  52.021  49.776  1.00  0.00     0.034 C 
ENDBRANCH  33  37
ENDBRANCH  32  33
ENDBRANCH  31  32
ENDBRANCH  28  31
ENDBRANCH   1  27
TORSDOF 10
ENDMDL
MODEL 3
REMARK VINA RESULT:      -9.1      1.344      2.059
REMARK  10 active torsions:
REMARK  status: ('A' for Active; 'I' for Inactive)
REMARK    1  A    between atoms: C_2  and  N_3 
REMARK    2  A    between atoms: N_3  and  C_5 
REMARK    3  A    between atoms: N_3  and  C_35 
REMARK    4  A    between atoms: C_5  and  C_6 
REMARK    5  A    between atoms: C_6  and  N_7 
REMARK       I    between atoms: N_7  and  C_8 
REMARK    6  A    between atoms: C_8  and  C_9 
REMARK    7  A    between atoms: N_15  and  C_16 
REMARK    8  A    between atoms: C_16  and  C_17 
REMARK       I    between atoms: C_17  and  N_18 
REMARK    9  A    between atoms: N_18  and  C_19 
REMARK   10  A    between atoms: C_21  and  C_22 
ROOT
HETATM    1  C   UNL     1      23.910  47.269  49.339  1.00  0.00     0.081 A 
HETATM    2  S   UNL     1      22.953  45.956  48.784  1.00  0.00    -0.063 SA
HETATM    3  C   UNL     1      24.228  44.849  48.952  1.00  0.00     0.116 A 
HETATM    4  C   UNL     1      25.381  45.455  49.398  1.00  0.00     0.075 A 
HETATM    5  C   UNL     1      26.530  44.590  49.643  1.00  0.00     0.262 C 
HETATM    6  O   UNL     1      27.632  45.021  49.975  1.00  0.00    -0.267 OA
HETATM    7  N   UNL     1      26.258  43.233  49.508  1.00  0.00    -0.299 N 
HETATM    8  C   UNL     1      25.059  42.784  48.991  1.00  0.00     0.214 C 
HETATM    9  N   UNL     1      24.044  43.531  48.696  1.00  0.00    -0.235 NA
HETATM   10  C   UNL     1      25.223  46.880  49.609  1.00  0.00    -0.021 A 
HETATM   11  C   UNL     1      26.311  47.771  50.127  1.00  0.00     0.051 C 
ENDROOT
BRANCH   7  12
HETATM   12  C   UNL     1      27.274  42.281  49.927  1.00  0.00     0.236 C 
BRANCH  12  13
HETATM   13  C   UNL     1      26.731  41.305  50.972  1.00  0.00     0.240 C 
HETATM   14  N   UNL     1      26.572  41.731  52.266  1.00  0.00    -0.326 N 
HETATM   15  H   UNL     1      25.879  41.194  52.776  1.00  0.00     0.169 HD
HETATM   16  O   UNL     1      26.246  40.219  50.641  1.00  0.00    -0.271 OA
BRANCH  14  17
HETATM   17  C   UNL     1      27.221  42.755  52.973  1.00  0.00     0.035 A 
HETATM   18  C   UNL     1      28.460  42.578  53.597  1.00  0.00     0.045 A 
HETATM   19  C   UNL     1      29.054  43.623  54.326  1.00  0.00     0.050 A 
HETATM   20  C   UNL     1      28.383  44.852  54.424  1.00  0.00     0.016 A 
HETATM   21  C   UNL     1      27.131  45.018  53.837  1.00  0.00     0.003 A 
HETATM   22  C   UNL     1      26.542  43.964  53.134  1.00  0.00     0.029 A 
BRANCH  19  23
HETATM   23  C   UNL     1      30.383  43.436  55.018  1.00  0.00     0.417 C 
HETATM   24  F   UNL     1      30.313  42.647  56.126  1.00  0.00    -0.166 F 
HETATM   25  F   UNL     1      31.310  42.854  54.208  1.00  0.00    -0.166 F 
HETATM   26  F   UNL     1      30.929  44.612  55.432  1.00  0.00    -0.166 F 
ENDBRANCH  19  23
ENDBRANCH  14  17
ENDBRANCH  12  13
ENDBRANCH   7  12
BRANCH   1  27
HETATM   27  C   UNL     1      23.233  48.547  49.509  1.00  0.00     0.259 C 
HETATM   28  N   UNL     1      21.851  48.528  49.411  1.00  0.00    -0.355 N 
HETATM   29  H   UNL     1      21.393  47.636  49.562  1.00  0.00     0.162 HD
HETATM   30  O   UNL     1      23.802  49.622  49.698  1.00  0.00    -0.267 OA
BRANCH  28  31
HETATM   31  C   UNL     1      21.089  49.757  49.546  1.00  0.00     0.150 C 
BRANCH  31  32
HETATM   32  C   UNL     1      19.720  49.687  48.833  1.00  0.00     0.254 C 
BRANCH  32  33
HETATM   33  N   UNL     1      19.441  50.851  47.889  1.00  0.00    -0.070 N 
HETATM   34  H   UNL     1      20.280  50.914  47.297  1.00  0.00     0.279 HD
BRANCH  33  35
HETATM   35  C   UNL     1      19.343  52.204  48.577  1.00  0.00     0.230 C 
HETATM   36  C   UNL     1      18.375  52.170  49.744  1.00  0.00     0.034 C 
ENDBRANCH  33  35
BRANCH  33  37
HETATM   37  C   UNL     1      18.284  50.641  46.932  1.00  0.00     0.230 C 
HETATM   38  C   UNL     1      18.697  49.815  45.728  1.00  0.00     0.034 C 
ENDBRANCH  33  37
ENDBRANCH  32  33
ENDBRANCH  31  32
ENDBRANCH  28  31
ENDBRANCH   1  27
TORSDOF 10
ENDMDL
MODEL 4
REMARK VINA RESULT:      -9.1      2.708      3.502
REMARK  10 active torsions:
REMARK  status: ('A' for Active; 'I' for Inactive)
REMARK    1  A    between atoms: C_2  and  N_3 
REMARK    2  A    between atoms: N_3  and  C_5 
REMARK    3  A    between atoms: N_3  and  C_35 
REMARK    4  A    between atoms: C_5  and  C_6 
REMARK    5  A    between atoms: C_6  and  N_7 
REMARK       I    between atoms: N_7  and  C_8 
REMARK    6  A    between atoms: C_8  and  C_9 
REMARK    7  A    between atoms: N_15  and  C_16 
REMARK    8  A    between atoms: C_16  and  C_17 
REMARK       I    between atoms: C_17  and  N_18 
REMARK    9  A    between atoms: N_18  and  C_19 
REMARK   10  A    between atoms: C_21  and  C_22 
ROOT
HETATM    1  C   UNL     1      22.907  46.498  48.906  1.00  0.00     0.081 A 
HETATM    2  S   UNL     1      23.901  47.736  49.560  1.00  0.00    -0.063 SA
HETATM    3  C   UNL     1      24.620  46.682  50.677  1.00  0.00     0.116 A 
HETATM    4  C   UNL     1      24.107  45.407  50.588  1.00  0.00     0.075 A 
HETATM    5  C   UNL     1      24.696  44.394  51.458  1.00  0.00     0.262 C 
HETATM    6  O   UNL     1      24.277  43.241  51.518  1.00  0.00    -0.267 OA
HETATM    7  N   UNL     1      25.798  44.838  52.179  1.00  0.00    -0.299 N 
HETATM    8  C   UNL     1      26.155  46.172  52.207  1.00  0.00     0.214 C 
HETATM    9  N   UNL     1      25.607  47.108  51.502  1.00  0.00    -0.235 NA
HETATM   10  C   UNL     1      23.083  45.283  49.570  1.00  0.00    -0.021 A 
HETATM   11  C   UNL     1      22.387  43.997  49.240  1.00  0.00     0.051 C 
ENDROOT
BRANCH   7  12
HETATM   12  C   UNL     1      26.579  43.858  52.917  1.00  0.00     0.236 C 
BRANCH  12  13
HETATM   13  C   UNL     1      27.884  43.523  52.194  1.00  0.00     0.240 C 
HETATM   14  N   UNL     1      29.048  43.449  52.915  1.00  0.00    -0.326 N 
HETATM   15  H   UNL     1      29.751  42.867  52.472  1.00  0.00     0.169 HD
HETATM   16  O   UNL     1      27.883  43.122  51.027  1.00  0.00    -0.271 OA
BRANCH  14  17
HETATM   17  C   UNL     1      29.408  44.055  54.129  1.00  0.00     0.035 A 
HETATM   18  C   UNL     1      30.308  43.477  55.029  1.00  0.00     0.045 A 
HETATM   19  C   UNL     1      30.609  44.105  56.249  1.00  0.00     0.050 A 
HETATM   20  C   UNL     1      29.990  45.326  56.558  1.00  0.00     0.016 A 
HETATM   21  C   UNL     1      29.063  45.886  55.681  1.00  0.00     0.003 A 
HETATM   22  C   UNL     1      28.756  45.239  54.482  1.00  0.00     0.029 A 
BRANCH  19  23
HETATM   23  C   UNL     1      31.566  43.478  57.236  1.00  0.00     0.417 C 
HETATM   24  F   UNL     1      32.803  43.240  56.718  1.00  0.00    -0.166 F 
HETATM   25  F   UNL     1      31.768  44.263  58.329  1.00  0.00    -0.166 F 
HETATM   26  F   UNL     1      31.123  42.281  57.707  1.00  0.00    -0.166 F 
ENDBRANCH  19  23
ENDBRANCH  14  17
ENDBRANCH  12  13
ENDBRANCH   7  12
BRANCH   1  27
HETATM   27  C   UNL     1      22.095  46.852  47.750  1.00  0.00     0.259 C 
HETATM   28  N   UNL     1      21.054  47.736  47.977  1.00  0.00    -0.355 N 
HETATM   29  H   UNL     1      21.120  48.319  48.806  1.00  0.00     0.162 HD
HETATM   30  O   UNL     1      22.255  46.400  46.616  1.00  0.00    -0.267 OA
BRANCH  28  31
HETATM   31  C   UNL     1      20.177  48.133  46.890  1.00  0.00     0.150 C 
BRANCH  31  32
HETATM   32  C   UNL     1      19.239  49.298  47.279  1.00  0.00     0.254 C 
BRANCH  32  33
HETATM   33  N   UNL     1      19.592  49.978  48.597  1.00  0.00    -0.070 N 
HETATM   34  H   UNL     1      20.352  49.406  48.990  1.00  0.00     0.279 HD
BRANCH  33  35
HETATM   35  C   UNL     1      18.486  49.932  49.639  1.00  0.00     0.230 C 
HETATM   36  C   UNL     1      18.729  48.840  50.665  1.00  0.00     0.034 C 
ENDBRANCH  33  35
BRANCH  33  37
HETATM   37  C   UNL     1      20.162  51.377  48.468  1.00  0.00     0.230 C 
HETATM   38  C   UNL     1      19.069  52.430  48.496  1.00  0.00     0.034 C 
ENDBRANCH  33  37
ENDBRANCH  32  33
ENDBRANCH  31  32
ENDBRANCH  28  31
ENDBRANCH   1  27
TORSDOF 10
ENDMDL
MODEL 5
REMARK VINA RESULT:      -8.7      1.497      2.345
REMARK  10 active torsions:
REMARK  status: ('A' for Active; 'I' for Inactive)
REMARK    1  A    between atoms: C_2  and  N_3 
REMARK    2  A    between atoms: N_3  and  C_5 
REMARK    3  A    between atoms: N_3  and  C_35 
REMARK    4  A    between atoms: C_5  and  C_6 
REMARK    5  A    between atoms: C_6  and  N_7 
REMARK       I    between atoms: N_7  and  C_8 
REMARK    6  A    between atoms: C_8  and  C_9 
REMARK    7  A    between atoms: N_15  and  C_16 
REMARK    8  A    between atoms: C_16  and  C_17 
REMARK       I    between atoms: C_17  and  N_18 
REMARK    9  A    between atoms: N_18  and  C_19 
REMARK   10  A    between atoms: C_21  and  C_22 
ROOT
HETATM    1  C   UNL     1      23.150  46.447  48.980  1.00  0.00     0.081 A 
HETATM    2  S   UNL     1      24.358  47.184  49.952  1.00  0.00    -0.063 SA
HETATM    3  C   UNL     1      25.195  45.724  50.162  1.00  0.00     0.116 A 
HETATM    4  C   UNL     1      24.567  44.673  49.532  1.00  0.00     0.075 A 
HETATM    5  C   UNL     1      25.230  43.375  49.589  1.00  0.00     0.262 C 
HETATM    6  O   UNL     1      24.735  42.351  49.125  1.00  0.00    -0.267 OA
HETATM    7  N   UNL     1      26.490  43.407  50.177  1.00  0.00    -0.299 N 
HETATM    8  C   UNL     1      26.959  44.535  50.821  1.00  0.00     0.214 C 
HETATM    9  N   UNL     1      26.362  45.682  50.851  1.00  0.00    -0.235 NA
HETATM   10  C   UNL     1      23.351  45.072  48.851  1.00  0.00    -0.021 A 
HETATM   11  C   UNL     1      22.495  44.133  48.057  1.00  0.00     0.051 C 
ENDROOT
BRANCH   7  12
HETATM   12  C   UNL     1      27.317  42.213  50.100  1.00  0.00     0.236 C 
BRANCH  12  13
HETATM   13  C   UNL     1      26.880  41.163  51.122  1.00  0.00     0.240 C 
HETATM   14  N   UNL     1      27.121  41.385  52.454  1.00  0.00    -0.326 N 
HETATM   15  H   UNL     1      26.489  40.873  53.060  1.00  0.00     0.169 HD
HETATM   16  O   UNL     1      26.143  40.226  50.801  1.00  0.00    -0.271 OA
BRANCH  14  17
HETATM   17  C   UNL     1      28.096  42.175  53.083  1.00  0.00     0.035 A 
HETATM   18  C   UNL     1      27.779  43.289  53.866  1.00  0.00     0.045 A 
HETATM   19  C   UNL     1      28.792  44.072  54.447  1.00  0.00     0.050 A 
HETATM   20  C   UNL     1      30.132  43.722  54.228  1.00  0.00     0.016 A 
HETATM   21  C   UNL     1      30.452  42.635  53.417  1.00  0.00     0.003 A 
HETATM   22  C   UNL     1      29.436  41.880  52.827  1.00  0.00     0.029 A 
BRANCH  19  23
HETATM   23  C   UNL     1      28.459  45.289  55.278  1.00  0.00     0.417 C 
HETATM   24  F   UNL     1      28.459  46.450  54.568  1.00  0.00    -0.166 F 
HETATM   25  F   UNL     1      27.226  45.203  55.848  1.00  0.00    -0.166 F 
HETATM   26  F   UNL     1      29.335  45.479  56.302  1.00  0.00    -0.166 F 
ENDBRANCH  19  23
ENDBRANCH  14  17
ENDBRANCH  12  13
ENDBRANCH   7  12
BRANCH   1  27
HETATM   27  C   UNL     1      22.154  47.331  48.390  1.00  0.00     0.259 C 
HETATM   28  N   UNL     1      20.928  47.391  49.032  1.00  0.00    -0.355 N 
HETATM   29  H   UNL     1      20.905  47.103  50.004  1.00  0.00     0.162 HD
HETATM   30  O   UNL     1      22.322  47.990  47.363  1.00  0.00    -0.267 OA
BRANCH  28  31
HETATM   31  C   UNL     1      19.865  48.229  48.507  1.00  0.00     0.150 C 
BRANCH  31  32
HETATM   32  C   UNL     1      19.611  49.481  49.376  1.00  0.00     0.254 C 
BRANCH  32  33
HETATM   33  N   UNL     1      20.459  50.691  49.002  1.00  0.00    -0.070 N 
HETATM   34  H   UNL     1      20.837  50.466  48.072  1.00  0.00     0.279 HD
BRANCH  33  35
HETATM   35  C   UNL     1      21.680  50.895  49.884  1.00  0.00     0.230 C 
HETATM   36  C   UNL     1      22.964  50.878  49.076  1.00  0.00     0.034 C 
ENDBRANCH  33  35
BRANCH  33  37
HETATM   37  C   UNL     1      19.691  51.986  48.826  1.00  0.00     0.230 C 
HETATM   38  C   UNL     1      18.484  51.802  47.923  1.00  0.00     0.034 C 
ENDBRANCH  33  37
ENDBRANCH  32  33
ENDBRANCH  31  32
ENDBRANCH  28  31
ENDBRANCH   1  27
TORSDOF 10
ENDMDL
MODEL 6
REMARK VINA RESULT:      -8.7      2.096      2.730
REMARK  10 active torsions:
REMARK  status: ('A' for Active; 'I' for Inactive)
REMARK    1  A    between atoms: C_2  and  N_3 
REMARK    2  A    between atoms: N_3  and  C_5 
REMARK    3  A    between atoms: N_3  and  C_35 
REMARK    4  A    between atoms: C_5  and  C_6 
REMARK    5  A    between atoms: C_6  and  N_7 
REMARK       I    between atoms: N_7  and  C_8 
REMARK    6  A    between atoms: C_8  and  C_9 
REMARK    7  A    between atoms: N_15  and  C_16 
REMARK    8  A    between atoms: C_16  and  C_17 
REMARK       I    between atoms: C_17  and  N_18 
REMARK    9  A    between atoms: N_18  and  C_19 
REMARK   10  A    between atoms: C_21  and  C_22 
ROOT
HETATM    1  C   UNL     1      22.685  46.358  48.669  1.00  0.00     0.081 A 
HETATM    2  S   UNL     1      23.800  47.458  49.370  1.00  0.00    -0.063 SA
HETATM    3  C   UNL     1      24.485  46.262  50.358  1.00  0.00     0.116 A 
HETATM    4  C   UNL     1      23.870  45.041  50.191  1.00  0.00     0.075 A 
HETATM    5  C   UNL     1      24.417  43.917  50.944  1.00  0.00     0.262 C 
HETATM    6  O   UNL     1      23.913  42.797  50.932  1.00  0.00    -0.267 OA
HETATM    7  N   UNL     1      25.582  44.215  51.642  1.00  0.00    -0.299 N 
HETATM    8  C   UNL     1      26.044  45.511  51.760  1.00  0.00     0.214 C 
HETATM    9  N   UNL     1      25.539  46.542  51.164  1.00  0.00    -0.235 NA
HETATM   10  C   UNL     1      22.795  45.081  49.221  1.00  0.00    -0.021 A 
HETATM   11  C   UNL     1      21.986  43.883  48.824  1.00  0.00     0.051 C 
ENDROOT
BRANCH   7  12
HETATM   12  C   UNL     1      26.317  43.120  52.256  1.00  0.00     0.236 C 
BRANCH  12  13
HETATM   13  C   UNL     1      27.601  42.806  51.486  1.00  0.00     0.240 C 
HETATM   14  N   UNL     1      28.791  42.749  52.165  1.00  0.00    -0.326 N 
HETATM   15  H   UNL     1      29.487  42.179  51.696  1.00  0.00     0.169 HD
HETATM   16  O   UNL     1      27.564  42.407  50.319  1.00  0.00    -0.271 OA
BRANCH  14  17
HETATM   17  C   UNL     1      29.183  43.360  53.367  1.00  0.00     0.035 A 
HETATM   18  C   UNL     1      28.567  44.509  53.870  1.00  0.00     0.045 A 
HETATM   19  C   UNL     1      29.020  45.106  55.060  1.00  0.00     0.050 A 
HETATM   20  C   UNL     1      30.106  44.533  55.738  1.00  0.00     0.016 A 
HETATM   21  C   UNL     1      30.747  43.410  55.218  1.00  0.00     0.003 A 
HETATM   22  C   UNL     1      30.301  42.841  54.024  1.00  0.00     0.029 A 
BRANCH  19  23
HETATM   23  C   UNL     1      28.372  46.359  55.601  1.00  0.00     0.417 C 
HETATM   24  F   UNL     1      28.572  46.542  56.935  1.00  0.00    -0.166 F 
HETATM   25  F   UNL     1      28.842  47.485  54.998  1.00  0.00    -0.166 F 
HETATM   26  F   UNL     1      27.023  46.370  55.421  1.00  0.00    -0.166 F 
ENDBRANCH  19  23
ENDBRANCH  14  17
ENDBRANCH  12  13
ENDBRANCH   7  12
BRANCH   1  27
HETATM   27  C   UNL     1      21.851  46.869  47.589  1.00  0.00     0.259 C 
HETATM   28  N   UNL     1      20.757  47.630  47.964  1.00  0.00    -0.355 N 
HETATM   29  H   UNL     1      20.787  48.052  48.887  1.00  0.00     0.162 HD
HETATM   30  O   UNL     1      22.038  46.644  46.393  1.00  0.00    -0.267 OA
BRANCH  28  31
HETATM   31  C   UNL     1      19.856  48.166  46.960  1.00  0.00     0.150 C 
BRANCH  31  32
HETATM   32  C   UNL     1      19.373  49.594  47.297  1.00  0.00     0.254 C 
BRANCH  32  33
HETATM   33  N   UNL     1      19.774  50.085  48.683  1.00  0.00    -0.070 N 
HETATM   34  H   UNL     1      20.377  49.340  49.059  1.00  0.00     0.279 HD
BRANCH  33  35
HETATM   35  C   UNL     1      18.620  50.192  49.667  1.00  0.00     0.230 C 
HETATM   36  C   UNL     1      18.772  49.213  50.817  1.00  0.00     0.034 C 
ENDBRANCH  33  35
BRANCH  33  37
HETATM   37  C   UNL     1      20.623  51.341  48.701  1.00  0.00     0.230 C 
HETATM   38  C   UNL     1      22.102  51.018  48.582  1.00  0.00     0.034 C 
ENDBRANCH  33  37
ENDBRANCH  32  33
ENDBRANCH  31  32
ENDBRANCH  28  31
ENDBRANCH   1  27
TORSDOF 10
ENDMDL
MODEL 7
REMARK VINA RESULT:      -8.6      4.177     10.324
REMARK  10 active torsions:
REMARK  status: ('A' for Active; 'I' for Inactive)
REMARK    1  A    between atoms: C_2  and  N_3 
REMARK    2  A    between atoms: N_3  and  C_5 
REMARK    3  A    between atoms: N_3  and  C_35 
REMARK    4  A    between atoms: C_5  and  C_6 
REMARK    5  A    between atoms: C_6  and  N_7 
REMARK       I    between atoms: N_7  and  C_8 
REMARK    6  A    between atoms: C_8  and  C_9 
REMARK    7  A    between atoms: N_15  and  C_16 
REMARK    8  A    between atoms: C_16  and  C_17 
REMARK       I    between atoms: C_17  and  N_18 
REMARK    9  A    between atoms: N_18  and  C_19 
REMARK   10  A    between atoms: C_21  and  C_22 
ROOT
HETATM    1  C   UNL     1      26.051  45.308  51.939  1.00  0.00     0.081 A 
HETATM    2  S   UNL     1      25.730  46.993  51.892  1.00  0.00    -0.063 SA
HETATM    3  C   UNL     1      24.695  46.842  50.557  1.00  0.00     0.116 A 
HETATM    4  C   UNL     1      24.603  45.539  50.121  1.00  0.00     0.075 A 
HETATM    5  C   UNL     1      23.689  45.275  49.015  1.00  0.00     0.262 C 
HETATM    6  O   UNL     1      23.572  44.168  48.495  1.00  0.00    -0.267 OA
HETATM    7  N   UNL     1      22.931  46.375  48.630  1.00  0.00    -0.299 N 
HETATM    8  C   UNL     1      23.186  47.638  49.126  1.00  0.00     0.214 C 
HETATM    9  N   UNL     1      24.040  47.918  50.057  1.00  0.00    -0.235 NA
HETATM   10  C   UNL     1      25.410  44.625  50.905  1.00  0.00    -0.021 A 
HETATM   11  C   UNL     1      25.462  43.147  50.667  1.00  0.00     0.051 C 
ENDROOT
BRANCH   7  12
HETATM   12  C   UNL     1      21.850  46.169  47.679  1.00  0.00     0.236 C 
BRANCH  12  13
HETATM   13  C   UNL     1      20.523  45.900  48.389  1.00  0.00     0.240 C 
HETATM   14  N   UNL     1      19.441  46.695  48.109  1.00  0.00    -0.326 N 
HETATM   15  H   UNL     1      18.555  46.238  48.299  1.00  0.00     0.169 HD
HETATM   16  O   UNL     1      20.348  44.871  49.048  1.00  0.00    -0.271 OA
BRANCH  14  17
HETATM   17  C   UNL     1      19.379  48.014  47.631  1.00  0.00     0.035 A 
HETATM   18  C   UNL     1      19.822  49.111  48.376  1.00  0.00     0.045 A 
HETATM   19  C   UNL     1      19.707  50.417  47.870  1.00  0.00     0.050 A 
HETATM   20  C   UNL     1      19.134  50.609  46.604  1.00  0.00     0.016 A 
HETATM   21  C   UNL     1      18.656  49.521  45.876  1.00  0.00     0.003 A 
HETATM   22  C   UNL     1      18.757  48.230  46.400  1.00  0.00     0.029 A 
BRANCH  19  23
HETATM   23  C   UNL     1      20.165  51.611  48.675  1.00  0.00     0.417 C 
HETATM   24  F   UNL     1      19.889  51.509  50.005  1.00  0.00    -0.166 F 
HETATM   25  F   UNL     1      21.510  51.805  48.590  1.00  0.00    -0.166 F 
HETATM   26  F   UNL     1      19.589  52.773  48.263  1.00  0.00    -0.166 F 
ENDBRANCH  19  23
ENDBRANCH  14  17
ENDBRANCH  12  13
ENDBRANCH   7  12
BRANCH   1  27
HETATM   27  C   UNL     1      26.865  44.827  53.047  1.00  0.00     0.259 C 
HETATM   28  N   UNL     1      26.983  45.675  54.136  1.00  0.00    -0.355 N 
HETATM   29  H   UNL     1      26.267  46.385  54.244  1.00  0.00     0.162 HD
HETATM   30  O   UNL     1      27.466  43.752  53.061  1.00  0.00    -0.267 OA
BRANCH  28  31
HETATM   31  C   UNL     1      27.791  45.292  55.281  1.00  0.00     0.150 C 
BRANCH  31  32
HETATM   32  C   UNL     1      29.125  46.069  55.352  1.00  0.00     0.254 C 
BRANCH  32  33
HETATM   33  N   UNL     1      30.195  45.406  56.211  1.00  0.00    -0.070 N 
HETATM   34  H   UNL     1      31.029  45.998  56.092  1.00  0.00     0.279 HD
BRANCH  33  35
HETATM   35  C   UNL     1      30.620  44.028  55.728  1.00  0.00     0.230 C 
HETATM   36  C   UNL     1      31.555  43.352  56.713  1.00  0.00     0.034 C 
ENDBRANCH  33  35
BRANCH  33  37
HETATM   37  C   UNL     1      29.913  45.398  57.701  1.00  0.00     0.230 C 
HETATM   38  C   UNL     1      30.829  46.349  58.448  1.00  0.00     0.034 C 
ENDBRANCH  33  37
ENDBRANCH  32  33
ENDBRANCH  31  32
ENDBRANCH  28  31
ENDBRANCH   1  27
TORSDOF 10
ENDMDL
MODEL 8
REMARK VINA RESULT:      -8.3      1.572      2.108
REMARK  10 active torsions:
REMARK  status: ('A' for Active; 'I' for Inactive)
REMARK    1  A    between atoms: C_2  and  N_3 
REMARK    2  A    between atoms: N_3  and  C_5 
REMARK    3  A    between atoms: N_3  and  C_35 
REMARK    4  A    between atoms: C_5  and  C_6 
REMARK    5  A    between atoms: C_6  and  N_7 
REMARK       I    between atoms: N_7  and  C_8 
REMARK    6  A    between atoms: C_8  and  C_9 
REMARK    7  A    between atoms: N_15  and  C_16 
REMARK    8  A    between atoms: C_16  and  C_17 
REMARK       I    between atoms: C_17  and  N_18 
REMARK    9  A    between atoms: N_18  and  C_19 
REMARK   10  A    between atoms: C_21  and  C_22 
ROOT
HETATM    1  C   UNL     1      23.232  46.789  49.098  1.00  0.00     0.081 A 
HETATM    2  S   UNL     1      24.472  47.449  50.084  1.00  0.00    -0.063 SA
HETATM    3  C   UNL     1      25.255  45.952  50.244  1.00  0.00     0.116 A 
HETATM    4  C   UNL     1      24.583  44.947  49.585  1.00  0.00     0.075 A 
HETATM    5  C   UNL     1      25.197  43.623  49.598  1.00  0.00     0.262 C 
HETATM    6  O   UNL     1      24.660  42.633  49.106  1.00  0.00    -0.267 OA
HETATM    7  N   UNL     1      26.459  43.589  50.178  1.00  0.00    -0.299 N 
HETATM    8  C   UNL     1      26.975  44.677  50.854  1.00  0.00     0.214 C 
HETATM    9  N   UNL     1      26.423  45.845  50.923  1.00  0.00    -0.235 NA
HETATM   10  C   UNL     1      23.380  45.412  48.925  1.00  0.00    -0.021 A 
HETATM   11  C   UNL     1      22.484  44.531  48.108  1.00  0.00     0.051 C 
ENDROOT
BRANCH   7  12
HETATM   12  C   UNL     1      27.240  42.367  50.060  1.00  0.00     0.236 C 
BRANCH  12  13
HETATM   13  C   UNL     1      26.760  41.299  51.043  1.00  0.00     0.240 C 
HETATM   14  N   UNL     1      27.018  41.457  52.381  1.00  0.00    -0.326 N 
HETATM   15  H   UNL     1      26.366  40.951  52.971  1.00  0.00     0.169 HD
HETATM   16  O   UNL     1      25.979  40.410  50.690  1.00  0.00    -0.271 OA
BRANCH  14  17
HETATM   17  C   UNL     1      28.031  42.176  53.034  1.00  0.00     0.035 A 
HETATM   18  C   UNL     1      27.773  43.296  53.830  1.00  0.00     0.045 A 
HETATM   19  C   UNL     1      28.824  44.006  54.435  1.00  0.00     0.050 A 
HETATM   20  C   UNL     1      30.144  43.578  54.227  1.00  0.00     0.016 A 
HETATM   21  C   UNL     1      30.407  42.485  53.402  1.00  0.00     0.003 A 
HETATM   22  C   UNL     1      29.354  41.802  52.789  1.00  0.00     0.029 A 
BRANCH  19  23
HETATM   23  C   UNL     1      28.556  45.228  55.282  1.00  0.00     0.417 C 
HETATM   24  F   UNL     1      29.213  45.219  56.474  1.00  0.00    -0.166 F 
HETATM   25  F   UNL     1      28.933  46.379  54.661  1.00  0.00    -0.166 F 
HETATM   26  F   UNL     1      27.237  45.377  55.585  1.00  0.00    -0.166 F 
ENDBRANCH  19  23
ENDBRANCH  14  17
ENDBRANCH  12  13
ENDBRANCH   7  12
BRANCH   1  27
HETATM   27  C   UNL     1      22.268  47.729  48.542  1.00  0.00     0.259 C 
HETATM   28  N   UNL     1      21.055  47.828  49.203  1.00  0.00    -0.355 N 
HETATM   29  H   UNL     1      21.033  47.521  50.170  1.00  0.00     0.162 HD
HETATM   30  O   UNL     1      22.449  48.401  47.526  1.00  0.00    -0.267 OA
BRANCH  28  31
HETATM   31  C   UNL     1      20.022  48.723  48.712  1.00  0.00     0.150 C 
BRANCH  31  32
HETATM   32  C   UNL     1      18.722  48.642  49.544  1.00  0.00     0.254 C 
BRANCH  32  33
HETATM   33  N   UNL     1      17.442  48.697  48.720  1.00  0.00    -0.070 N 
HETATM   34  H   UNL     1      16.693  48.458  49.385  1.00  0.00     0.279 HD
BRANCH  33  35
HETATM   35  C   UNL     1      17.353  47.638  47.632  1.00  0.00     0.230 C 
HETATM   36  C   UNL     1      17.268  46.240  48.217  1.00  0.00     0.034 C 
ENDBRANCH  33  35
BRANCH  33  37
HETATM   37  C   UNL     1      17.082  50.066  48.178  1.00  0.00     0.230 C 
HETATM   38  C   UNL     1      17.121  51.125  49.265  1.00  0.00     0.034 C 
ENDBRANCH  33  37
ENDBRANCH  32  33
ENDBRANCH  31  32
ENDBRANCH  28  31
ENDBRANCH   1  27
TORSDOF 10
ENDMDL
MODEL 9
REMARK VINA RESULT:      -8.1      2.372      3.311
REMARK  10 active torsions:
REMARK  status: ('A' for Active; 'I' for Inactive)
REMARK    1  A    between atoms: C_2  and  N_3 
REMARK    2  A    between atoms: N_3  and  C_5 
REMARK    3  A    between atoms: N_3  and  C_35 
REMARK    4  A    between atoms: C_5  and  C_6 
REMARK    5  A    between atoms: C_6  and  N_7 
REMARK       I    between atoms: N_7  and  C_8 
REMARK    6  A    between atoms: C_8  and  C_9 
REMARK    7  A    between atoms: N_15  and  C_16 
REMARK    8  A    between atoms: C_16  and  C_17 
REMARK       I    between atoms: C_17  and  N_18 
REMARK    9  A    between atoms: N_18  and  C_19 
REMARK   10  A    between atoms: C_21  and  C_22 
ROOT
HETATM    1  C   UNL     1      21.500  46.806  47.482  1.00  0.00     0.081 A 
HETATM    2  S   UNL     1      22.119  45.298  46.945  1.00  0.00    -0.063 SA
HETATM    3  C   UNL     1      23.346  45.291  48.116  1.00  0.00     0.116 A 
HETATM    4  C   UNL     1      23.318  46.425  48.898  1.00  0.00     0.075 A 
HETATM    5  C   UNL     1      24.289  46.502  49.985  1.00  0.00     0.262 C 
HETATM    6  O   UNL     1      24.407  47.490  50.706  1.00  0.00    -0.267 OA
HETATM    7  N   UNL     1      25.037  45.344  50.160  1.00  0.00    -0.299 N 
HETATM    8  C   UNL     1      24.991  44.307  49.249  1.00  0.00     0.214 C 
HETATM    9  N   UNL     1      24.193  44.240  48.233  1.00  0.00    -0.235 NA
HETATM   10  C   UNL     1      22.256  47.338  48.527  1.00  0.00    -0.021 A 
HETATM   11  C   UNL     1      21.980  48.627  49.240  1.00  0.00     0.051 C 
ENDROOT
BRANCH   7  12
HETATM   12  C   UNL     1      25.885  45.242  51.338  1.00  0.00     0.236 C 
BRANCH  12  13
HETATM   13  C   UNL     1      25.296  44.279  52.370  1.00  0.00     0.240 C 
HETATM   14  N   UNL     1      25.716  44.357  53.673  1.00  0.00    -0.326 N 
HETATM   15  H   UNL     1      25.037  43.987  54.330  1.00  0.00     0.169 HD
HETATM   16  O   UNL     1      24.315  43.578  52.104  1.00  0.00    -0.271 OA
BRANCH  14  17
HETATM   17  C   UNL     1      26.918  44.838  54.215  1.00  0.00     0.035 A 
HETATM   18  C   UNL     1      28.055  44.040  54.368  1.00  0.00     0.045 A 
HETATM   19  C   UNL     1      29.225  44.557  54.950  1.00  0.00     0.050 A 
HETATM   20  C   UNL     1      29.237  45.892  55.382  1.00  0.00     0.016 A 
HETATM   21  C   UNL     1      28.093  46.679  55.267  1.00  0.00     0.003 A 
HETATM   22  C   UNL     1      26.931  46.145  54.707  1.00  0.00     0.029 A 
BRANCH  19  23
HETATM   23  C   UNL     1      30.452  43.696  55.136  1.00  0.00     0.417 C 
HETATM   24  F   UNL     1      31.541  44.387  55.573  1.00  0.00    -0.166 F 
HETATM   25  F   UNL     1      30.254  42.704  56.047  1.00  0.00    -0.166 F 
HETATM   26  F   UNL     1      30.839  43.080  53.986  1.00  0.00    -0.166 F 
ENDBRANCH  19  23
ENDBRANCH  14  17
ENDBRANCH  12  13
ENDBRANCH   7  12
BRANCH   1  27
HETATM   27  C   UNL     1      20.278  47.277  46.844  1.00  0.00     0.259 C 
HETATM   28  N   UNL     1      20.079  48.647  46.835  1.00  0.00    -0.355 N 
HETATM   29  H   UNL     1      20.899  49.232  46.956  1.00  0.00     0.162 HD
HETATM   30  O   UNL     1      19.418  46.547  46.352  1.00  0.00    -0.267 OA
BRANCH  28  31
HETATM   31  C   UNL     1      18.880  49.211  46.240  1.00  0.00     0.150 C 
BRANCH  31  32
HETATM   32  C   UNL     1      17.956  49.878  47.284  1.00  0.00     0.254 C 
BRANCH  32  33
HETATM   33  N   UNL     1      18.572  50.021  48.671  1.00  0.00    -0.070 N 
HETATM   34  H   UNL     1      19.485  49.551  48.600  1.00  0.00     0.279 HD
BRANCH  33  35
HETATM   35  C   UNL     1      17.827  49.272  49.765  1.00  0.00     0.230 C 
HETATM   36  C   UNL     1      17.803  47.777  49.504  1.00  0.00     0.034 C 
ENDBRANCH  33  35
BRANCH  33  37
HETATM   37  C   UNL     1      18.880  51.443  49.096  1.00  0.00     0.230 C 
HETATM   38  C   UNL     1      20.188  51.933  48.504  1.00  0.00     0.034 C 
ENDBRANCH  33  37
ENDBRANCH  32  33
ENDBRANCH  31  32
ENDBRANCH  28  31
ENDBRANCH   1  27
TORSDOF 10
ENDMDL
MODEL 10
REMARK VINA RESULT:      -8.1      2.444      4.289
REMARK  10 active torsions:
REMARK  status: ('A' for Active; 'I' for Inactive)
REMARK    1  A    between atoms: C_2  and  N_3 
REMARK    2  A    between atoms: N_3  and  C_5 
REMARK    3  A    between atoms: N_3  and  C_35 
REMARK    4  A    between atoms: C_5  and  C_6 
REMARK    5  A    between atoms: C_6  and  N_7 
REMARK       I    between atoms: N_7  and  C_8 
REMARK    6  A    between atoms: C_8  and  C_9 
REMARK    7  A    between atoms: N_15  and  C_16 
REMARK    8  A    between atoms: C_16  and  C_17 
REMARK       I    between atoms: C_17  and  N_18 
REMARK    9  A    between atoms: N_18  and  C_19 
REMARK   10  A    between atoms: C_21  and  C_22 
ROOT
HETATM    1  C   UNL     1      20.200  48.141  48.025  1.00  0.00     0.081 A 
HETATM    2  S   UNL     1      20.424  46.465  47.728  1.00  0.00    -0.063 SA
HETATM    3  C   UNL     1      21.964  46.461  48.440  1.00  0.00     0.116 A 
HETATM    4  C   UNL     1      22.332  47.713  48.880  1.00  0.00     0.075 A 
HETATM    5  C   UNL     1      23.613  47.821  49.569  1.00  0.00     0.262 C 
HETATM    6  O   UNL     1      24.080  48.893  49.945  1.00  0.00    -0.267 OA
HETATM    7  N   UNL     1      24.238  46.601  49.800  1.00  0.00    -0.299 N 
HETATM    8  C   UNL     1      23.768  45.430  49.238  1.00  0.00     0.214 C 
HETATM    9  N   UNL     1      22.673  45.312  48.560  1.00  0.00    -0.235 NA
HETATM   10  C   UNL     1      21.320  48.719  48.625  1.00  0.00    -0.021 A 
HETATM   11  C   UNL     1      21.450  50.154  49.035  1.00  0.00     0.051 C 
ENDROOT
BRANCH   7  12
HETATM   12  C   UNL     1      25.414  46.579  50.655  1.00  0.00     0.236 C 
BRANCH  12  13
HETATM   13  C   UNL     1      26.702  46.505  49.834  1.00  0.00     0.240 C 
HETATM   14  N   UNL     1      27.287  45.284  49.617  1.00  0.00    -0.326 N 
HETATM   15  H   UNL     1      27.870  45.268  48.786  1.00  0.00     0.169 HD
HETATM   16  O   UNL     1      27.112  47.481  49.199  1.00  0.00    -0.271 OA
BRANCH  14  17
HETATM   17  C   UNL     1      27.218  44.096  50.361  1.00  0.00     0.035 A 
HETATM   18  C   UNL     1      27.684  43.996  51.675  1.00  0.00     0.045 A 
HETATM   19  C   UNL     1      27.627  42.774  52.367  1.00  0.00     0.050 A 
HETATM   20  C   UNL     1      27.096  41.648  51.719  1.00  0.00     0.016 A 
HETATM   21  C   UNL     1      26.667  41.736  50.396  1.00  0.00     0.003 A 
HETATM   22  C   UNL     1      26.750  42.950  49.713  1.00  0.00     0.029 A 
BRANCH  19  23
HETATM   23  C   UNL     1      28.145  42.651  53.781  1.00  0.00     0.417 C 
HETATM   24  F   UNL     1      28.966  43.674  54.150  1.00  0.00    -0.166 F 
HETATM   25  F   UNL     1      27.141  42.633  54.699  1.00  0.00    -0.166 F 
HETATM   26  F   UNL     1      28.860  41.510  53.980  1.00  0.00    -0.166 F 
ENDBRANCH  19  23
ENDBRANCH  14  17
ENDBRANCH  12  13
ENDBRANCH   7  12
BRANCH   1  27
HETATM   27  C   UNL     1      18.898  48.698  47.685  1.00  0.00     0.259 C 
HETATM   28  N   UNL     1      18.819  49.387  46.486  1.00  0.00    -0.355 N 
HETATM   29  H   UNL     1      19.532  49.185  45.793  1.00  0.00     0.162 HD
HETATM   30  O   UNL     1      17.895  48.623  48.396  1.00  0.00    -0.267 OA
BRANCH  28  31
HETATM   31  C   UNL     1      17.568  49.996  46.070  1.00  0.00     0.150 C 
BRANCH  31  32
HETATM   32  C   UNL     1      17.718  51.501  45.751  1.00  0.00     0.254 C 
BRANCH  32  33
HETATM   33  N   UNL     1      17.067  52.429  46.769  1.00  0.00    -0.070 N 
HETATM   34  H   UNL     1      17.447  53.361  46.552  1.00  0.00     0.279 HD
BRANCH  33  35
HETATM   35  C   UNL     1      17.477  52.163  48.209  1.00  0.00     0.230 C 
HETATM   36  C   UNL     1      18.920  52.557  48.463  1.00  0.00     0.034 C 
ENDBRANCH  33  35
BRANCH  33  37
HETATM   37  C   UNL     1      15.562  52.567  46.647  1.00  0.00     0.230 C 
HETATM   38  C   UNL     1      14.936  53.032  47.949  1.00  0.00     0.034 C 
ENDBRANCH  33  37
ENDBRANCH  32  33
ENDBRANCH  31  32
ENDBRANCH  28  31
ENDBRANCH   1  27
TORSDOF 10
ENDMDL
