MODEL 1
REMARK VINA RESULT:     -10.8      0.000      0.000
REMARK  2 active torsions:
REMARK  status: ('A' for Active; 'I' for Inactive)
REMARK    1  A    between atoms: N_4  and  C_5 
REMARK    2  A    between atoms: C_15  and  C_16 
REMARK       I    between atoms: C_16  and  N_17 
ROOT
HETATM    1  C   UNL     1      26.146  50.442  47.853  1.00  0.00     0.073 C 
HETATM    2  C   UNL     1      25.024  49.696  48.474  1.00  0.00     0.069 C 
HETATM    3  N   UNL     1      23.755  50.080  48.266  1.00  0.00    -0.170 NA
HETATM    4  N   UNL     1      22.996  49.231  49.025  1.00  0.00    -0.216 N 
HETATM    5  C   UNL     1      23.781  48.195  49.501  1.00  0.00     0.145 C 
HETATM    6  C   UNL     1      25.093  48.528  49.253  1.00  0.00     0.087 C 
HETATM    7  N   UNL     1      23.423  47.026  50.082  1.00  0.00    -0.349 N 
HETATM    8  C   UNL     1      24.429  46.130  50.401  1.00  0.00     0.111 C 
HETATM    9  C   UNL     1      25.752  46.366  50.243  1.00  0.00     0.099 C 
HETATM   10  C   UNL     1      26.189  47.699  49.720  1.00  0.00     0.205 C 
HETATM   11  O   UNL     1      27.356  48.071  49.690  1.00  0.00    -0.286 OA
HETATM   12  H   UNL     1      22.467  46.671  50.099  1.00  0.00     0.167 HD
ENDROOT
BRANCH   9  13
HETATM   13  C   UNL     1      26.657  45.281  50.702  1.00  0.00     0.264 C 
HETATM   14  N   UNL     1      26.832  45.072  52.060  1.00  0.00    -0.309 N 
HETATM   15  C   UNL     1      26.152  45.729  53.215  1.00  0.00     0.093 C 
HETATM   16  C   UNL     1      27.806  44.192  52.602  1.00  0.00     0.044 A 
HETATM   17  C   UNL     1      26.474  44.869  54.457  1.00  0.00     0.066 C 
HETATM   18  C   UNL     1      26.627  47.170  53.412  1.00  0.00     0.033 C 
HETATM   19  C   UNL     1      27.660  44.094  53.987  1.00  0.00    -0.029 A 
HETATM   20  C   UNL     1      28.501  43.302  54.756  1.00  0.00     0.009 A 
HETATM   21  C   UNL     1      29.529  42.612  54.114  1.00  0.00     0.001 A 
HETATM   22  C   UNL     1      29.688  42.711  52.725  1.00  0.00     0.002 A 
HETATM   23  C   UNL     1      28.821  43.499  51.961  1.00  0.00     0.030 A 
HETATM   24  O   UNL     1      27.273  44.670  49.824  1.00  0.00    -0.267 OA
ENDBRANCH   9  13
BRANCH   4  25
HETATM   25  C   UNL     1      21.618  49.509  49.252  1.00  0.00     0.060 A 
HETATM   26  C   UNL     1      21.245  50.772  49.737  1.00  0.00     0.031 A 
HETATM   27  C   UNL     1      19.903  51.059  49.995  1.00  0.00     0.002 A 
HETATM   28  C   UNL     1      18.929  50.086  49.791  1.00  0.00     0.000 A 
HETATM   29  C   UNL     1      19.294  48.821  49.332  1.00  0.00     0.002 A 
HETATM   30  C   UNL     1      20.634  48.529  49.065  1.00  0.00     0.031 A 
ENDBRANCH   4  25
TORSDOF 2
ENDMDL
MODEL 2
REMARK VINA RESULT:      -9.6      2.655      9.022
REMARK  2 active torsions:
REMARK  status: ('A' for Active; 'I' for Inactive)
REMARK    1  A    between atoms: N_4  and  C_5 
REMARK    2  A    between atoms: C_15  and  C_16 
REMARK       I    between atoms: C_16  and  N_17 
ROOT
HETATM    1  C   UNL     1      26.145  50.650  48.210  1.00  0.00     0.073 C 
HETATM    2  C   UNL     1      25.583  49.407  48.792  1.00  0.00     0.069 C 
HETATM    3  N   UNL     1      26.306  48.669  49.648  1.00  0.00    -0.170 NA
HETATM    4  N   UNL     1      25.526  47.581  49.930  1.00  0.00    -0.216 N 
HETATM    5  C   UNL     1      24.248  47.775  49.433  1.00  0.00     0.145 C 
HETATM    6  C   UNL     1      24.292  48.880  48.614  1.00  0.00     0.087 C 
HETATM    7  N   UNL     1      23.106  47.089  49.672  1.00  0.00    -0.349 N 
HETATM    8  C   UNL     1      21.941  47.553  49.086  1.00  0.00     0.111 C 
HETATM    9  C   UNL     1      21.870  48.599  48.231  1.00  0.00     0.099 C 
HETATM   10  C   UNL     1      23.134  49.303  47.846  1.00  0.00     0.205 C 
HETATM   11  O   UNL     1      23.202  50.151  46.965  1.00  0.00    -0.286 OA
HETATM   12  H   UNL     1      23.005  46.399  50.415  1.00  0.00     0.167 HD
ENDROOT
BRANCH   9  13
HETATM   13  C   UNL     1      20.521  48.889  47.682  1.00  0.00     0.264 C 
HETATM   14  N   UNL     1      19.888  50.072  48.022  1.00  0.00    -0.309 N 
HETATM   15  C   UNL     1      20.400  51.225  48.821  1.00  0.00     0.093 C 
HETATM   16  C   UNL     1      18.535  50.362  47.703  1.00  0.00     0.044 A 
HETATM   17  C   UNL     1      19.418  52.392  48.582  1.00  0.00     0.066 C 
HETATM   18  C   UNL     1      20.493  50.889  50.311  1.00  0.00     0.033 C 
HETATM   19  C   UNL     1      18.218  51.674  48.060  1.00  0.00    -0.029 A 
HETATM   20  C   UNL     1      16.948  52.199  47.862  1.00  0.00     0.009 A 
HETATM   21  C   UNL     1      15.970  51.371  47.312  1.00  0.00     0.001 A 
HETATM   22  C   UNL     1      16.277  50.051  46.957  1.00  0.00     0.002 A 
HETATM   23  C   UNL     1      17.566  49.542  47.146  1.00  0.00     0.030 A 
HETATM   24  O   UNL     1      20.001  47.998  47.002  1.00  0.00    -0.267 OA
ENDBRANCH   9  13
BRANCH   4  25
HETATM   25  C   UNL     1      26.079  46.456  50.605  1.00  0.00     0.060 A 
HETATM   26  C   UNL     1      26.001  46.389  52.004  1.00  0.00     0.031 A 
HETATM   27  C   UNL     1      26.562  45.310  52.691  1.00  0.00     0.002 A 
HETATM   28  C   UNL     1      27.221  44.303  51.990  1.00  0.00     0.000 A 
HETATM   29  C   UNL     1      27.324  44.374  50.602  1.00  0.00     0.002 A 
HETATM   30  C   UNL     1      26.758  45.447  49.908  1.00  0.00     0.031 A 
ENDBRANCH   4  25
TORSDOF 2
ENDMDL
MODEL 3
REMARK VINA RESULT:      -9.2     11.077     14.904
REMARK  2 active torsions:
REMARK  status: ('A' for Active; 'I' for Inactive)
REMARK    1  A    between atoms: N_4  and  C_5 
REMARK    2  A    between atoms: C_15  and  C_16 
REMARK       I    between atoms: C_16  and  N_17 
ROOT
HETATM    1  C   UNL     1      37.471  51.029  40.453  1.00  0.00     0.073 C 
HETATM    2  C   UNL     1      36.930  51.549  41.733  1.00  0.00     0.069 C 
HETATM    3  N   UNL     1      37.641  52.415  42.470  1.00  0.00    -0.170 NA
HETATM    4  N   UNL     1      36.890  52.631  43.593  1.00  0.00    -0.216 N 
HETATM    5  C   UNL     1      35.629  52.084  43.428  1.00  0.00     0.145 C 
HETATM    6  C   UNL     1      35.667  51.299  42.299  1.00  0.00     0.087 C 
HETATM    7  N   UNL     1      34.503  52.252  44.161  1.00  0.00    -0.349 N 
HETATM    8  C   UNL     1      33.348  51.629  43.721  1.00  0.00     0.111 C 
HETATM    9  C   UNL     1      33.276  50.803  42.652  1.00  0.00     0.099 C 
HETATM   10  C   UNL     1      34.529  50.494  41.893  1.00  0.00     0.205 C 
HETATM   11  O   UNL     1      34.604  49.642  41.017  1.00  0.00    -0.286 OA
HETATM   12  H   UNL     1      34.395  52.970  44.877  1.00  0.00     0.167 HD
ENDROOT
BRANCH   9  13
HETATM   13  C   UNL     1      31.942  50.202  42.393  1.00  0.00     0.264 C 
HETATM   14  N   UNL     1      31.210  50.621  41.295  1.00  0.00    -0.309 N 
HETATM   15  C   UNL     1      31.596  51.563  40.203  1.00  0.00     0.093 C 
HETATM   16  C   UNL     1      29.859  50.250  41.060  1.00  0.00     0.044 A 
HETATM   17  C   UNL     1      30.548  51.383  39.082  1.00  0.00     0.066 C 
HETATM   18  C   UNL     1      31.630  53.014  40.687  1.00  0.00     0.033 C 
HETATM   19  C   UNL     1      29.432  50.718  39.816  1.00  0.00    -0.029 A 
HETATM   20  C   UNL     1      28.142  50.496  39.356  1.00  0.00     0.009 A 
HETATM   21  C   UNL     1      27.255  49.806  40.182  1.00  0.00     0.001 A 
HETATM   22  C   UNL     1      27.673  49.339  41.435  1.00  0.00     0.002 A 
HETATM   23  C   UNL     1      28.982  49.554  41.878  1.00  0.00     0.030 A 
HETATM   24  O   UNL     1      31.524  49.406  43.239  1.00  0.00    -0.267 OA
ENDBRANCH   9  13
BRANCH   4  25
HETATM   25  C   UNL     1      37.454  53.296  44.718  1.00  0.00     0.060 A 
HETATM   26  C   UNL     1      37.574  54.694  44.698  1.00  0.00     0.031 A 
HETATM   27  C   UNL     1      38.152  55.367  45.777  1.00  0.00     0.002 A 
HETATM   28  C   UNL     1      38.629  54.652  46.872  1.00  0.00     0.000 A 
HETATM   29  C   UNL     1      38.535  53.261  46.889  1.00  0.00     0.002 A 
HETATM   30  C   UNL     1      37.953  52.582  45.816  1.00  0.00     0.031 A 
ENDBRANCH   4  25
TORSDOF 2
ENDMDL
MODEL 4
REMARK VINA RESULT:      -9.1      1.689      2.729
REMARK  2 active torsions:
REMARK  status: ('A' for Active; 'I' for Inactive)
REMARK    1  A    between atoms: N_4  and  C_5 
REMARK    2  A    between atoms: C_15  and  C_16 
REMARK       I    between atoms: C_16  and  N_17 
ROOT
HETATM    1  C   UNL     1      21.520  43.992  47.767  1.00  0.00     0.073 C 
HETATM    2  C   UNL     1      22.091  45.254  48.296  1.00  0.00     0.069 C 
HETATM    3  N   UNL     1      21.364  46.382  48.298  1.00  0.00    -0.170 NA
HETATM    4  N   UNL     1      22.203  47.348  48.782  1.00  0.00    -0.216 N 
HETATM    5  C   UNL     1      23.351  46.764  49.290  1.00  0.00     0.145 C 
HETATM    6  C   UNL     1      23.349  45.446  48.895  1.00  0.00     0.087 C 
HETATM    7  N   UNL     1      24.329  47.292  50.063  1.00  0.00    -0.349 N 
HETATM    8  C   UNL     1      25.341  46.448  50.489  1.00  0.00     0.111 C 
HETATM    9  C   UNL     1      25.464  45.149  50.130  1.00  0.00     0.099 C 
HETATM   10  C   UNL     1      24.469  44.566  49.175  1.00  0.00     0.205 C 
HETATM   11  O   UNL     1      24.580  43.458  48.665  1.00  0.00    -0.286 OA
HETATM   12  H   UNL     1      24.259  48.197  50.526  1.00  0.00     0.167 HD
ENDROOT
BRANCH   9  13
HETATM   13  C   UNL     1      26.658  44.446  50.666  1.00  0.00     0.264 C 
HETATM   14  N   UNL     1      26.775  44.249  52.031  1.00  0.00    -0.309 N 
HETATM   15  C   UNL     1      25.800  44.555  53.120  1.00  0.00     0.093 C 
HETATM   16  C   UNL     1      27.950  43.756  52.659  1.00  0.00     0.044 A 
HETATM   17  C   UNL     1      26.301  43.812  54.377  1.00  0.00     0.066 C 
HETATM   18  C   UNL     1      25.694  46.059  53.383  1.00  0.00     0.033 C 
HETATM   19  C   UNL     1      27.726  43.544  54.020  1.00  0.00    -0.029 A 
HETATM   20  C   UNL     1      28.725  43.075  54.861  1.00  0.00     0.009 A 
HETATM   21  C   UNL     1      29.988  42.839  54.318  1.00  0.00     0.001 A 
HETATM   22  C   UNL     1      30.225  43.056  52.955  1.00  0.00     0.002 A 
HETATM   23  C   UNL     1      29.202  43.512  52.116  1.00  0.00     0.030 A 
HETATM   24  O   UNL     1      27.533  44.145  49.847  1.00  0.00    -0.267 OA
ENDBRANCH   9  13
BRANCH   4  25
HETATM   25  C   UNL     1      21.850  48.723  48.679  1.00  0.00     0.060 A 
HETATM   26  C   UNL     1      22.742  49.615  48.064  1.00  0.00     0.031 A 
HETATM   27  C   UNL     1      22.431  50.974  47.976  1.00  0.00     0.002 A 
HETATM   28  C   UNL     1      21.241  51.454  48.517  1.00  0.00     0.000 A 
HETATM   29  C   UNL     1      20.360  50.579  49.150  1.00  0.00     0.002 A 
HETATM   30  C   UNL     1      20.662  49.217  49.235  1.00  0.00     0.031 A 
ENDBRANCH   4  25
TORSDOF 2
ENDMDL
MODEL 5
REMARK VINA RESULT:      -9.0      4.617      8.543
REMARK  2 active torsions:
REMARK  status: ('A' for Active; 'I' for Inactive)
REMARK    1  A    between atoms: N_4  and  C_5 
REMARK    2  A    between atoms: C_15  and  C_16 
REMARK       I    between atoms: C_16  and  N_17 
ROOT
HETATM    1  C   UNL     1      26.638  48.678  55.195  1.00  0.00     0.073 C 
HETATM    2  C   UNL     1      27.228  47.317  55.184  1.00  0.00     0.069 C 
HETATM    3  N   UNL     1      28.144  46.965  56.100  1.00  0.00    -0.170 NA
HETATM    4  N   UNL     1      28.517  45.693  55.763  1.00  0.00    -0.216 N 
HETATM    5  C   UNL     1      27.664  45.193  54.794  1.00  0.00     0.145 C 
HETATM    6  C   UNL     1      26.905  46.244  54.335  1.00  0.00     0.087 C 
HETATM    7  N   UNL     1      27.507  43.927  54.340  1.00  0.00    -0.349 N 
HETATM    8  C   UNL     1      26.516  43.697  53.401  1.00  0.00     0.111 C 
HETATM    9  C   UNL     1      25.740  44.657  52.847  1.00  0.00     0.099 C 
HETATM   10  C   UNL     1      25.972  46.085  53.234  1.00  0.00     0.205 C 
HETATM   11  O   UNL     1      25.439  47.038  52.678  1.00  0.00    -0.286 OA
HETATM   12  H   UNL     1      27.911  43.108  54.794  1.00  0.00     0.167 HD
ENDROOT
BRANCH   9  13
HETATM   13  C   UNL     1      24.775  44.189  51.820  1.00  0.00     0.264 C 
HETATM   14  N   UNL     1      25.249  43.586  50.667  1.00  0.00    -0.309 N 
HETATM   15  C   UNL     1      26.648  43.215  50.299  1.00  0.00     0.093 C 
HETATM   16  C   UNL     1      24.431  43.270  49.549  1.00  0.00     0.044 A 
HETATM   17  C   UNL     1      26.541  42.268  49.083  1.00  0.00     0.066 C 
HETATM   18  C   UNL     1      27.492  44.444  49.959  1.00  0.00     0.033 C 
HETATM   19  C   UNL     1      25.160  42.556  48.596  1.00  0.00    -0.029 A 
HETATM   20  C   UNL     1      24.589  42.139  47.402  1.00  0.00     0.009 A 
HETATM   21  C   UNL     1      23.257  42.472  47.155  1.00  0.00     0.001 A 
HETATM   22  C   UNL     1      22.520  43.194  48.102  1.00  0.00     0.002 A 
HETATM   23  C   UNL     1      23.105  43.592  49.310  1.00  0.00     0.030 A 
HETATM   24  O   UNL     1      23.584  44.445  52.026  1.00  0.00    -0.267 OA
ENDBRANCH   9  13
BRANCH   4  25
HETATM   25  C   UNL     1      29.663  45.098  56.363  1.00  0.00     0.060 A 
HETATM   26  C   UNL     1      30.333  44.067  55.687  1.00  0.00     0.031 A 
HETATM   27  C   UNL     1      31.442  43.448  56.268  1.00  0.00     0.002 A 
HETATM   28  C   UNL     1      31.877  43.838  57.532  1.00  0.00     0.000 A 
HETATM   29  C   UNL     1      31.202  44.845  58.220  1.00  0.00     0.002 A 
HETATM   30  C   UNL     1      30.096  45.473  57.642  1.00  0.00     0.031 A 
ENDBRANCH   4  25
TORSDOF 2
ENDMDL
MODEL 6
REMARK VINA RESULT:      -8.8      4.251     10.576
REMARK  2 active torsions:
REMARK  status: ('A' for Active; 'I' for Inactive)
REMARK    1  A    between atoms: N_4  and  C_5 
REMARK    2  A    between atoms: C_15  and  C_16 
REMARK       I    between atoms: C_16  and  N_17 
ROOT
HETATM    1  C   UNL     1      20.630  45.997  48.233  1.00  0.00     0.073 C 
HETATM    2  C   UNL     1      21.457  47.199  48.502  1.00  0.00     0.069 C 
HETATM    3  N   UNL     1      22.779  47.181  48.268  1.00  0.00    -0.170 NA
HETATM    4  N   UNL     1      23.232  48.404  48.681  1.00  0.00    -0.216 N 
HETATM    5  C   UNL     1      22.160  49.240  48.942  1.00  0.00     0.145 C 
HETATM    6  C   UNL     1      21.024  48.463  48.939  1.00  0.00     0.087 C 
HETATM    7  N   UNL     1      22.127  50.578  49.143  1.00  0.00    -0.349 N 
HETATM    8  C   UNL     1      20.889  51.174  49.317  1.00  0.00     0.111 C 
HETATM    9  C   UNL     1      19.713  50.507  49.374  1.00  0.00     0.099 C 
HETATM   10  C   UNL     1      19.725  49.013  49.282  1.00  0.00     0.205 C 
HETATM   11  O   UNL     1      18.743  48.309  49.481  1.00  0.00    -0.286 OA
HETATM   12  H   UNL     1      22.915  51.198  48.959  1.00  0.00     0.167 HD
ENDROOT
BRANCH   9  13
HETATM   13  C   UNL     1      18.511  51.346  49.619  1.00  0.00     0.264 C 
HETATM   14  N   UNL     1      17.565  51.486  48.619  1.00  0.00    -0.309 N 
HETATM   15  C   UNL     1      17.491  50.821  47.284  1.00  0.00     0.093 C 
HETATM   16  C   UNL     1      16.481  52.402  48.682  1.00  0.00     0.044 A 
HETATM   17  C   UNL     1      16.065  51.076  46.748  1.00  0.00     0.066 C 
HETATM   18  C   UNL     1      18.542  51.368  46.316  1.00  0.00     0.033 C 
HETATM   19  C   UNL     1      15.627  52.226  47.592  1.00  0.00    -0.029 A 
HETATM   20  C   UNL     1      14.496  53.011  47.416  1.00  0.00     0.009 A 
HETATM   21  C   UNL     1      14.235  54.013  48.351  1.00  0.00     0.001 A 
HETATM   22  C   UNL     1      15.090  54.201  49.444  1.00  0.00     0.002 A 
HETATM   23  C   UNL     1      16.217  53.390  49.618  1.00  0.00     0.030 A 
HETATM   24  O   UNL     1      18.470  51.945  50.699  1.00  0.00    -0.267 OA
ENDBRANCH   9  13
BRANCH   4  25
HETATM   25  C   UNL     1      24.628  48.642  48.822  1.00  0.00     0.060 A 
HETATM   26  C   UNL     1      25.394  47.773  49.614  1.00  0.00     0.031 A 
HETATM   27  C   UNL     1      26.761  48.002  49.792  1.00  0.00     0.002 A 
HETATM   28  C   UNL     1      27.367  49.106  49.199  1.00  0.00     0.000 A 
HETATM   29  C   UNL     1      26.608  49.987  48.430  1.00  0.00     0.002 A 
HETATM   30  C   UNL     1      25.242  49.760  48.242  1.00  0.00     0.031 A 
ENDBRANCH   4  25
TORSDOF 2
ENDMDL
MODEL 7
REMARK VINA RESULT:      -8.5      4.381      8.326
REMARK  2 active torsions:
REMARK  status: ('A' for Active; 'I' for Inactive)
REMARK    1  A    between atoms: N_4  and  C_5 
REMARK    2  A    between atoms: C_15  and  C_16 
REMARK       I    between atoms: C_16  and  N_17 
ROOT
HETATM    1  C   UNL     1      25.720  47.144  52.569  1.00  0.00     0.073 C 
HETATM    2  C   UNL     1      26.652  46.021  52.834  1.00  0.00     0.069 C 
HETATM    3  N   UNL     1      27.263  45.910  54.023  1.00  0.00    -0.170 NA
HETATM    4  N   UNL     1      28.085  44.823  53.903  1.00  0.00    -0.216 N 
HETATM    5  C   UNL     1      27.799  44.142  52.732  1.00  0.00     0.145 C 
HETATM    6  C   UNL     1      26.967  44.944  51.986  1.00  0.00     0.087 C 
HETATM    7  N   UNL     1      28.185  42.911  52.323  1.00  0.00    -0.349 N 
HETATM    8  C   UNL     1      27.686  42.446  51.118  1.00  0.00     0.111 C 
HETATM    9  C   UNL     1      26.897  43.160  50.282  1.00  0.00     0.099 C 
HETATM   10  C   UNL     1      26.554  44.572  50.645  1.00  0.00     0.205 C 
HETATM   11  O   UNL     1      25.985  45.351  49.890  1.00  0.00    -0.286 OA
HETATM   12  H   UNL     1      28.633  42.227  52.931  1.00  0.00     0.167 HD
ENDROOT
BRANCH   9  13
HETATM   13  C   UNL     1      26.521  42.480  49.017  1.00  0.00     0.264 C 
HETATM   14  N   UNL     1      25.187  42.405  48.656  1.00  0.00    -0.309 N 
HETATM   15  C   UNL     1      23.992  43.013  49.314  1.00  0.00     0.093 C 
HETATM   16  C   UNL     1      24.706  41.625  47.570  1.00  0.00     0.044 A 
HETATM   17  C   UNL     1      22.832  42.901  48.300  1.00  0.00     0.066 C 
HETATM   18  C   UNL     1      23.640  42.304  50.623  1.00  0.00     0.033 C 
HETATM   19  C   UNL     1      23.343  41.849  47.373  1.00  0.00    -0.029 A 
HETATM   20  C   UNL     1      22.632  41.194  46.376  1.00  0.00     0.009 A 
HETATM   21  C   UNL     1      23.309  40.273  45.578  1.00  0.00     0.001 A 
HETATM   22  C   UNL     1      24.676  40.037  45.774  1.00  0.00     0.002 A 
HETATM   23  C   UNL     1      25.383  40.718  46.770  1.00  0.00     0.030 A 
HETATM   24  O   UNL     1      27.438  41.939  48.390  1.00  0.00    -0.267 OA
ENDBRANCH   9  13
BRANCH   4  25
HETATM   25  C   UNL     1      29.081  44.564  54.888  1.00  0.00     0.060 A 
HETATM   26  C   UNL     1      29.325  45.522  55.884  1.00  0.00     0.031 A 
HETATM   27  C   UNL     1      30.317  45.304  56.843  1.00  0.00     0.002 A 
HETATM   28  C   UNL     1      31.082  44.142  56.805  1.00  0.00     0.000 A 
HETATM   29  C   UNL     1      30.861  43.195  55.805  1.00  0.00     0.002 A 
HETATM   30  C   UNL     1      29.866  43.404  54.845  1.00  0.00     0.031 A 
ENDBRANCH   4  25
TORSDOF 2
ENDMDL
MODEL 8
REMARK VINA RESULT:      -8.4     11.606     15.040
REMARK  2 active torsions:
REMARK  status: ('A' for Active; 'I' for Inactive)
REMARK    1  A    between atoms: N_4  and  C_5 
REMARK    2  A    between atoms: C_15  and  C_16 
REMARK       I    between atoms: C_16  and  N_17 
ROOT
HETATM    1  C   UNL     1      32.243  51.684  43.555  1.00  0.00     0.073 C 
HETATM    2  C   UNL     1      32.767  51.554  42.173  1.00  0.00     0.069 C 
HETATM    3  N   UNL     1      34.087  51.600  41.939  1.00  0.00    -0.170 NA
HETATM    4  N   UNL     1      34.213  51.518  40.579  1.00  0.00    -0.216 N 
HETATM    5  C   UNL     1      32.993  51.189  40.012  1.00  0.00     0.145 C 
HETATM    6  C   UNL     1      32.038  51.312  40.995  1.00  0.00     0.087 C 
HETATM    7  N   UNL     1      32.698  50.780  38.756  1.00  0.00    -0.349 N 
HETATM    8  C   UNL     1      31.383  50.447  38.478  1.00  0.00     0.111 C 
HETATM    9  C   UNL     1      30.355  50.569  39.350  1.00  0.00     0.099 C 
HETATM   10  C   UNL     1      30.626  51.137  40.709  1.00  0.00     0.205 C 
HETATM   11  O   UNL     1      29.749  51.437  41.510  1.00  0.00    -0.286 OA
HETATM   12  H   UNL     1      33.399  50.495  38.073  1.00  0.00     0.167 HD
ENDROOT
BRANCH   9  13
HETATM   13  C   UNL     1      29.017  50.201  38.821  1.00  0.00     0.264 C 
HETATM   14  N   UNL     1      28.415  49.031  39.251  1.00  0.00    -0.309 N 
HETATM   15  C   UNL     1      28.864  48.062  40.294  1.00  0.00     0.093 C 
HETATM   16  C   UNL     1      27.230  48.497  38.676  1.00  0.00     0.044 A 
HETATM   17  C   UNL     1      27.650  47.157  40.600  1.00  0.00     0.066 C 
HETATM   18  C   UNL     1      30.058  47.230  39.822  1.00  0.00     0.033 C 
HETATM   19  C   UNL     1      26.794  47.386  39.399  1.00  0.00    -0.029 A 
HETATM   20  C   UNL     1      25.659  46.675  39.032  1.00  0.00     0.009 A 
HETATM   21  C   UNL     1      24.964  47.082  37.893  1.00  0.00     0.001 A 
HETATM   22  C   UNL     1      25.399  48.192  37.158  1.00  0.00     0.002 A 
HETATM   23  C   UNL     1      26.534  48.910  37.551  1.00  0.00     0.030 A 
HETATM   24  O   UNL     1      28.549  50.939  37.948  1.00  0.00    -0.267 OA
ENDBRANCH   9  13
BRANCH   4  25
HETATM   25  C   UNL     1      35.461  51.798  39.955  1.00  0.00     0.060 A 
HETATM   26  C   UNL     1      35.711  53.091  39.471  1.00  0.00     0.031 A 
HETATM   27  C   UNL     1      36.916  53.383  38.829  1.00  0.00     0.002 A 
HETATM   28  C   UNL     1      37.871  52.385  38.649  1.00  0.00     0.000 A 
HETATM   29  C   UNL     1      37.622  51.092  39.107  1.00  0.00     0.002 A 
HETATM   30  C   UNL     1      36.420  50.795  39.756  1.00  0.00     0.031 A 
ENDBRANCH   4  25
TORSDOF 2
ENDMDL
MODEL 9
REMARK VINA RESULT:      -8.4     11.159     13.386
REMARK  2 active torsions:
REMARK  status: ('A' for Active; 'I' for Inactive)
REMARK    1  A    between atoms: N_4  and  C_5 
REMARK    2  A    between atoms: C_15  and  C_16 
REMARK       I    between atoms: C_16  and  N_17 
ROOT
HETATM    1  C   UNL     1      29.607  52.452  39.059  1.00  0.00     0.073 C 
HETATM    2  C   UNL     1      29.874  51.176  39.767  1.00  0.00     0.069 C 
HETATM    3  N   UNL     1      29.265  50.044  39.382  1.00  0.00    -0.170 NA
HETATM    4  N   UNL     1      29.679  49.093  40.274  1.00  0.00    -0.216 N 
HETATM    5  C   UNL     1      30.712  49.592  41.050  1.00  0.00     0.145 C 
HETATM    6  C   UNL     1      30.779  50.947  40.818  1.00  0.00     0.087 C 
HETATM    7  N   UNL     1      31.567  48.951  41.880  1.00  0.00    -0.349 N 
HETATM    8  C   UNL     1      32.562  49.700  42.485  1.00  0.00     0.111 C 
HETATM    9  C   UNL     1      32.700  51.041  42.365  1.00  0.00     0.099 C 
HETATM   10  C   UNL     1      31.695  51.800  41.555  1.00  0.00     0.205 C 
HETATM   11  O   UNL     1      31.634  53.022  41.514  1.00  0.00    -0.286 OA
HETATM   12  H   UNL     1      31.665  47.937  41.919  1.00  0.00     0.167 HD
ENDROOT
BRANCH   9  13
HETATM   13  C   UNL     1      33.811  51.644  43.145  1.00  0.00     0.264 C 
HETATM   14  N   UNL     1      35.018  51.903  42.519  1.00  0.00    -0.309 N 
HETATM   15  C   UNL     1      35.389  51.760  41.080  1.00  0.00     0.093 C 
HETATM   16  C   UNL     1      36.193  52.305  43.209  1.00  0.00     0.044 A 
HETATM   17  C   UNL     1      36.724  52.516  40.896  1.00  0.00     0.066 C 
HETATM   18  C   UNL     1      35.534  50.292  40.672  1.00  0.00     0.033 C 
HETATM   19  C   UNL     1      37.210  52.614  42.304  1.00  0.00    -0.029 A 
HETATM   20  C   UNL     1      38.467  53.023  42.729  1.00  0.00     0.009 A 
HETATM   21  C   UNL     1      38.709  53.096  44.101  1.00  0.00     0.001 A 
HETATM   22  C   UNL     1      37.696  52.780  45.016  1.00  0.00     0.002 A 
HETATM   23  C   UNL     1      36.429  52.387  44.572  1.00  0.00     0.030 A 
HETATM   24  O   UNL     1      33.609  51.807  44.352  1.00  0.00    -0.267 OA
ENDBRANCH   9  13
BRANCH   4  25
HETATM   25  C   UNL     1      29.030  47.827  40.327  1.00  0.00     0.060 A 
HETATM   26  C   UNL     1      29.548  46.759  39.579  1.00  0.00     0.031 A 
HETATM   27  C   UNL     1      28.913  45.516  39.591  1.00  0.00     0.002 A 
HETATM   28  C   UNL     1      27.749  45.334  40.333  1.00  0.00     0.000 A 
HETATM   29  C   UNL     1      27.214  46.396  41.061  1.00  0.00     0.002 A 
HETATM   30  C   UNL     1      27.849  47.642  41.058  1.00  0.00     0.031 A 
ENDBRANCH   4  25
TORSDOF 2
ENDMDL
MODEL 10
REMARK VINA RESULT:      -8.3      4.738      8.365
REMARK  2 active torsions:
REMARK  status: ('A' for Active; 'I' for Inactive)
REMARK    1  A    between atoms: N_4  and  C_5 
REMARK    2  A    between atoms: C_15  and  C_16 
REMARK       I    between atoms: C_16  and  N_17 
ROOT
HETATM    1  C   UNL     1      25.681  47.786  53.647  1.00  0.00     0.073 C 
HETATM    2  C   UNL     1      26.396  46.496  53.805  1.00  0.00     0.069 C 
HETATM    3  N   UNL     1      27.323  46.345  54.764  1.00  0.00    -0.170 NA
HETATM    4  N   UNL     1      27.819  45.082  54.585  1.00  0.00    -0.216 N 
HETATM    5  C   UNL     1      27.036  44.392  53.677  1.00  0.00     0.145 C 
HETATM    6  C   UNL     1      26.191  45.304  53.088  1.00  0.00     0.087 C 
HETATM    7  N   UNL     1      27.007  43.072  53.377  1.00  0.00    -0.349 N 
HETATM    8  C   UNL     1      26.060  42.639  52.465  1.00  0.00     0.111 C 
HETATM    9  C   UNL     1      25.208  43.448  51.793  1.00  0.00     0.099 C 
HETATM   10  C   UNL     1      25.298  44.927  52.007  1.00  0.00     0.205 C 
HETATM   11  O   UNL     1      24.690  45.752  51.337  1.00  0.00    -0.286 OA
HETATM   12  H   UNL     1      27.476  42.355  53.929  1.00  0.00     0.167 HD
ENDROOT
BRANCH   9  13
HETATM   13  C   UNL     1      24.311  42.771  50.822  1.00  0.00     0.264 C 
HETATM   14  N   UNL     1      24.857  41.951  49.850  1.00  0.00    -0.309 N 
HETATM   15  C   UNL     1      26.276  41.527  49.656  1.00  0.00     0.093 C 
HETATM   16  C   UNL     1      24.114  41.406  48.769  1.00  0.00     0.044 A 
HETATM   17  C   UNL     1      26.247  40.352  48.654  1.00  0.00     0.066 C 
HETATM   18  C   UNL     1      27.146  42.670  49.129  1.00  0.00     0.033 C 
HETATM   19  C   UNL     1      24.901  40.521  48.030  1.00  0.00    -0.029 A 
HETATM   20  C   UNL     1      24.408  39.864  46.911  1.00  0.00     0.009 A 
HETATM   21  C   UNL     1      23.097  40.127  46.515  1.00  0.00     0.001 A 
HETATM   22  C   UNL     1      22.302  41.019  47.246  1.00  0.00     0.002 A 
HETATM   23  C   UNL     1      22.807  41.660  48.383  1.00  0.00     0.030 A 
HETATM   24  O   UNL     1      23.110  43.052  50.894  1.00  0.00    -0.267 OA
ENDBRANCH   9  13
BRANCH   4  25
HETATM   25  C   UNL     1      29.004  44.675  55.262  1.00  0.00     0.060 A 
HETATM   26  C   UNL     1      29.489  45.454  56.324  1.00  0.00     0.031 A 
HETATM   27  C   UNL     1      30.665  45.091  56.984  1.00  0.00     0.002 A 
HETATM   28  C   UNL     1      31.374  43.963  56.579  1.00  0.00     0.000 A 
HETATM   29  C   UNL     1      30.912  43.197  55.510  1.00  0.00     0.002 A 
HETATM   30  C   UNL     1      29.732  43.551  54.849  1.00  0.00     0.031 A 
ENDBRANCH   4  25
TORSDOF 2
ENDMDL
