MODEL 1
REMARK VINA RESULT:      -8.7      0.000      0.000
REMARK  4 active torsions:
REMARK  status: ('A' for Active; 'I' for Inactive)
REMARK    1  A    between atoms: C_9  and  C_10 
REMARK    2  A    between atoms: C_11  and  O_12 
REMARK    3  A    between atoms: C_18  and  C_19 
REMARK       I    between atoms: C_19  and  N_20 
REMARK    4  A    between atoms: N_20  and  C_21 
ROOT
HETATM    1  C   UNL     1      29.247  40.380  51.880  1.00  0.00     0.070 C 
HETATM    2  C   UNL     1      28.023  41.064  51.323  1.00  0.00     0.037 C 
HETATM    3  N   UNL     1      27.608  40.625  50.070  1.00  0.00    -0.192 N 
HETATM    4  C   UNL     1      26.414  40.950  49.539  1.00  0.00     0.725 A 
HETATM    5  N   UNL     1      25.621  41.871  50.171  1.00  0.00    -0.084 N 
HETATM    6  N   UNL     1      24.433  42.006  49.542  1.00  0.00    -0.149 NA
HETATM    7  C   UNL     1      24.602  41.168  48.514  1.00  0.00     0.275 A 
HETATM    8  N   UNL     1      25.800  40.503  48.474  1.00  0.00    -0.054 NA
HETATM    9  C   UNL     1      26.003  42.578  51.402  1.00  0.00     0.205 C 
HETATM   10  C   UNL     1      27.297  42.004  51.977  1.00  0.00     0.063 C 
HETATM   11  H   UNL     1      28.119  39.853  49.649  1.00  0.00     0.184 HD
ENDROOT
BRANCH  10  12
HETATM   12  C   UNL     1      27.624  42.482  53.344  1.00  0.00     0.256 C 
HETATM   13  N   UNL     1      28.610  43.445  53.357  1.00  0.00    -0.323 N 
HETATM   14  H   UNL     1      28.985  43.728  52.461  1.00  0.00     0.169 HD
HETATM   15  O   UNL     1      27.018  42.015  54.300  1.00  0.00    -0.267 OA
BRANCH  13  16
HETATM   16  C   UNL     1      29.184  44.063  54.488  1.00  0.00     0.035 A 
HETATM   17  C   UNL     1      30.312  43.576  55.154  1.00  0.00     0.031 A 
HETATM   18  C   UNL     1      30.830  44.256  56.263  1.00  0.00     0.026 A 
HETATM   19  C   UNL     1      30.226  45.427  56.706  1.00  0.00     0.034 A 
HETATM   20 CL   UNL     1      30.869  46.267  58.063  1.00  0.00    -0.084 Cl
HETATM   21  C   UNL     1      29.100  45.923  56.055  1.00  0.00     0.026 A 
HETATM   22  C   UNL     1      28.579  45.239  54.952  1.00  0.00     0.031 A 
ENDBRANCH  13  16
ENDBRANCH  10  12
BRANCH   9  23
HETATM   23  C   UNL     1      26.107  44.076  51.113  1.00  0.00     0.005 A 
HETATM   24  C   UNL     1      25.391  45.008  51.887  1.00  0.00     0.076 A 
HETATM   25  C   UNL     1      25.494  46.374  51.608  1.00  0.00     0.037 A 
HETATM   26  C   UNL     1      26.283  46.823  50.547  1.00  0.00     0.003 A 
HETATM   27  C   UNL     1      26.975  45.910  49.759  1.00  0.00     0.001 A 
HETATM   28  C   UNL     1      26.890  44.547  50.039  1.00  0.00     0.012 A 
BRANCH  24  29
HETATM   29  O   UNL     1      24.643  44.503  52.918  1.00  0.00    -0.355 OA
HETATM   30  C   UNL     1      25.049  44.877  54.230  1.00  0.00     0.210 C 
ENDBRANCH  24  29
ENDBRANCH   9  23
TORSDOF 4
ENDMDL
MODEL 2
REMARK VINA RESULT:      -7.6      6.226      9.097
REMARK  4 active torsions:
REMARK  status: ('A' for Active; 'I' for Inactive)
REMARK    1  A    between atoms: C_9  and  C_10 
REMARK    2  A    between atoms: C_11  and  O_12 
REMARK    3  A    between atoms: C_18  and  C_19 
REMARK       I    between atoms: C_19  and  N_20 
REMARK    4  A    between atoms: N_20  and  C_21 
ROOT
HETATM    1  C   UNL     1      25.111  48.440  49.312  1.00  0.00     0.070 C 
HETATM    2  C   UNL     1      24.454  47.083  49.352  1.00  0.00     0.037 C 
HETATM    3  N   UNL     1      25.246  46.047  49.837  1.00  0.00    -0.192 N 
HETATM    4  C   UNL     1      24.750  44.838  50.164  1.00  0.00     0.725 A 
HETATM    5  N   UNL     1      23.444  44.542  49.875  1.00  0.00    -0.084 N 
HETATM    6  N   UNL     1      23.103  43.324  50.349  1.00  0.00    -0.149 NA
HETATM    7  C   UNL     1      24.269  42.928  50.873  1.00  0.00     0.275 A 
HETATM    8  N   UNL     1      25.302  43.824  50.779  1.00  0.00    -0.054 NA
HETATM    9  C   UNL     1      22.527  45.459  49.182  1.00  0.00     0.205 C 
HETATM   10  C   UNL     1      23.164  46.837  49.013  1.00  0.00     0.063 C 
HETATM   11  H   UNL     1      26.176  46.283  50.172  1.00  0.00     0.184 HD
ENDROOT
BRANCH  10  12
HETATM   12  C   UNL     1      22.226  47.892  48.553  1.00  0.00     0.256 C 
HETATM   13  N   UNL     1      21.672  48.610  49.591  1.00  0.00    -0.323 N 
HETATM   14  H   UNL     1      21.964  48.361  50.527  1.00  0.00     0.169 HD
HETATM   15  O   UNL     1      22.037  48.040  47.353  1.00  0.00    -0.267 OA
BRANCH  13  16
HETATM   16  C   UNL     1      20.711  49.638  49.499  1.00  0.00     0.035 A 
HETATM   17  C   UNL     1      20.936  50.862  48.864  1.00  0.00     0.031 A 
HETATM   18  C   UNL     1      19.924  51.828  48.802  1.00  0.00     0.026 A 
HETATM   19  C   UNL     1      18.681  51.570  49.372  1.00  0.00     0.034 A 
HETATM   20 CL   UNL     1      17.435  52.753  49.287  1.00  0.00    -0.084 Cl
HETATM   21  C   UNL     1      18.442  50.357  50.010  1.00  0.00     0.026 A 
HETATM   22  C   UNL     1      19.457  49.396  50.077  1.00  0.00     0.031 A 
ENDBRANCH  13  16
ENDBRANCH  10  12
BRANCH   9  23
HETATM   23  C   UNL     1      22.109  44.842  47.847  1.00  0.00     0.005 A 
HETATM   24  C   UNL     1      20.754  44.585  47.567  1.00  0.00     0.076 A 
HETATM   25  C   UNL     1      20.389  44.017  46.342  1.00  0.00     0.037 A 
HETATM   26  C   UNL     1      21.362  43.675  45.401  1.00  0.00     0.003 A 
HETATM   27  C   UNL     1      22.706  43.901  45.676  1.00  0.00     0.001 A 
HETATM   28  C   UNL     1      23.079  44.480  46.888  1.00  0.00     0.012 A 
BRANCH  24  29
HETATM   29  O   UNL     1      19.850  44.952  48.528  1.00  0.00    -0.355 OA
HETATM   30  C   UNL     1      18.977  46.026  48.193  1.00  0.00     0.210 C 
ENDBRANCH  24  29
ENDBRANCH   9  23
TORSDOF 4
ENDMDL
MODEL 3
REMARK VINA RESULT:      -7.1     10.477     13.561
REMARK  4 active torsions:
REMARK  status: ('A' for Active; 'I' for Inactive)
REMARK    1  A    between atoms: C_9  and  C_10 
REMARK    2  A    between atoms: C_11  and  O_12 
REMARK    3  A    between atoms: C_18  and  C_19 
REMARK       I    between atoms: C_19  and  N_20 
REMARK    4  A    between atoms: N_20  and  C_21 
ROOT
HETATM    1  C   UNL     1      14.823  49.956  45.779  1.00  0.00     0.070 C 
HETATM    2  C   UNL     1      15.416  50.681  46.962  1.00  0.00     0.037 C 
HETATM    3  N   UNL     1      15.070  52.023  47.079  1.00  0.00    -0.192 N 
HETATM    4  C   UNL     1      15.311  52.747  48.190  1.00  0.00     0.725 A 
HETATM    5  N   UNL     1      16.059  52.205  49.201  1.00  0.00    -0.084 N 
HETATM    6  N   UNL     1      16.123  53.039  50.262  1.00  0.00    -0.149 NA
HETATM    7  C   UNL     1      15.426  54.082  49.798  1.00  0.00     0.275 A 
HETATM    8  N   UNL     1      14.913  53.945  48.534  1.00  0.00    -0.054 NA
HETATM    9  C   UNL     1      16.667  50.867  49.148  1.00  0.00     0.205 C 
HETATM   10  C   UNL     1      16.189  50.103  47.915  1.00  0.00     0.063 C 
HETATM   11  H   UNL     1      14.414  52.401  46.401  1.00  0.00     0.184 HD
ENDROOT
BRANCH  10  12
HETATM   12  C   UNL     1      16.550  48.663  47.910  1.00  0.00     0.256 C 
HETATM   13  N   UNL     1      17.722  48.403  47.231  1.00  0.00    -0.323 N 
HETATM   14  H   UNL     1      18.206  49.198  46.834  1.00  0.00     0.169 HD
HETATM   15  O   UNL     1      15.823  47.864  48.484  1.00  0.00    -0.267 OA
BRANCH  13  16
HETATM   16  C   UNL     1      18.311  47.143  46.997  1.00  0.00     0.035 A 
HETATM   17  C   UNL     1      19.075  46.452  47.940  1.00  0.00     0.031 A 
HETATM   18  C   UNL     1      19.615  45.197  47.636  1.00  0.00     0.026 A 
HETATM   19  C   UNL     1      19.388  44.626  46.388  1.00  0.00     0.034 A 
HETATM   20 CL   UNL     1      20.043  43.080  46.018  1.00  0.00    -0.084 Cl
HETATM   21  C   UNL     1      18.631  45.304  45.436  1.00  0.00     0.026 A 
HETATM   22  C   UNL     1      18.099  46.562  45.739  1.00  0.00     0.031 A 
ENDBRANCH  13  16
ENDBRANCH  10  12
BRANCH   9  23
HETATM   23  C   UNL     1      18.190  51.003  49.196  1.00  0.00     0.005 A 
HETATM   24  C   UNL     1      18.932  50.400  50.229  1.00  0.00     0.076 A 
HETATM   25  C   UNL     1      20.324  50.536  50.260  1.00  0.00     0.037 A 
HETATM   26  C   UNL     1      20.984  51.290  49.288  1.00  0.00     0.003 A 
HETATM   27  C   UNL     1      20.259  51.912  48.278  1.00  0.00     0.001 A 
HETATM   28  C   UNL     1      18.873  51.770  48.229  1.00  0.00     0.012 A 
BRANCH  24  29
HETATM   29  O   UNL     1      18.225  49.667  51.144  1.00  0.00    -0.355 OA
HETATM   30  C   UNL     1      18.515  48.274  51.193  1.00  0.00     0.210 C 
ENDBRANCH  24  29
ENDBRANCH   9  23
TORSDOF 4
ENDMDL
MODEL 4
REMARK VINA RESULT:      -7.0      6.167      9.088
REMARK  4 active torsions:
REMARK  status: ('A' for Active; 'I' for Inactive)
REMARK    1  A    between atoms: C_9  and  C_10 
REMARK    2  A    between atoms: C_11  and  O_12 
REMARK    3  A    between atoms: C_18  and  C_19 
REMARK       I    between atoms: C_19  and  N_20 
REMARK    4  A    between atoms: N_20  and  C_21 
ROOT
HETATM    1  C   UNL     1      19.052  46.072  46.084  1.00  0.00     0.070 C 
HETATM    2  C   UNL     1      19.498  47.055  47.138  1.00  0.00     0.037 C 
HETATM    3  N   UNL     1      18.583  48.055  47.452  1.00  0.00    -0.192 N 
HETATM    4  C   UNL     1      18.716  48.858  48.525  1.00  0.00     0.725 A 
HETATM    5  N   UNL     1      19.867  48.810  49.267  1.00  0.00    -0.084 N 
HETATM    6  N   UNL     1      19.787  49.621  50.344  1.00  0.00    -0.149 NA
HETATM    7  C   UNL     1      18.575  50.157  50.160  1.00  0.00     0.275 A 
HETATM    8  N   UNL     1      17.888  49.719  49.058  1.00  0.00    -0.054 NA
HETATM    9  C   UNL     1      21.014  47.948  48.949  1.00  0.00     0.205 C 
HETATM   10  C   UNL     1      20.671  46.985  47.814  1.00  0.00     0.063 C 
HETATM   11  H   UNL     1      17.675  48.023  46.995  1.00  0.00     0.184 HD
ENDROOT
BRANCH  10  12
HETATM   12  C   UNL     1      21.676  45.913  47.596  1.00  0.00     0.256 C 
HETATM   13  N   UNL     1      21.718  44.996  48.625  1.00  0.00    -0.323 N 
HETATM   14  H   UNL     1      21.070  45.136  49.389  1.00  0.00     0.169 HD
HETATM   15  O   UNL     1      22.344  45.923  46.571  1.00  0.00    -0.267 OA
BRANCH  13  16
HETATM   16  C   UNL     1      22.591  43.896  48.750  1.00  0.00     0.035 A 
HETATM   17  C   UNL     1      22.726  42.894  47.787  1.00  0.00     0.031 A 
HETATM   18  C   UNL     1      23.627  41.839  47.979  1.00  0.00     0.026 A 
HETATM   19  C   UNL     1      24.399  41.786  49.135  1.00  0.00     0.034 A 
HETATM   20 CL   UNL     1      25.512  40.496  49.366  1.00  0.00    -0.084 Cl
HETATM   21  C   UNL     1      24.274  42.776  50.105  1.00  0.00     0.026 A 
HETATM   22  C   UNL     1      23.368  43.825  49.915  1.00  0.00     0.031 A 
ENDBRANCH  13  16
ENDBRANCH  10  12
BRANCH   9  23
HETATM   23  C   UNL     1      22.228  48.821  48.626  1.00  0.00     0.005 A 
HETATM   24  C   UNL     1      23.499  48.501  49.137  1.00  0.00     0.076 A 
HETATM   25  C   UNL     1      24.599  49.311  48.834  1.00  0.00     0.037 A 
HETATM   26  C   UNL     1      24.441  50.455  48.049  1.00  0.00     0.003 A 
HETATM   27  C   UNL     1      23.185  50.795  47.559  1.00  0.00     0.001 A 
HETATM   28  C   UNL     1      22.086  49.986  47.843  1.00  0.00     0.012 A 
BRANCH  24  29
HETATM   29  O   UNL     1      23.587  47.362  49.892  1.00  0.00    -0.355 OA
HETATM   30  C   UNL     1      24.817  47.156  50.580  1.00  0.00     0.210 C 
ENDBRANCH  24  29
ENDBRANCH   9  23
TORSDOF 4
ENDMDL
MODEL 5
REMARK VINA RESULT:      -6.9      8.512     11.236
REMARK  4 active torsions:
REMARK  status: ('A' for Active; 'I' for Inactive)
REMARK    1  A    between atoms: C_9  and  C_10 
REMARK    2  A    between atoms: C_11  and  O_12 
REMARK    3  A    between atoms: C_18  and  C_19 
REMARK       I    between atoms: C_19  and  N_20 
REMARK    4  A    between atoms: N_20  and  C_21 
ROOT
HETATM    1  C   UNL     1      18.833  52.681  48.523  1.00  0.00     0.070 C 
HETATM    2  C   UNL     1      18.578  51.534  47.577  1.00  0.00     0.037 C 
HETATM    3  N   UNL     1      17.536  51.720  46.674  1.00  0.00    -0.192 N 
HETATM    4  C   UNL     1      17.330  50.912  45.617  1.00  0.00     0.725 A 
HETATM    5  N   UNL     1      18.070  49.766  45.487  1.00  0.00    -0.084 N 
HETATM    6  N   UNL     1      17.787  49.130  44.330  1.00  0.00    -0.149 NA
HETATM    7  C   UNL     1      16.834  49.929  43.836  1.00  0.00     0.275 A 
HETATM    8  N   UNL     1      16.524  51.029  44.593  1.00  0.00    -0.054 NA
HETATM    9  C   UNL     1      19.076  49.322  46.464  1.00  0.00     0.205 C 
HETATM   10  C   UNL     1      19.318  50.399  47.520  1.00  0.00     0.063 C 
HETATM   11  H   UNL     1      17.062  52.620  46.681  1.00  0.00     0.184 HD
ENDROOT
BRANCH  10  12
HETATM   12  C   UNL     1      20.490  50.145  48.395  1.00  0.00     0.256 C 
HETATM   13  N   UNL     1      21.608  49.742  47.696  1.00  0.00    -0.323 N 
HETATM   14  H   UNL     1      21.520  49.679  46.690  1.00  0.00     0.169 HD
HETATM   15  O   UNL     1      20.380  50.313  49.602  1.00  0.00    -0.267 OA
BRANCH  13  16
HETATM   16  C   UNL     1      22.860  49.373  48.230  1.00  0.00     0.035 A 
HETATM   17  C   UNL     1      23.062  48.259  49.048  1.00  0.00     0.031 A 
HETATM   18  C   UNL     1      24.341  47.951  49.527  1.00  0.00     0.026 A 
HETATM   19  C   UNL     1      25.424  48.755  49.186  1.00  0.00     0.034 A 
HETATM   20 CL   UNL     1      26.996  48.371  49.767  1.00  0.00    -0.084 Cl
HETATM   21  C   UNL     1      25.239  49.870  48.374  1.00  0.00     0.026 A 
HETATM   22  C   UNL     1      23.958  50.181  47.902  1.00  0.00     0.031 A 
ENDBRANCH  13  16
ENDBRANCH  10  12
BRANCH   9  23
HETATM   23  C   UNL     1      18.632  47.994  47.077  1.00  0.00     0.005 A 
HETATM   24  C   UNL     1      19.436  46.844  46.960  1.00  0.00     0.076 A 
HETATM   25  C   UNL     1      19.014  45.636  47.524  1.00  0.00     0.037 A 
HETATM   26  C   UNL     1      17.785  45.551  48.181  1.00  0.00     0.003 A 
HETATM   27  C   UNL     1      16.970  46.674  48.282  1.00  0.00     0.001 A 
HETATM   28  C   UNL     1      17.388  47.886  47.735  1.00  0.00     0.012 A 
BRANCH  24  29
HETATM   29  O   UNL     1      20.633  46.997  46.312  1.00  0.00    -0.355 OA
HETATM   30  C   UNL     1      21.592  45.964  46.511  1.00  0.00     0.210 C 
ENDBRANCH  24  29
ENDBRANCH   9  23
TORSDOF 4
ENDMDL
MODEL 6
REMARK VINA RESULT:      -6.8      8.707     11.409
REMARK  4 active torsions:
REMARK  status: ('A' for Active; 'I' for Inactive)
REMARK    1  A    between atoms: C_9  and  C_10 
REMARK    2  A    between atoms: C_11  and  O_12 
REMARK    3  A    between atoms: C_18  and  C_19 
REMARK       I    between atoms: C_19  and  N_20 
REMARK    4  A    between atoms: N_20  and  C_21 
ROOT
HETATM    1  C   UNL     1      22.421  49.567  49.549  1.00  0.00     0.070 C 
HETATM    2  C   UNL     1      21.864  48.287  48.976  1.00  0.00     0.037 C 
HETATM    3  N   UNL     1      22.809  47.371  48.524  1.00  0.00    -0.192 N 
HETATM    4  C   UNL     1      22.501  46.098  48.210  1.00  0.00     0.725 A 
HETATM    5  N   UNL     1      21.189  45.706  48.183  1.00  0.00    -0.084 N 
HETATM    6  N   UNL     1      21.080  44.383  47.934  1.00  0.00    -0.149 NA
HETATM    7  C   UNL     1      22.367  44.054  47.778  1.00  0.00     0.275 A 
HETATM    8  N   UNL     1      23.269  45.074  47.937  1.00  0.00    -0.054 NA
HETATM    9  C   UNL     1      20.057  46.606  48.443  1.00  0.00     0.205 C 
HETATM   10  C   UNL     1      20.548  47.966  48.935  1.00  0.00     0.063 C 
HETATM   11  H   UNL     1      23.790  47.603  48.655  1.00  0.00     0.184 HD
ENDROOT
BRANCH  10  12
HETATM   12  C   UNL     1      19.476  48.851  49.459  1.00  0.00     0.256 C 
HETATM   13  N   UNL     1      19.028  49.765  48.529  1.00  0.00    -0.323 N 
HETATM   14  H   UNL     1      19.452  49.728  47.611  1.00  0.00     0.169 HD
HETATM   15  O   UNL     1      19.090  48.701  50.611  1.00  0.00    -0.267 OA
BRANCH  13  16
HETATM   16  C   UNL     1      18.063  50.774  48.722  1.00  0.00     0.035 A 
HETATM   17  C   UNL     1      18.262  51.901  49.523  1.00  0.00     0.031 A 
HETATM   18  C   UNL     1      17.258  52.868  49.653  1.00  0.00     0.026 A 
HETATM   19  C   UNL     1      16.051  52.712  48.978  1.00  0.00     0.034 A 
HETATM   20 CL   UNL     1      14.821  53.905  49.130  1.00  0.00    -0.084 Cl
HETATM   21  C   UNL     1      15.836  51.594  48.179  1.00  0.00     0.026 A 
HETATM   22  C   UNL     1      16.838  50.625  48.056  1.00  0.00     0.031 A 
ENDBRANCH  13  16
ENDBRANCH  10  12
BRANCH   9  23
HETATM   23  C   UNL     1      19.200  46.717  47.181  1.00  0.00     0.005 A 
HETATM   24  C   UNL     1      17.818  46.452  47.225  1.00  0.00     0.076 A 
HETATM   25  C   UNL     1      17.050  46.555  46.061  1.00  0.00     0.037 A 
HETATM   26  C   UNL     1      17.647  46.893  44.845  1.00  0.00     0.003 A 
HETATM   27  C   UNL     1      19.015  47.133  44.784  1.00  0.00     0.001 A 
HETATM   28  C   UNL     1      19.787  47.047  45.941  1.00  0.00     0.012 A 
BRANCH  24  29
HETATM   29  O   UNL     1      17.294  46.135  48.450  1.00  0.00    -0.355 OA
HETATM   30  C   UNL     1      16.456  47.118  49.048  1.00  0.00     0.210 C 
ENDBRANCH  24  29
ENDBRANCH   9  23
TORSDOF 4
ENDMDL
MODEL 7
REMARK VINA RESULT:      -6.8      9.144     12.429
REMARK  4 active torsions:
REMARK  status: ('A' for Active; 'I' for Inactive)
REMARK    1  A    between atoms: C_9  and  C_10 
REMARK    2  A    between atoms: C_11  and  O_12 
REMARK    3  A    between atoms: C_18  and  C_19 
REMARK       I    between atoms: C_19  and  N_20 
REMARK    4  A    between atoms: N_20  and  C_21 
ROOT
HETATM    1  C   UNL     1      20.634  45.421  49.022  1.00  0.00     0.070 C 
HETATM    2  C   UNL     1      21.049  46.819  48.638  1.00  0.00     0.037 C 
HETATM    3  N   UNL     1      22.313  47.210  49.069  1.00  0.00    -0.192 N 
HETATM    4  C   UNL     1      22.930  48.318  48.616  1.00  0.00     0.725 A 
HETATM    5  N   UNL     1      22.247  49.193  47.813  1.00  0.00    -0.084 N 
HETATM    6  N   UNL     1      23.048  50.195  47.390  1.00  0.00    -0.149 NA
HETATM    7  C   UNL     1      24.188  49.880  48.016  1.00  0.00     0.275 A 
HETATM    8  N   UNL     1      24.158  48.741  48.777  1.00  0.00    -0.054 NA
HETATM    9  C   UNL     1      20.838  49.026  47.427  1.00  0.00     0.205 C 
HETATM   10  C   UNL     1      20.312  47.663  47.874  1.00  0.00     0.063 C 
HETATM   11  H   UNL     1      22.877  46.520  49.559  1.00  0.00     0.184 HD
ENDROOT
BRANCH  10  12
HETATM   12  C   UNL     1      18.985  47.305  47.312  1.00  0.00     0.256 C 
HETATM   13  N   UNL     1      19.072  46.573  46.147  1.00  0.00    -0.323 N 
HETATM   14  H   UNL     1      20.002  46.350  45.815  1.00  0.00     0.169 HD
HETATM   15  O   UNL     1      17.973  47.661  47.901  1.00  0.00    -0.267 OA
BRANCH  13  16
HETATM   16  C   UNL     1      18.006  46.125  45.340  1.00  0.00     0.035 A 
HETATM   17  C   UNL     1      17.403  46.897  44.344  1.00  0.00     0.031 A 
HETATM   18  C   UNL     1      16.357  46.374  43.575  1.00  0.00     0.026 A 
HETATM   19  C   UNL     1      15.913  45.074  43.796  1.00  0.00     0.034 A 
HETATM   20 CL   UNL     1      14.634  44.428  42.844  1.00  0.00    -0.084 Cl
HETATM   21  C   UNL     1      16.502  44.293  44.786  1.00  0.00     0.026 A 
HETATM   22  C   UNL     1      17.542  44.820  45.559  1.00  0.00     0.031 A 
ENDBRANCH  13  16
ENDBRANCH  10  12
BRANCH   9  23
HETATM   23  C   UNL     1      20.018  50.183  47.999  1.00  0.00     0.005 A 
HETATM   24  C   UNL     1      19.187  50.954  47.164  1.00  0.00     0.076 A 
HETATM   25  C   UNL     1      18.445  52.011  47.702  1.00  0.00     0.037 A 
HETATM   26  C   UNL     1      18.543  52.328  49.058  1.00  0.00     0.003 A 
HETATM   27  C   UNL     1      19.379  51.589  49.887  1.00  0.00     0.001 A 
HETATM   28  C   UNL     1      20.111  50.524  49.364  1.00  0.00     0.012 A 
BRANCH  24  29
HETATM   29  O   UNL     1      19.130  50.586  45.847  1.00  0.00    -0.355 OA
HETATM   30  C   UNL     1      17.832  50.532  45.264  1.00  0.00     0.210 C 
ENDBRANCH  24  29
ENDBRANCH   9  23
TORSDOF 4
ENDMDL
MODEL 8
REMARK VINA RESULT:      -6.7      7.543     10.082
REMARK  4 active torsions:
REMARK  status: ('A' for Active; 'I' for Inactive)
REMARK    1  A    between atoms: C_9  and  C_10 
REMARK    2  A    between atoms: C_11  and  O_12 
REMARK    3  A    between atoms: C_18  and  C_19 
REMARK       I    between atoms: C_19  and  N_20 
REMARK    4  A    between atoms: N_20  and  C_21 
ROOT
HETATM    1  C   UNL     1      21.962  51.153  50.522  1.00  0.00     0.070 C 
HETATM    2  C   UNL     1      20.956  50.820  49.448  1.00  0.00     0.037 C 
HETATM    3  N   UNL     1      19.792  51.582  49.459  1.00  0.00    -0.192 N 
HETATM    4  C   UNL     1      18.909  51.583  48.443  1.00  0.00     0.725 A 
HETATM    5  N   UNL     1      19.062  50.694  47.412  1.00  0.00    -0.084 N 
HETATM    6  N   UNL     1      18.137  50.898  46.450  1.00  0.00    -0.149 NA
HETATM    7  C   UNL     1      17.433  51.899  46.991  1.00  0.00     0.275 A 
HETATM    8  N   UNL     1      17.871  52.346  48.211  1.00  0.00    -0.054 NA
HETATM    9  C   UNL     1      20.129  49.685  47.349  1.00  0.00     0.205 C 
HETATM   10  C   UNL     1      21.142  49.896  48.474  1.00  0.00     0.063 C 
HETATM   11  H   UNL     1      19.726  52.330  50.145  1.00  0.00     0.184 HD
ENDROOT
BRANCH  10  12
HETATM   12  C   UNL     1      22.380  49.087  48.342  1.00  0.00     0.256 C 
HETATM   13  N   UNL     1      22.447  48.052  49.251  1.00  0.00    -0.323 N 
HETATM   14  H   UNL     1      21.663  47.947  49.882  1.00  0.00     0.169 HD
HETATM   15  O   UNL     1      23.195  49.381  47.478  1.00  0.00    -0.267 OA
BRANCH  13  16
HETATM   16  C   UNL     1      23.506  47.138  49.425  1.00  0.00     0.035 A 
HETATM   17  C   UNL     1      23.458  45.802  49.020  1.00  0.00     0.031 A 
HETATM   18  C   UNL     1      24.558  44.959  49.216  1.00  0.00     0.026 A 
HETATM   19  C   UNL     1      25.714  45.452  49.814  1.00  0.00     0.034 A 
HETATM   20 CL   UNL     1      27.069  44.419  50.046  1.00  0.00    -0.084 Cl
HETATM   21  C   UNL     1      25.776  46.779  50.226  1.00  0.00     0.026 A 
HETATM   22  C   UNL     1      24.672  47.618  50.037  1.00  0.00     0.031 A 
ENDBRANCH  13  16
ENDBRANCH  10  12
BRANCH   9  23
HETATM   23  C   UNL     1      19.506  48.289  47.381  1.00  0.00     0.005 A 
HETATM   24  C   UNL     1      18.679  47.895  48.450  1.00  0.00     0.076 A 
HETATM   25  C   UNL     1      18.120  46.614  48.465  1.00  0.00     0.037 A 
HETATM   26  C   UNL     1      18.397  45.707  47.441  1.00  0.00     0.003 A 
HETATM   27  C   UNL     1      19.232  46.075  46.392  1.00  0.00     0.001 A 
HETATM   28  C   UNL     1      19.783  47.355  46.360  1.00  0.00     0.012 A 
BRANCH  24  29
HETATM   29  O   UNL     1      18.440  48.835  49.417  1.00  0.00    -0.355 OA
HETATM   30  C   UNL     1      18.574  48.397  50.765  1.00  0.00     0.210 C 
ENDBRANCH  24  29
ENDBRANCH   9  23
TORSDOF 4
ENDMDL
MODEL 9
REMARK VINA RESULT:      -6.7     13.550     14.485
REMARK  4 active torsions:
REMARK  status: ('A' for Active; 'I' for Inactive)
REMARK    1  A    between atoms: C_9  and  C_10 
REMARK    2  A    between atoms: C_11  and  O_12 
REMARK    3  A    between atoms: C_18  and  C_19 
REMARK       I    between atoms: C_19  and  N_20 
REMARK    4  A    between atoms: N_20  and  C_21 
ROOT
HETATM    1  C   UNL     1      31.253  46.787  39.841  1.00  0.00     0.070 C 
HETATM    2  C   UNL     1      30.081  47.733  39.927  1.00  0.00     0.037 C 
HETATM    3  N   UNL     1      28.893  47.269  39.373  1.00  0.00    -0.192 N 
HETATM    4  C   UNL     1      27.707  47.874  39.574  1.00  0.00     0.725 A 
HETATM    5  N   UNL     1      27.664  49.081  40.220  1.00  0.00    -0.084 N 
HETATM    6  N   UNL     1      26.390  49.492  40.404  1.00  0.00    -0.149 NA
HETATM    7  C   UNL     1      25.722  48.501  39.802  1.00  0.00     0.275 A 
HETATM    8  N   UNL     1      26.490  47.493  39.279  1.00  0.00    -0.054 NA
HETATM    9  C   UNL     1      28.854  49.803  40.693  1.00  0.00     0.205 C 
HETATM   10  C   UNL     1      30.106  48.940  40.544  1.00  0.00     0.063 C 
HETATM   11  H   UNL     1      28.885  46.322  39.002  1.00  0.00     0.184 HD
ENDROOT
BRANCH  10  12
HETATM   12  C   UNL     1      31.309  49.485  41.223  1.00  0.00     0.256 C 
HETATM   13  N   UNL     1      32.263  49.947  40.341  1.00  0.00    -0.323 N 
HETATM   14  H   UNL     1      32.044  49.882  39.356  1.00  0.00     0.169 HD
HETATM   15  O   UNL     1      31.352  49.490  42.446  1.00  0.00    -0.267 OA
BRANCH  13  16
HETATM   16  C   UNL     1      33.533  50.472  40.657  1.00  0.00     0.035 A 
HETATM   17  C   UNL     1      34.418  49.882  41.563  1.00  0.00     0.031 A 
HETATM   18  C   UNL     1      35.669  50.458  41.812  1.00  0.00     0.026 A 
HETATM   19  C   UNL     1      36.041  51.625  41.153  1.00  0.00     0.034 A 
HETATM   20 CL   UNL     1      37.582  52.328  41.453  1.00  0.00    -0.084 Cl
HETATM   21  C   UNL     1      35.169  52.227  40.251  1.00  0.00     0.026 A 
HETATM   22  C   UNL     1      33.916  51.654  40.008  1.00  0.00     0.031 A 
ENDBRANCH  13  16
ENDBRANCH  10  12
BRANCH   9  23
HETATM   23  C   UNL     1      28.969  51.132  39.945  1.00  0.00     0.005 A 
HETATM   24  C   UNL     1      29.109  52.343  40.648  1.00  0.00     0.076 A 
HETATM   25  C   UNL     1      29.210  53.549  39.949  1.00  0.00     0.037 A 
HETATM   26  C   UNL     1      29.146  53.568  38.554  1.00  0.00     0.003 A 
HETATM   27  C   UNL     1      28.983  52.381  37.849  1.00  0.00     0.001 A 
HETATM   28  C   UNL     1      28.896  51.171  38.536  1.00  0.00     0.012 A 
BRANCH  24  29
HETATM   29  O   UNL     1      29.174  52.254  42.013  1.00  0.00    -0.355 OA
HETATM   30  C   UNL     1      30.362  52.751  42.620  1.00  0.00     0.210 C 
ENDBRANCH  24  29
ENDBRANCH   9  23
TORSDOF 4
ENDMDL
MODEL 10
REMARK VINA RESULT:      -6.7     15.901     17.689
REMARK  4 active torsions:
REMARK  status: ('A' for Active; 'I' for Inactive)
REMARK    1  A    between atoms: C_9  and  C_10 
REMARK    2  A    between atoms: C_11  and  O_12 
REMARK    3  A    between atoms: C_18  and  C_19 
REMARK       I    between atoms: C_19  and  N_20 
REMARK    4  A    between atoms: N_20  and  C_21 
ROOT
HETATM    1  C   UNL     1      39.247  41.331  64.271  1.00  0.00     0.070 C 
HETATM    2  C   UNL     1      38.140  42.165  64.867  1.00  0.00     0.037 C 
HETATM    3  N   UNL     1      36.850  41.685  64.663  1.00  0.00    -0.192 N 
HETATM    4  C   UNL     1      35.778  42.166  65.321  1.00  0.00     0.725 A 
HETATM    5  N   UNL     1      35.913  43.272  66.118  1.00  0.00    -0.084 N 
HETATM    6  N   UNL     1      34.759  43.556  66.759  1.00  0.00    -0.149 NA
HETATM    7  C   UNL     1      33.961  42.603  66.265  1.00  0.00     0.275 A 
HETATM    8  N   UNL     1      34.545  41.733  65.381  1.00  0.00    -0.054 NA
HETATM    9  C   UNL     1      37.170  44.017  66.283  1.00  0.00     0.205 C 
HETATM   10  C   UNL     1      38.329  43.280  65.615  1.00  0.00     0.063 C 
HETATM   11  H   UNL     1      36.750  40.796  64.180  1.00  0.00     0.184 HD
ENDROOT
BRANCH  10  12
HETATM   12  C   UNL     1      39.671  43.825  65.943  1.00  0.00     0.256 C 
HETATM   13  N   UNL     1      40.069  44.830  65.087  1.00  0.00    -0.323 N 
HETATM   14  H   UNL     1      39.419  45.094  64.358  1.00  0.00     0.169 HD
HETATM   15  O   UNL     1      40.281  43.369  66.901  1.00  0.00    -0.267 OA
BRANCH  13  16
HETATM   16  C   UNL     1      41.301  45.515  65.092  1.00  0.00     0.035 A 
HETATM   17  C   UNL     1      41.598  46.581  65.945  1.00  0.00     0.031 A 
HETATM   18  C   UNL     1      42.852  47.201  65.898  1.00  0.00     0.026 A 
HETATM   19  C   UNL     1      43.816  46.754  65.000  1.00  0.00     0.034 A 
HETATM   20 CL   UNL     1      45.361  47.510  64.949  1.00  0.00    -0.084 Cl
HETATM   21  C   UNL     1      43.535  45.695  64.142  1.00  0.00     0.026 A 
HETATM   22  C   UNL     1      42.278  45.082  64.185  1.00  0.00     0.031 A 
ENDBRANCH  13  16
ENDBRANCH  10  12
BRANCH   9  23
HETATM   23  C   UNL     1      36.991  45.436  65.741  1.00  0.00     0.005 A 
HETATM   24  C   UNL     1      36.947  46.539  66.615  1.00  0.00     0.076 A 
HETATM   25  C   UNL     1      36.780  47.830  66.104  1.00  0.00     0.037 A 
HETATM   26  C   UNL     1      36.627  48.034  64.731  1.00  0.00     0.003 A 
HETATM   27  C   UNL     1      36.643  46.950  63.860  1.00  0.00     0.001 A 
HETATM   28  C   UNL     1      36.824  45.661  64.358  1.00  0.00     0.012 A 
BRANCH  24  29
HETATM   29  O   UNL     1      37.112  46.271  67.948  1.00  0.00    -0.355 OA
HETATM   30  C   UNL     1      36.000  46.558  68.789  1.00  0.00     0.210 C 
ENDBRANCH  24  29
ENDBRANCH   9  23
TORSDOF 4
ENDMDL
