MODEL 1
REMARK VINA RESULT:     -10.1      0.000      0.000
REMARK  3 active torsions:
REMARK  status: ('A' for Active; 'I' for Inactive)
REMARK    1  A    between atoms: C_3  and  C_4 
REMARK    2  A    between atoms: C_4  and  N_5 
REMARK       I    between atoms: N_5  and  C_6 
REMARK    3  A    between atoms: C_6  and  C_7 
ROOT
HETATM    1  C   UNL     1      26.576  44.347  52.550  1.00  0.00     0.155 A 
HETATM    2  N   UNL     1      27.062  43.161  52.112  1.00  0.00    -0.168 NA
HETATM    3  N   UNL     1      28.115  42.917  52.924  1.00  0.00    -0.276 N 
HETATM    4  H   UNL     1      28.641  42.060  52.787  1.00  0.00     0.189 HD
HETATM    5  C   UNL     1      28.322  43.896  53.839  1.00  0.00     0.074 A 
HETATM    6  C   UNL     1      27.355  44.839  53.622  1.00  0.00     0.031 A 
HETATM    7  C   UNL     1      27.265  46.067  54.442  1.00  0.00     0.219 A 
HETATM    8  O   UNL     1      28.313  46.231  55.440  1.00  0.00    -0.346 OA
HETATM    9  C   UNL     1      29.240  45.229  55.634  1.00  0.00     0.081 A 
HETATM   10  C   UNL     1      29.310  44.041  54.878  1.00  0.00     0.026 A 
HETATM   11  C   UNL     1      30.160  45.451  56.658  1.00  0.00     0.038 A 
HETATM   12  C   UNL     1      31.141  44.499  56.936  1.00  0.00     0.003 A 
HETATM   13  C   UNL     1      31.207  43.322  56.189  1.00  0.00     0.001 A 
HETATM   14  C   UNL     1      30.292  43.090  55.157  1.00  0.00     0.016 A 
ENDROOT
BRANCH   1  15
HETATM   15  C   UNL     1      25.395  44.983  51.947  1.00  0.00     0.272 C 
HETATM   16  N   UNL     1      25.703  46.088  51.191  1.00  0.00    -0.351 N 
HETATM   17  H   UNL     1      26.686  46.345  51.158  1.00  0.00     0.163 HD
HETATM   18  O   UNL     1      24.257  44.557  52.115  1.00  0.00    -0.266 OA
BRANCH  16  19
HETATM   19  C   UNL     1      24.710  46.889  50.520  1.00  0.00     0.163 C 
BRANCH  19  20
HETATM   20  C   UNL     1      25.267  48.015  49.675  1.00  0.00    -0.019 A 
HETATM   21  C   UNL     1      26.649  48.261  49.570  1.00  0.00     0.010 A 
HETATM   22  C   UNL     1      27.138  49.312  48.789  1.00  0.00     0.001 A 
HETATM   23  C   UNL     1      26.259  50.137  48.095  1.00  0.00     0.002 A 
HETATM   24  C   UNL     1      24.888  49.910  48.179  1.00  0.00     0.024 A 
HETATM   25  C   UNL     1      24.395  48.859  48.960  1.00  0.00     0.042 A 
HETATM   26 CL   UNL     1      22.679  48.638  49.003  1.00  0.00    -0.084 Cl
ENDBRANCH  19  20
ENDBRANCH  16  19
ENDBRANCH   1  15
TORSDOF 3
ENDMDL
MODEL 2
REMARK VINA RESULT:      -9.9      1.582      2.118
REMARK  3 active torsions:
REMARK  status: ('A' for Active; 'I' for Inactive)
REMARK    1  A    between atoms: C_3  and  C_4 
REMARK    2  A    between atoms: C_4  and  N_5 
REMARK       I    between atoms: N_5  and  C_6 
REMARK    3  A    between atoms: C_6  and  C_7 
ROOT
HETATM    1  C   UNL     1      26.907  45.863  53.897  1.00  0.00     0.155 A 
HETATM    2  N   UNL     1      26.724  46.881  54.771  1.00  0.00    -0.168 NA
HETATM    3  N   UNL     1      27.692  46.697  55.697  1.00  0.00    -0.276 N 
HETATM    4  H   UNL     1      27.759  47.359  56.463  1.00  0.00     0.189 HD
HETATM    5  C   UNL     1      28.463  45.607  55.455  1.00  0.00     0.074 A 
HETATM    6  C   UNL     1      27.980  45.040  54.307  1.00  0.00     0.031 A 
HETATM    7  C   UNL     1      28.581  43.818  53.729  1.00  0.00     0.219 A 
HETATM    8  O   UNL     1      29.667  43.229  54.501  1.00  0.00    -0.346 OA
HETATM    9  C   UNL     1      30.132  43.868  55.631  1.00  0.00     0.081 A 
HETATM   10  C   UNL     1      29.585  45.051  56.167  1.00  0.00     0.026 A 
HETATM   11  C   UNL     1      31.217  43.261  56.260  1.00  0.00     0.038 A 
HETATM   12  C   UNL     1      31.763  43.826  57.413  1.00  0.00     0.003 A 
HETATM   13  C   UNL     1      31.223  45.000  57.942  1.00  0.00     0.001 A 
HETATM   14  C   UNL     1      30.132  45.615  57.321  1.00  0.00     0.016 A 
ENDROOT
BRANCH   1  15
HETATM   15  C   UNL     1      26.066  45.695  52.702  1.00  0.00     0.272 C 
HETATM   16  N   UNL     1      25.989  46.830  51.931  1.00  0.00    -0.351 N 
HETATM   17  H   UNL     1      26.492  47.640  52.281  1.00  0.00     0.163 HD
HETATM   18  O   UNL     1      25.496  44.641  52.437  1.00  0.00    -0.266 OA
BRANCH  16  19
HETATM   19  C   UNL     1      25.208  46.914  50.723  1.00  0.00     0.163 C 
BRANCH  19  20
HETATM   20  C   UNL     1      25.593  48.046  49.795  1.00  0.00    -0.019 A 
HETATM   21  C   UNL     1      26.932  48.422  49.585  1.00  0.00     0.010 A 
HETATM   22  C   UNL     1      27.262  49.476  48.729  1.00  0.00     0.001 A 
HETATM   23  C   UNL     1      26.262  50.175  48.061  1.00  0.00     0.002 A 
HETATM   24  C   UNL     1      24.929  49.819  48.248  1.00  0.00     0.024 A 
HETATM   25  C   UNL     1      24.596  48.764  49.105  1.00  0.00     0.042 A 
HETATM   26 CL   UNL     1      22.917  48.377  49.274  1.00  0.00    -0.084 Cl
ENDBRANCH  19  20
ENDBRANCH  16  19
ENDBRANCH   1  15
TORSDOF 3
ENDMDL
MODEL 3
REMARK VINA RESULT:      -9.5      1.732      2.242
REMARK  3 active torsions:
REMARK  status: ('A' for Active; 'I' for Inactive)
REMARK    1  A    between atoms: C_3  and  C_4 
REMARK    2  A    between atoms: C_4  and  N_5 
REMARK       I    between atoms: N_5  and  C_6 
REMARK    3  A    between atoms: C_6  and  C_7 
ROOT
HETATM    1  C   UNL     1      25.930  45.891  53.031  1.00  0.00     0.155 A 
HETATM    2  N   UNL     1      25.880  46.967  53.852  1.00  0.00    -0.168 NA
HETATM    3  N   UNL     1      26.936  46.799  54.679  1.00  0.00    -0.276 N 
HETATM    4  H   UNL     1      27.109  47.502  55.391  1.00  0.00     0.189 HD
HETATM    5  C   UNL     1      27.637  45.665  54.427  1.00  0.00     0.074 A 
HETATM    6  C   UNL     1      27.012  45.050  53.376  1.00  0.00     0.031 A 
HETATM    7  C   UNL     1      27.503  43.771  52.817  1.00  0.00     0.219 A 
HETATM    8  O   UNL     1      28.645  43.185  53.505  1.00  0.00    -0.346 OA
HETATM    9  C   UNL     1      29.253  43.871  54.536  1.00  0.00     0.081 A 
HETATM   10  C   UNL     1      28.809  45.106  55.050  1.00  0.00     0.026 A 
HETATM   11  C   UNL     1      30.379  43.258  55.083  1.00  0.00     0.038 A 
HETATM   12  C   UNL     1      31.067  43.868  56.133  1.00  0.00     0.003 A 
HETATM   13  C   UNL     1      30.629  45.093  56.639  1.00  0.00     0.001 A 
HETATM   14  C   UNL     1      29.499  45.715  56.100  1.00  0.00     0.016 A 
ENDROOT
BRANCH   1  15
HETATM   15  C   UNL     1      24.959  45.687  51.946  1.00  0.00     0.272 C 
HETATM   16  N   UNL     1      24.973  46.693  51.011  1.00  0.00    -0.351 N 
HETATM   17  H   UNL     1      25.623  47.455  51.187  1.00  0.00     0.163 HD
HETATM   18  O   UNL     1      24.215  44.711  51.899  1.00  0.00    -0.266 OA
BRANCH  16  19
HETATM   19  C   UNL     1      24.095  46.724  49.868  1.00  0.00     0.163 C 
BRANCH  19  20
HETATM   20  C   UNL     1      24.029  48.057  49.154  1.00  0.00    -0.019 A 
HETATM   21  C   UNL     1      25.152  48.894  49.021  1.00  0.00     0.010 A 
HETATM   22  C   UNL     1      25.063  50.124  48.364  1.00  0.00     0.001 A 
HETATM   23  C   UNL     1      23.852  50.543  47.823  1.00  0.00     0.002 A 
HETATM   24  C   UNL     1      22.727  49.730  47.937  1.00  0.00     0.024 A 
HETATM   25  C   UNL     1      22.814  48.498  48.594  1.00  0.00     0.042 A 
HETATM   26 CL   UNL     1      21.373  47.543  48.682  1.00  0.00    -0.084 Cl
ENDBRANCH  19  20
ENDBRANCH  16  19
ENDBRANCH   1  15
TORSDOF 3
ENDMDL
MODEL 4
REMARK VINA RESULT:      -9.3      1.549      2.049
REMARK  3 active torsions:
REMARK  status: ('A' for Active; 'I' for Inactive)
REMARK    1  A    between atoms: C_3  and  C_4 
REMARK    2  A    between atoms: C_4  and  N_5 
REMARK       I    between atoms: N_5  and  C_6 
REMARK    3  A    between atoms: C_6  and  C_7 
ROOT
HETATM    1  C   UNL     1      28.117  43.524  52.852  1.00  0.00     0.155 A 
HETATM    2  N   UNL     1      29.021  42.543  52.616  1.00  0.00    -0.168 NA
HETATM    3  N   UNL     1      29.870  42.619  53.666  1.00  0.00    -0.276 N 
HETATM    4  H   UNL     1      30.642  41.962  53.711  1.00  0.00     0.189 HD
HETATM    5  C   UNL     1      29.551  43.606  54.541  1.00  0.00     0.074 A 
HETATM    6  C   UNL     1      28.432  44.216  54.044  1.00  0.00     0.031 A 
HETATM    7  C   UNL     1      27.788  45.351  54.741  1.00  0.00     0.219 A 
HETATM    8  O   UNL     1      28.467  45.812  55.944  1.00  0.00    -0.346 OA
HETATM    9  C   UNL     1      29.572  45.134  56.413  1.00  0.00     0.081 A 
HETATM   10  C   UNL     1      30.169  44.030  55.771  1.00  0.00     0.026 A 
HETATM   11  C   UNL     1      30.108  45.611  57.608  1.00  0.00     0.038 A 
HETATM   12  C   UNL     1      31.228  44.996  58.168  1.00  0.00     0.003 A 
HETATM   13  C   UNL     1      31.816  43.901  57.533  1.00  0.00     0.001 A 
HETATM   14  C   UNL     1      31.290  43.415  56.333  1.00  0.00     0.016 A 
ENDROOT
BRANCH   1  15
HETATM   15  C   UNL     1      26.984  43.781  51.950  1.00  0.00     0.272 C 
HETATM   16  N   UNL     1      27.373  44.073  50.665  1.00  0.00    -0.351 N 
HETATM   17  H   UNL     1      28.375  44.099  50.498  1.00  0.00     0.163 HD
HETATM   18  O   UNL     1      25.817  43.739  52.326  1.00  0.00    -0.266 OA
BRANCH  16  19
HETATM   19  C   UNL     1      26.443  44.382  49.608  1.00  0.00     0.163 C 
BRANCH  19  20
HETATM   20  C   UNL     1      25.933  45.807  49.607  1.00  0.00    -0.019 A 
HETATM   21  C   UNL     1      26.802  46.914  49.588  1.00  0.00     0.010 A 
HETATM   22  C   UNL     1      26.307  48.221  49.595  1.00  0.00     0.001 A 
HETATM   23  C   UNL     1      24.935  48.450  49.618  1.00  0.00     0.002 A 
HETATM   24  C   UNL     1      24.055  47.371  49.632  1.00  0.00     0.024 A 
HETATM   25  C   UNL     1      24.548  46.061  49.625  1.00  0.00     0.042 A 
HETATM   26 CL   UNL     1      23.389  44.777  49.632  1.00  0.00    -0.084 Cl
ENDBRANCH  19  20
ENDBRANCH  16  19
ENDBRANCH   1  15
TORSDOF 3
ENDMDL
MODEL 5
REMARK VINA RESULT:      -9.2      3.027      8.237
REMARK  3 active torsions:
REMARK  status: ('A' for Active; 'I' for Inactive)
REMARK    1  A    between atoms: C_3  and  C_4 
REMARK    2  A    between atoms: C_4  and  N_5 
REMARK       I    between atoms: N_5  and  C_6 
REMARK    3  A    between atoms: C_6  and  C_7 
ROOT
HETATM    1  C   UNL     1      25.235  45.475  50.122  1.00  0.00     0.155 A 
HETATM    2  N   UNL     1      24.040  44.838  50.090  1.00  0.00    -0.168 NA
HETATM    3  N   UNL     1      23.175  45.784  49.661  1.00  0.00    -0.276 N 
HETATM    4  H   UNL     1      22.199  45.530  49.549  1.00  0.00     0.189 HD
HETATM    5  C   UNL     1      23.764  46.985  49.435  1.00  0.00     0.074 A 
HETATM    6  C   UNL     1      25.091  46.826  49.730  1.00  0.00     0.031 A 
HETATM    7  C   UNL     1      26.058  47.938  49.600  1.00  0.00     0.219 A 
HETATM    8  O   UNL     1      25.487  49.219  49.206  1.00  0.00    -0.346 OA
HETATM    9  C   UNL     1      24.149  49.307  48.888  1.00  0.00     0.081 A 
HETATM   10  C   UNL     1      23.230  48.242  48.979  1.00  0.00     0.026 A 
HETATM   11  C   UNL     1      23.715  50.560  48.458  1.00  0.00     0.038 A 
HETATM   12  C   UNL     1      22.377  50.757  48.113  1.00  0.00     0.003 A 
HETATM   13  C   UNL     1      21.468  49.701  48.199  1.00  0.00     0.001 A 
HETATM   14  C   UNL     1      21.892  48.441  48.633  1.00  0.00     0.016 A 
ENDROOT
BRANCH   1  15
HETATM   15  C   UNL     1      26.477  44.795  50.519  1.00  0.00     0.272 C 
HETATM   16  N   UNL     1      26.528  44.504  51.862  1.00  0.00    -0.351 N 
HETATM   17  H   UNL     1      25.729  44.807  52.413  1.00  0.00     0.163 HD
HETATM   18  O   UNL     1      27.368  44.526  49.721  1.00  0.00    -0.266 OA
BRANCH  16  19
HETATM   19  C   UNL     1      27.653  43.860  52.489  1.00  0.00     0.163 C 
BRANCH  19  20
HETATM   20  C   UNL     1      28.151  44.535  53.749  1.00  0.00    -0.019 A 
HETATM   21  C   UNL     1      27.508  45.657  54.303  1.00  0.00     0.010 A 
HETATM   22  C   UNL     1      27.992  46.268  55.463  1.00  0.00     0.001 A 
HETATM   23  C   UNL     1      29.127  45.770  56.096  1.00  0.00     0.002 A 
HETATM   24  C   UNL     1      29.778  44.658  55.569  1.00  0.00     0.024 A 
HETATM   25  C   UNL     1      29.295  44.044  54.408  1.00  0.00     0.042 A 
HETATM   26 CL   UNL     1      30.156  42.661  53.825  1.00  0.00    -0.084 Cl
ENDBRANCH  19  20
ENDBRANCH  16  19
ENDBRANCH   1  15
TORSDOF 3
ENDMDL
MODEL 6
REMARK VINA RESULT:      -8.9      2.957      8.506
REMARK  3 active torsions:
REMARK  status: ('A' for Active; 'I' for Inactive)
REMARK    1  A    between atoms: C_3  and  C_4 
REMARK    2  A    between atoms: C_4  and  N_5 
REMARK       I    between atoms: N_5  and  C_6 
REMARK    3  A    between atoms: C_6  and  C_7 
ROOT
HETATM    1  C   UNL     1      26.298  46.581  49.923  1.00  0.00     0.155 A 
HETATM    2  N   UNL     1      27.138  47.642  49.865  1.00  0.00    -0.168 NA
HETATM    3  N   UNL     1      26.345  48.667  49.479  1.00  0.00    -0.276 N 
HETATM    4  H   UNL     1      26.762  49.587  49.374  1.00  0.00     0.189 HD
HETATM    5  C   UNL     1      25.054  48.299  49.278  1.00  0.00     0.074 A 
HETATM    6  C   UNL     1      24.989  46.959  49.546  1.00  0.00     0.031 A 
HETATM    7  C   UNL     1      23.723  46.202  49.433  1.00  0.00     0.219 A 
HETATM    8  O   UNL     1      22.579  46.965  48.953  1.00  0.00    -0.346 OA
HETATM    9  C   UNL     1      22.700  48.321  48.734  1.00  0.00     0.081 A 
HETATM   10  C   UNL     1      23.897  49.053  48.872  1.00  0.00     0.026 A 
HETATM   11  C   UNL     1      21.532  48.973  48.341  1.00  0.00     0.038 A 
HETATM   12  C   UNL     1      21.547  50.345  48.092  1.00  0.00     0.003 A 
HETATM   13  C   UNL     1      22.731  51.070  48.233  1.00  0.00     0.001 A 
HETATM   14  C   UNL     1      23.910  50.427  48.622  1.00  0.00     0.016 A 
ENDROOT
BRANCH   1  15
HETATM   15  C   UNL     1      26.752  45.243  50.330  1.00  0.00     0.272 C 
HETATM   16  N   UNL     1      26.694  45.043  51.689  1.00  0.00    -0.351 N 
HETATM   17  H   UNL     1      26.374  45.833  52.241  1.00  0.00     0.163 HD
HETATM   18  O   UNL     1      27.144  44.403  49.525  1.00  0.00    -0.266 OA
BRANCH  16  19
HETATM   19  C   UNL     1      27.108  43.818  52.326  1.00  0.00     0.163 C 
BRANCH  19  20
HETATM   20  C   UNL     1      28.129  43.990  53.430  1.00  0.00    -0.019 A 
HETATM   21  C   UNL     1      28.108  45.089  54.308  1.00  0.00     0.010 A 
HETATM   22  C   UNL     1      29.067  45.229  55.315  1.00  0.00     0.001 A 
HETATM   23  C   UNL     1      30.067  44.274  55.467  1.00  0.00     0.002 A 
HETATM   24  C   UNL     1      30.107  43.175  54.613  1.00  0.00     0.024 A 
HETATM   25  C   UNL     1      29.147  43.032  53.605  1.00  0.00     0.042 A 
HETATM   26 CL   UNL     1      29.261  41.632  52.594  1.00  0.00    -0.084 Cl
ENDBRANCH  19  20
ENDBRANCH  16  19
ENDBRANCH   1  15
TORSDOF 3
ENDMDL
MODEL 7
REMARK VINA RESULT:      -8.7      2.768      4.327
REMARK  3 active torsions:
REMARK  status: ('A' for Active; 'I' for Inactive)
REMARK    1  A    between atoms: C_3  and  C_4 
REMARK    2  A    between atoms: C_4  and  N_5 
REMARK       I    between atoms: N_5  and  C_6 
REMARK    3  A    between atoms: C_6  and  C_7 
ROOT
HETATM    1  C   UNL     1      24.833  46.391  50.851  1.00  0.00     0.155 A 
HETATM    2  N   UNL     1      25.135  47.493  51.578  1.00  0.00    -0.168 NA
HETATM    3  N   UNL     1      26.032  47.052  52.488  1.00  0.00    -0.276 N 
HETATM    4  H   UNL     1      26.416  47.718  53.150  1.00  0.00     0.189 HD
HETATM    5  C   UNL     1      26.297  45.725  52.377  1.00  0.00     0.074 A 
HETATM    6  C   UNL     1      25.535  45.265  51.338  1.00  0.00     0.031 A 
HETATM    7  C   UNL     1      25.563  43.846  50.919  1.00  0.00     0.219 A 
HETATM    8  O   UNL     1      26.399  42.971  51.730  1.00  0.00    -0.346 OA
HETATM    9  C   UNL     1      27.171  43.502  52.742  1.00  0.00     0.081 A 
HETATM   10  C   UNL     1      27.173  44.859  53.124  1.00  0.00     0.026 A 
HETATM   11  C   UNL     1      27.987  42.593  53.415  1.00  0.00     0.038 A 
HETATM   12  C   UNL     1      28.806  43.028  54.458  1.00  0.00     0.003 A 
HETATM   13  C   UNL     1      28.810  44.373  54.832  1.00  0.00     0.001 A 
HETATM   14  C   UNL     1      27.993  45.292  54.167  1.00  0.00     0.016 A 
ENDROOT
BRANCH   1  15
HETATM   15  C   UNL     1      23.893  46.430  49.721  1.00  0.00     0.272 C 
HETATM   16  N   UNL     1      23.122  47.567  49.698  1.00  0.00    -0.351 N 
HETATM   17  H   UNL     1      23.273  48.222  50.460  1.00  0.00     0.163 HD
HETATM   18  O   UNL     1      23.816  45.527  48.894  1.00  0.00    -0.266 OA
BRANCH  16  19
HETATM   19  C   UNL     1      22.115  47.820  48.699  1.00  0.00     0.163 C 
BRANCH  19  20
HETATM   20  C   UNL     1      21.272  49.053  48.944  1.00  0.00    -0.019 A 
HETATM   21  C   UNL     1      20.047  48.999  49.635  1.00  0.00     0.010 A 
HETATM   22  C   UNL     1      19.283  50.151  49.842  1.00  0.00     0.001 A 
HETATM   23  C   UNL     1      19.726  51.380  49.365  1.00  0.00     0.002 A 
HETATM   24  C   UNL     1      20.937  51.460  48.682  1.00  0.00     0.024 A 
HETATM   25  C   UNL     1      21.704  50.309  48.474  1.00  0.00     0.042 A 
HETATM   26 CL   UNL     1      23.201  50.495  47.626  1.00  0.00    -0.084 Cl
ENDBRANCH  19  20
ENDBRANCH  16  19
ENDBRANCH   1  15
TORSDOF 3
ENDMDL
MODEL 8
REMARK VINA RESULT:      -8.6      4.335      6.203
REMARK  3 active torsions:
REMARK  status: ('A' for Active; 'I' for Inactive)
REMARK    1  A    between atoms: C_3  and  C_4 
REMARK    2  A    between atoms: C_4  and  N_5 
REMARK       I    between atoms: N_5  and  C_6 
REMARK    3  A    between atoms: C_6  and  C_7 
ROOT
HETATM    1  C   UNL     1      27.172  43.759  51.876  1.00  0.00     0.155 A 
HETATM    2  N   UNL     1      26.423  44.808  52.293  1.00  0.00    -0.168 NA
HETATM    3  N   UNL     1      27.039  45.223  53.423  1.00  0.00    -0.276 N 
HETATM    4  H   UNL     1      26.653  46.020  53.918  1.00  0.00     0.189 HD
HETATM    5  C   UNL     1      28.128  44.478  53.742  1.00  0.00     0.074 A 
HETATM    6  C   UNL     1      28.239  43.520  52.772  1.00  0.00     0.031 A 
HETATM    7  C   UNL     1      29.324  42.514  52.790  1.00  0.00     0.219 A 
HETATM    8  O   UNL     1      30.214  42.575  53.941  1.00  0.00    -0.346 OA
HETATM    9  C   UNL     1      30.072  43.587  54.867  1.00  0.00     0.081 A 
HETATM   10  C   UNL     1      29.060  44.567  54.837  1.00  0.00     0.026 A 
HETATM   11  C   UNL     1      31.015  43.598  55.894  1.00  0.00     0.038 A 
HETATM   12  C   UNL     1      30.959  44.579  56.884  1.00  0.00     0.003 A 
HETATM   13  C   UNL     1      29.959  45.552  56.851  1.00  0.00     0.001 A 
HETATM   14  C   UNL     1      29.006  45.549  55.828  1.00  0.00     0.016 A 
ENDROOT
BRANCH   1  15
HETATM   15  C   UNL     1      26.862  43.012  50.647  1.00  0.00     0.272 C 
HETATM   16  N   UNL     1      26.322  41.772  50.890  1.00  0.00    -0.351 N 
HETATM   17  H   UNL     1      26.224  41.514  51.868  1.00  0.00     0.163 HD
HETATM   18  O   UNL     1      27.074  43.465  49.527  1.00  0.00    -0.266 OA
BRANCH  16  19
HETATM   19  C   UNL     1      25.957  40.850  49.845  1.00  0.00     0.163 C 
BRANCH  19  20
HETATM   20  C   UNL     1      27.041  39.867  49.458  1.00  0.00    -0.019 A 
HETATM   21  C   UNL     1      28.184  39.659  50.253  1.00  0.00     0.010 A 
HETATM   22  C   UNL     1      29.175  38.752  49.870  1.00  0.00     0.001 A 
HETATM   23  C   UNL     1      29.046  38.031  48.687  1.00  0.00     0.002 A 
HETATM   24  C   UNL     1      27.923  38.217  47.885  1.00  0.00     0.024 A 
HETATM   25  C   UNL     1      26.928  39.124  48.267  1.00  0.00     0.042 A 
HETATM   26 CL   UNL     1      25.559  39.287  47.221  1.00  0.00    -0.084 Cl
ENDBRANCH  19  20
ENDBRANCH  16  19
ENDBRANCH   1  15
TORSDOF 3
ENDMDL
MODEL 9
REMARK VINA RESULT:      -8.5      1.696      2.366
REMARK  3 active torsions:
REMARK  status: ('A' for Active; 'I' for Inactive)
REMARK    1  A    between atoms: C_3  and  C_4 
REMARK    2  A    between atoms: C_4  and  N_5 
REMARK       I    between atoms: N_5  and  C_6 
REMARK    3  A    between atoms: C_6  and  C_7 
ROOT
HETATM    1  C   UNL     1      25.105  44.449  51.396  1.00  0.00     0.155 A 
HETATM    2  N   UNL     1      25.731  43.254  51.274  1.00  0.00    -0.168 NA
HETATM    3  N   UNL     1      26.735  43.315  52.177  1.00  0.00    -0.276 N 
HETATM    4  H   UNL     1      27.348  42.512  52.272  1.00  0.00     0.189 HD
HETATM    5  C   UNL     1      26.779  44.493  52.849  1.00  0.00     0.074 A 
HETATM    6  C   UNL     1      25.748  45.252  52.365  1.00  0.00     0.031 A 
HETATM    7  C   UNL     1      25.480  46.617  52.870  1.00  0.00     0.219 A 
HETATM    8  O   UNL     1      26.427  47.114  53.859  1.00  0.00    -0.346 OA
HETATM    9  C   UNL     1      27.425  46.288  54.332  1.00  0.00     0.081 A 
HETATM   10  C   UNL     1      27.663  44.975  53.878  1.00  0.00     0.026 A 
HETATM   11  C   UNL     1      28.237  46.835  55.325  1.00  0.00     0.038 A 
HETATM   12  C   UNL     1      29.278  46.082  55.870  1.00  0.00     0.003 A 
HETATM   13  C   UNL     1      29.511  44.781  55.422  1.00  0.00     0.001 A 
HETATM   14  C   UNL     1      28.705  44.224  54.425  1.00  0.00     0.016 A 
ENDROOT
BRANCH   1  15
HETATM   15  C   UNL     1      23.920  44.800  50.598  1.00  0.00     0.272 C 
HETATM   16  N   UNL     1      24.042  46.007  49.953  1.00  0.00    -0.351 N 
HETATM   17  H   UNL     1      24.907  46.515  50.118  1.00  0.00     0.163 HD
HETATM   18  O   UNL     1      22.931  44.077  50.529  1.00  0.00    -0.266 OA
BRANCH  16  19
HETATM   19  C   UNL     1      23.002  46.572  49.130  1.00  0.00     0.163 C 
BRANCH  19  20
HETATM   20  C   UNL     1      23.073  48.074  48.959  1.00  0.00    -0.019 A 
HETATM   21  C   UNL     1      24.296  48.756  48.811  1.00  0.00     0.010 A 
HETATM   22  C   UNL     1      24.336  50.145  48.662  1.00  0.00     0.001 A 
HETATM   23  C   UNL     1      23.157  50.883  48.656  1.00  0.00     0.002 A 
HETATM   24  C   UNL     1      21.934  50.231  48.797  1.00  0.00     0.024 A 
HETATM   25  C   UNL     1      21.891  48.840  48.945  1.00  0.00     0.042 A 
HETATM   26 CL   UNL     1      20.332  48.106  49.102  1.00  0.00    -0.084 Cl
ENDBRANCH  19  20
ENDBRANCH  16  19
ENDBRANCH   1  15
TORSDOF 3
ENDMDL
MODEL 10
REMARK VINA RESULT:      -8.2      4.296      7.551
REMARK  3 active torsions:
REMARK  status: ('A' for Active; 'I' for Inactive)
REMARK    1  A    between atoms: C_3  and  C_4 
REMARK    2  A    between atoms: C_4  and  N_5 
REMARK       I    between atoms: N_5  and  C_6 
REMARK    3  A    between atoms: C_6  and  C_7 
ROOT
HETATM    1  C   UNL     1      25.769  43.712  52.480  1.00  0.00     0.155 A 
HETATM    2  N   UNL     1      24.627  43.944  51.790  1.00  0.00    -0.168 NA
HETATM    3  N   UNL     1      24.685  43.076  50.756  1.00  0.00    -0.276 N 
HETATM    4  H   UNL     1      23.915  43.061  50.094  1.00  0.00     0.189 HD
HETATM    5  C   UNL     1      25.812  42.321  50.754  1.00  0.00     0.074 A 
HETATM    6  C   UNL     1      26.539  42.710  51.846  1.00  0.00     0.031 A 
HETATM    7  C   UNL     1      27.846  42.097  52.172  1.00  0.00     0.219 A 
HETATM    8  O   UNL     1      28.329  41.109  51.217  1.00  0.00    -0.346 OA
HETATM    9  C   UNL     1      27.534  40.734  50.155  1.00  0.00     0.081 A 
HETATM   10  C   UNL     1      26.273  41.291  49.859  1.00  0.00     0.026 A 
HETATM   11  C   UNL     1      28.057  39.733  49.337  1.00  0.00     0.038 A 
HETATM   12  C   UNL     1      27.332  39.282  48.233  1.00  0.00     0.003 A 
HETATM   13  C   UNL     1      26.082  39.832  47.943  1.00  0.00     0.001 A 
HETATM   14  C   UNL     1      25.550  40.839  48.754  1.00  0.00     0.016 A 
ENDROOT
BRANCH   1  15
HETATM   15  C   UNL     1      26.103  44.440  53.713  1.00  0.00     0.272 C 
HETATM   16  N   UNL     1      27.413  44.854  53.759  1.00  0.00    -0.351 N 
HETATM   17  H   UNL     1      27.989  44.595  52.963  1.00  0.00     0.163 HD
HETATM   18  O   UNL     1      25.284  44.644  54.603  1.00  0.00    -0.266 OA
BRANCH  16  19
HETATM   19  C   UNL     1      27.979  45.567  54.876  1.00  0.00     0.163 C 
BRANCH  19  20
HETATM   20  C   UNL     1      29.183  44.904  55.509  1.00  0.00    -0.019 A 
HETATM   21  C   UNL     1      29.905  43.884  54.860  1.00  0.00     0.010 A 
HETATM   22  C   UNL     1      31.010  43.281  55.468  1.00  0.00     0.001 A 
HETATM   23  C   UNL     1      31.418  43.685  56.736  1.00  0.00     0.002 A 
HETATM   24  C   UNL     1      30.723  44.694  57.396  1.00  0.00     0.024 A 
HETATM   25  C   UNL     1      29.617  45.300  56.789  1.00  0.00     0.042 A 
HETATM   26 CL   UNL     1      28.815  46.554  57.671  1.00  0.00    -0.084 Cl
ENDBRANCH  19  20
ENDBRANCH  16  19
ENDBRANCH   1  15
TORSDOF 3
ENDMDL
