MODEL 1
REMARK VINA RESULT:      -8.9      0.000      0.000
REMARK  3 active torsions:
REMARK  status: ('A' for Active; 'I' for Inactive)
REMARK    1  A    between atoms: C_3  and  N_4 
REMARK       I    between atoms: N_4  and  C_5 
REMARK    2  A    between atoms: C_5  and  C_6 
REMARK    3  A    between atoms: C_6  and  C_7 
ROOT
HETATM    1  C   UNL     1      26.833  44.673  53.092  1.00  0.00     0.286 C 
HETATM    2  N   UNL     1      27.501  44.594  51.718  1.00  0.00    -0.056 N 
HETATM    3  H   UNL     1      27.058  45.353  51.158  1.00  0.00     0.278 HD
HETATM    4  H   UNL     1      28.500  44.824  51.772  1.00  0.00     0.278 HD
HETATM    5  C   UNL     1      27.265  43.324  50.957  1.00  0.00     0.209 C 
HETATM    6  C   UNL     1      25.745  43.045  50.889  1.00  0.00     0.115 C 
HETATM    7  N   UNL     1      25.112  43.098  52.206  1.00  0.00    -0.353 N 
HETATM    8  C   UNL     1      25.418  44.055  53.142  1.00  0.00     0.249 C 
HETATM    9  O   UNL     1      24.620  44.321  54.034  1.00  0.00    -0.271 OA
HETATM   10  C   UNL     1      28.057  42.174  51.580  1.00  0.00     0.035 C 
HETATM   11  C   UNL     1      27.770  40.865  50.846  1.00  0.00     0.002 C 
HETATM   12  C   UNL     1      26.274  40.557  50.805  1.00  0.00     0.002 C 
HETATM   13  C   UNL     1      25.472  41.707  50.196  1.00  0.00     0.027 C 
HETATM   14  H   UNL     1      24.145  42.787  52.280  1.00  0.00     0.163 HD
ENDROOT
BRANCH   1  15
HETATM   15  C   UNL     1      26.802  46.128  53.591  1.00  0.00     0.146 C 
BRANCH  15  16
HETATM   16  C   UNL     1      27.842  46.319  54.676  1.00  0.00     0.224 C 
HETATM   17  N   UNL     1      28.545  45.183  54.993  1.00  0.00    -0.327 N 
HETATM   18  H   UNL     1      28.439  44.373  54.395  1.00  0.00     0.169 HD
HETATM   19  O   UNL     1      28.044  47.459  55.102  1.00  0.00    -0.273 OA
BRANCH  17  20
HETATM   20  C   UNL     1      29.495  45.056  56.037  1.00  0.00     0.040 A 
HETATM   21  C   UNL     1      30.499  44.071  55.939  1.00  0.00    -0.035 A 
HETATM   22  C   UNL     1      30.649  43.178  54.737  1.00  0.00     0.050 C 
HETATM   23  C   UNL     1      31.412  43.915  56.998  1.00  0.00     0.009 A 
HETATM   24  C   UNL     1      31.338  44.719  58.134  1.00  0.00     0.001 A 
HETATM   25  C   UNL     1      30.348  45.688  58.229  1.00  0.00     0.002 A 
HETATM   26  C   UNL     1      29.434  45.856  57.188  1.00  0.00     0.030 A 
ENDBRANCH  17  20
ENDBRANCH  15  16
ENDBRANCH   1  15
TORSDOF 3
ENDMDL
MODEL 2
REMARK VINA RESULT:      -8.8      2.460      3.829
REMARK  3 active torsions:
REMARK  status: ('A' for Active; 'I' for Inactive)
REMARK    1  A    between atoms: C_3  and  N_4 
REMARK       I    between atoms: N_4  and  C_5 
REMARK    2  A    between atoms: C_5  and  C_6 
REMARK    3  A    between atoms: C_6  and  C_7 
ROOT
HETATM    1  C   UNL     1      27.106  43.836  51.350  1.00  0.00     0.286 C 
HETATM    2  N   UNL     1      25.982  44.338  52.256  1.00  0.00    -0.056 N 
HETATM    3  H   UNL     1      25.460  43.482  52.540  1.00  0.00     0.278 HD
HETATM    4  H   UNL     1      26.352  44.749  53.121  1.00  0.00     0.278 HD
HETATM    5  C   UNL     1      24.977  45.238  51.601  1.00  0.00     0.209 C 
HETATM    6  C   UNL     1      24.441  44.555  50.321  1.00  0.00     0.115 C 
HETATM    7  N   UNL     1      25.517  44.095  49.444  1.00  0.00    -0.353 N 
HETATM    8  C   UNL     1      26.652  43.484  49.916  1.00  0.00     0.249 C 
HETATM    9  O   UNL     1      27.317  42.768  49.176  1.00  0.00    -0.271 OA
HETATM   10  C   UNL     1      25.588  46.615  51.334  1.00  0.00     0.035 C 
HETATM   11  C   UNL     1      24.588  47.514  50.609  1.00  0.00     0.002 C 
HETATM   12  C   UNL     1      24.078  46.869  49.321  1.00  0.00     0.002 C 
HETATM   13  C   UNL     1      23.478  45.486  49.575  1.00  0.00     0.027 C 
HETATM   14  H   UNL     1      25.263  43.765  48.514  1.00  0.00     0.163 HD
ENDROOT
BRANCH   1  15
HETATM   15  C   UNL     1      27.821  42.636  51.996  1.00  0.00     0.146 C 
BRANCH  15  16
HETATM   16  C   UNL     1      28.096  42.929  53.456  1.00  0.00     0.224 C 
HETATM   17  N   UNL     1      29.202  43.713  53.678  1.00  0.00    -0.327 N 
HETATM   18  H   UNL     1      29.641  44.156  52.881  1.00  0.00     0.169 HD
HETATM   19  O   UNL     1      27.280  42.545  54.297  1.00  0.00    -0.273 OA
BRANCH  17  20
HETATM   20  C   UNL     1      29.744  44.049  54.944  1.00  0.00     0.040 A 
HETATM   21  C   UNL     1      29.338  45.245  55.572  1.00  0.00    -0.035 A 
HETATM   22  C   UNL     1      28.300  46.161  54.984  1.00  0.00     0.050 C 
HETATM   23  C   UNL     1      29.912  45.600  56.806  1.00  0.00     0.009 A 
HETATM   24  C   UNL     1      30.870  44.789  57.412  1.00  0.00     0.001 A 
HETATM   25  C   UNL     1      31.269  43.612  56.791  1.00  0.00     0.002 A 
HETATM   26  C   UNL     1      30.709  43.245  55.567  1.00  0.00     0.030 A 
ENDBRANCH  17  20
ENDBRANCH  15  16
ENDBRANCH   1  15
TORSDOF 3
ENDMDL
MODEL 3
REMARK VINA RESULT:      -8.7      6.702      8.322
REMARK  3 active torsions:
REMARK  status: ('A' for Active; 'I' for Inactive)
REMARK    1  A    between atoms: C_3  and  N_4 
REMARK       I    between atoms: N_4  and  C_5 
REMARK    2  A    between atoms: C_5  and  C_6 
REMARK    3  A    between atoms: C_6  and  C_7 
ROOT
HETATM    1  C   UNL     1      22.607  48.736  49.171  1.00  0.00     0.286 C 
HETATM    2  N   UNL     1      21.155  48.350  49.455  1.00  0.00    -0.056 N 
HETATM    3  H   UNL     1      20.940  47.587  48.778  1.00  0.00     0.278 HD
HETATM    4  H   UNL     1      21.051  47.942  50.390  1.00  0.00     0.278 HD
HETATM    5  C   UNL     1      20.140  49.425  49.204  1.00  0.00     0.209 C 
HETATM    6  C   UNL     1      20.332  49.984  47.774  1.00  0.00     0.115 C 
HETATM    7  N   UNL     1      21.717  50.374  47.512  1.00  0.00    -0.353 N 
HETATM    8  C   UNL     1      22.791  49.624  47.920  1.00  0.00     0.249 C 
HETATM    9  O   UNL     1      23.875  49.745  47.358  1.00  0.00    -0.271 OA
HETATM   10  C   UNL     1      20.227  50.504  50.284  1.00  0.00     0.035 C 
HETATM   11  C   UNL     1      19.238  51.633  49.997  1.00  0.00     0.002 C 
HETATM   12  C   UNL     1      19.441  52.220  48.601  1.00  0.00     0.002 C 
HETATM   13  C   UNL     1      19.370  51.147  47.515  1.00  0.00     0.027 C 
HETATM   14  H   UNL     1      21.911  50.884  46.652  1.00  0.00     0.163 HD
ENDROOT
BRANCH   1  15
HETATM   15  C   UNL     1      23.488  47.479  49.073  1.00  0.00     0.146 C 
BRANCH  15  16
HETATM   16  C   UNL     1      24.605  47.555  50.092  1.00  0.00     0.224 C 
HETATM   17  N   UNL     1      24.611  46.528  51.004  1.00  0.00    -0.327 N 
HETATM   18  H   UNL     1      23.996  45.740  50.840  1.00  0.00     0.169 HD
HETATM   19  O   UNL     1      25.455  48.439  49.968  1.00  0.00    -0.273 OA
BRANCH  17  20
HETATM   20  C   UNL     1      25.474  46.411  52.122  1.00  0.00     0.040 A 
HETATM   21  C   UNL     1      26.315  45.284  52.228  1.00  0.00    -0.035 A 
HETATM   22  C   UNL     1      26.383  44.217  51.169  1.00  0.00     0.050 C 
HETATM   23  C   UNL     1      27.137  45.146  53.361  1.00  0.00     0.009 A 
HETATM   24  C   UNL     1      27.132  46.105  54.372  1.00  0.00     0.001 A 
HETATM   25  C   UNL     1      26.303  47.214  54.266  1.00  0.00     0.002 A 
HETATM   26  C   UNL     1      25.481  47.366  53.148  1.00  0.00     0.030 A 
ENDBRANCH  17  20
ENDBRANCH  15  16
ENDBRANCH   1  15
TORSDOF 3
ENDMDL
MODEL 4
REMARK VINA RESULT:      -8.4      7.639     10.409
REMARK  3 active torsions:
REMARK  status: ('A' for Active; 'I' for Inactive)
REMARK    1  A    between atoms: C_3  and  N_4 
REMARK       I    between atoms: N_4  and  C_5 
REMARK    2  A    between atoms: C_5  and  C_6 
REMARK    3  A    between atoms: C_6  and  C_7 
ROOT
HETATM    1  C   UNL     1      24.197  49.344  48.525  1.00  0.00     0.286 C 
HETATM    2  N   UNL     1      23.547  48.633  49.713  1.00  0.00    -0.056 N 
HETATM    3  H   UNL     1      23.672  49.282  50.519  1.00  0.00     0.278 HD
HETATM    4  H   UNL     1      22.535  48.530  49.581  1.00  0.00     0.278 HD
HETATM    5  C   UNL     1      24.186  47.339  50.121  1.00  0.00     0.209 C 
HETATM    6  C   UNL     1      25.703  47.563  50.327  1.00  0.00     0.115 C 
HETATM    7  N   UNL     1      26.328  48.222  49.181  1.00  0.00    -0.353 N 
HETATM    8  C   UNL     1      25.740  49.266  48.511  1.00  0.00     0.249 C 
HETATM    9  O   UNL     1      26.428  50.038  47.852  1.00  0.00    -0.271 OA
HETATM   10  C   UNL     1      23.877  46.245  49.097  1.00  0.00     0.035 C 
HETATM   11  C   UNL     1      24.579  44.942  49.476  1.00  0.00     0.002 C 
HETATM   12  C   UNL     1      26.084  45.140  49.646  1.00  0.00     0.002 C 
HETATM   13  C   UNL     1      26.404  46.241  50.656  1.00  0.00     0.027 C 
HETATM   14  H   UNL     1      27.345  48.281  49.164  1.00  0.00     0.163 HD
ENDROOT
BRANCH   1  15
HETATM   15  C   UNL     1      23.732  50.808  48.456  1.00  0.00     0.146 C 
BRANCH  15  16
HETATM   16  C   UNL     1      22.425  50.967  49.203  1.00  0.00     0.224 C 
HETATM   17  N   UNL     1      21.305  50.854  48.416  1.00  0.00    -0.327 N 
HETATM   18  H   UNL     1      21.420  50.525  47.465  1.00  0.00     0.169 HD
HETATM   19  O   UNL     1      22.458  51.076  50.431  1.00  0.00    -0.273 OA
BRANCH  17  20
HETATM   20  C   UNL     1      19.968  51.064  48.835  1.00  0.00     0.040 A 
HETATM   21  C   UNL     1      19.234  49.982  49.365  1.00  0.00    -0.035 A 
HETATM   22  C   UNL     1      19.829  48.615  49.564  1.00  0.00     0.050 C 
HETATM   23  C   UNL     1      17.892  50.181  49.736  1.00  0.00     0.009 A 
HETATM   24  C   UNL     1      17.283  51.426  49.590  1.00  0.00     0.001 A 
HETATM   25  C   UNL     1      18.008  52.490  49.068  1.00  0.00     0.002 A 
HETATM   26  C   UNL     1      19.340  52.310  48.694  1.00  0.00     0.030 A 
ENDBRANCH  17  20
ENDBRANCH  15  16
ENDBRANCH   1  15
TORSDOF 3
ENDMDL
MODEL 5
REMARK VINA RESULT:      -8.4      1.819      2.967
REMARK  3 active torsions:
REMARK  status: ('A' for Active; 'I' for Inactive)
REMARK    1  A    between atoms: C_3  and  N_4 
REMARK       I    between atoms: N_4  and  C_5 
REMARK    2  A    between atoms: C_5  and  C_6 
REMARK    3  A    between atoms: C_6  and  C_7 
ROOT
HETATM    1  C   UNL     1      25.552  43.245  51.481  1.00  0.00     0.286 C 
HETATM    2  N   UNL     1      26.739  42.340  51.810  1.00  0.00    -0.056 N 
HETATM    3  H   UNL     1      27.549  42.986  51.924  1.00  0.00     0.278 HD
HETATM    4  H   UNL     1      26.616  41.872  52.714  1.00  0.00     0.278 HD
HETATM    5  C   UNL     1      27.131  41.372  50.734  1.00  0.00     0.209 C 
HETATM    6  C   UNL     1      27.325  42.138  49.404  1.00  0.00     0.115 C 
HETATM    7  N   UNL     1      26.178  42.986  49.080  1.00  0.00    -0.353 N 
HETATM    8  C   UNL     1      25.522  43.742  50.019  1.00  0.00     0.249 C 
HETATM    9  O   UNL     1      24.862  44.716  49.672  1.00  0.00    -0.271 OA
HETATM   10  C   UNL     1      26.101  40.245  50.630  1.00  0.00     0.035 C 
HETATM   11  C   UNL     1      26.463  39.291  49.493  1.00  0.00     0.002 C 
HETATM   12  C   UNL     1      26.620  40.029  48.165  1.00  0.00     0.002 C 
HETATM   13  C   UNL     1      27.636  41.167  48.261  1.00  0.00     0.027 C 
HETATM   14  H   UNL     1      26.152  43.416  48.156  1.00  0.00     0.163 HD
ENDROOT
BRANCH   1  15
HETATM   15  C   UNL     1      25.498  44.436  52.454  1.00  0.00     0.146 C 
BRANCH  15  16
HETATM   16  C   UNL     1      26.413  44.176  53.632  1.00  0.00     0.224 C 
HETATM   17  N   UNL     1      27.650  44.764  53.529  1.00  0.00    -0.327 N 
HETATM   18  H   UNL     1      27.800  45.434  52.785  1.00  0.00     0.169 HD
HETATM   19  O   UNL     1      25.962  43.568  54.606  1.00  0.00    -0.273 OA
BRANCH  17  20
HETATM   20  C   UNL     1      28.730  44.599  54.432  1.00  0.00     0.040 A 
HETATM   21  C   UNL     1      29.041  45.638  55.333  1.00  0.00    -0.035 A 
HETATM   22  C   UNL     1      28.235  46.905  55.422  1.00  0.00     0.050 C 
HETATM   23  C   UNL     1      30.142  45.491  56.195  1.00  0.00     0.009 A 
HETATM   24  C   UNL     1      30.922  44.336  56.173  1.00  0.00     0.001 A 
HETATM   25  C   UNL     1      30.614  43.314  55.285  1.00  0.00     0.002 A 
HETATM   26  C   UNL     1      29.525  43.444  54.422  1.00  0.00     0.030 A 
ENDBRANCH  17  20
ENDBRANCH  15  16
ENDBRANCH   1  15
TORSDOF 3
ENDMDL
MODEL 6
REMARK VINA RESULT:      -8.3      3.331      4.623
REMARK  3 active torsions:
REMARK  status: ('A' for Active; 'I' for Inactive)
REMARK    1  A    between atoms: C_3  and  N_4 
REMARK       I    between atoms: N_4  and  C_5 
REMARK    2  A    between atoms: C_5  and  C_6 
REMARK    3  A    between atoms: C_6  and  C_7 
ROOT
HETATM    1  C   UNL     1      26.122  45.060  50.577  1.00  0.00     0.286 C 
HETATM    2  N   UNL     1      26.352  46.345  51.373  1.00  0.00    -0.056 N 
HETATM    3  H   UNL     1      25.794  46.227  52.246  1.00  0.00     0.278 HD
HETATM    4  H   UNL     1      27.331  46.434  51.668  1.00  0.00     0.278 HD
HETATM    5  C   UNL     1      25.852  47.603  50.729  1.00  0.00     0.209 C 
HETATM    6  C   UNL     1      24.369  47.416  50.329  1.00  0.00     0.115 C 
HETATM    7  N   UNL     1      24.153  46.199  49.548  1.00  0.00    -0.353 N 
HETATM    8  C   UNL     1      24.760  45.004  49.849  1.00  0.00     0.249 C 
HETATM    9  O   UNL     1      24.271  43.950  49.457  1.00  0.00    -0.271 OA
HETATM   10  C   UNL     1      26.745  47.990  49.548  1.00  0.00     0.035 C 
HETATM   11  C   UNL     1      26.202  49.235  48.850  1.00  0.00     0.002 C 
HETATM   12  C   UNL     1      24.749  49.051  48.415  1.00  0.00     0.002 C 
HETATM   13  C   UNL     1      23.850  48.650  49.585  1.00  0.00     0.027 C 
HETATM   14  H   UNL     1      23.239  46.065  49.119  1.00  0.00     0.163 HD
ENDROOT
BRANCH   1  15
HETATM   15  C   UNL     1      26.297  43.829  51.482  1.00  0.00     0.146 C 
BRANCH  15  16
HETATM   16  C   UNL     1      27.635  43.899  52.189  1.00  0.00     0.224 C 
HETATM   17  N   UNL     1      27.554  43.862  53.560  1.00  0.00    -0.327 N 
HETATM   18  H   UNL     1      26.661  43.636  53.979  1.00  0.00     0.169 HD
HETATM   19  O   UNL     1      28.662  43.878  51.508  1.00  0.00    -0.273 OA
BRANCH  17  20
HETATM   20  C   UNL     1      28.635  44.018  54.462  1.00  0.00     0.040 A 
HETATM   21  C   UNL     1      28.789  45.240  55.150  1.00  0.00    -0.035 A 
HETATM   22  C   UNL     1      27.814  46.378  55.014  1.00  0.00     0.050 C 
HETATM   23  C   UNL     1      29.889  45.409  56.009  1.00  0.00     0.009 A 
HETATM   24  C   UNL     1      30.822  44.389  56.191  1.00  0.00     0.001 A 
HETATM   25  C   UNL     1      30.669  43.187  55.513  1.00  0.00     0.002 A 
HETATM   26  C   UNL     1      29.582  43.002  54.656  1.00  0.00     0.030 A 
ENDBRANCH  17  20
ENDBRANCH  15  16
ENDBRANCH   1  15
TORSDOF 3
ENDMDL
MODEL 7
REMARK VINA RESULT:      -8.3      1.639      2.408
REMARK  3 active torsions:
REMARK  status: ('A' for Active; 'I' for Inactive)
REMARK    1  A    between atoms: C_3  and  N_4 
REMARK       I    between atoms: N_4  and  C_5 
REMARK    2  A    between atoms: C_5  and  C_6 
REMARK    3  A    between atoms: C_6  and  C_7 
ROOT
HETATM    1  C   UNL     1      25.437  45.069  52.252  1.00  0.00     0.286 C 
HETATM    2  N   UNL     1      25.609  43.582  52.563  1.00  0.00    -0.056 N 
HETATM    3  H   UNL     1      26.524  43.512  53.057  1.00  0.00     0.278 HD
HETATM    4  H   UNL     1      24.899  43.252  53.227  1.00  0.00     0.278 HD
HETATM    5  C   UNL     1      25.713  42.679  51.370  1.00  0.00     0.209 C 
HETATM    6  C   UNL     1      26.812  43.213  50.422  1.00  0.00     0.115 C 
HETATM    7  N   UNL     1      26.634  44.630  50.106  1.00  0.00    -0.353 N 
HETATM    8  C   UNL     1      26.268  45.561  51.046  1.00  0.00     0.249 C 
HETATM    9  O   UNL     1      26.517  46.748  50.864  1.00  0.00    -0.271 OA
HETATM   10  C   UNL     1      24.351  42.538  50.687  1.00  0.00     0.035 C 
HETATM   11  C   UNL     1      24.466  41.671  49.435  1.00  0.00     0.002 C 
HETATM   12  C   UNL     1      25.522  42.208  48.471  1.00  0.00     0.002 C 
HETATM   13  C   UNL     1      26.884  42.366  49.147  1.00  0.00     0.027 C 
HETATM   14  H   UNL     1      27.223  45.032  49.379  1.00  0.00     0.163 HD
ENDROOT
BRANCH   1  15
HETATM   15  C   UNL     1      25.743  45.917  53.498  1.00  0.00     0.146 C 
BRANCH  15  16
HETATM   16  C   UNL     1      26.676  45.159  54.418  1.00  0.00     0.224 C 
HETATM   17  N   UNL     1      27.986  45.569  54.361  1.00  0.00    -0.327 N 
HETATM   18  H   UNL     1      28.198  46.418  53.853  1.00  0.00     0.169 HD
HETATM   19  O   UNL     1      26.192  44.334  55.197  1.00  0.00    -0.273 OA
BRANCH  17  20
HETATM   20  C   UNL     1      29.078  44.965  55.032  1.00  0.00     0.040 A 
HETATM   21  C   UNL     1      29.627  43.771  54.520  1.00  0.00    -0.035 A 
HETATM   22  C   UNL     1      29.143  43.134  53.246  1.00  0.00     0.050 C 
HETATM   23  C   UNL     1      30.680  43.148  55.214  1.00  0.00     0.009 A 
HETATM   24  C   UNL     1      31.185  43.694  56.393  1.00  0.00     0.001 A 
HETATM   25  C   UNL     1      30.642  44.869  56.896  1.00  0.00     0.002 A 
HETATM   26  C   UNL     1      29.597  45.500  56.220  1.00  0.00     0.030 A 
ENDBRANCH  17  20
ENDBRANCH  15  16
ENDBRANCH   1  15
TORSDOF 3
ENDMDL
MODEL 8
REMARK VINA RESULT:      -8.3      2.623      4.237
REMARK  3 active torsions:
REMARK  status: ('A' for Active; 'I' for Inactive)
REMARK    1  A    between atoms: C_3  and  N_4 
REMARK       I    between atoms: N_4  and  C_5 
REMARK    2  A    between atoms: C_5  and  C_6 
REMARK    3  A    between atoms: C_6  and  C_7 
ROOT
HETATM    1  C   UNL     1      27.075  42.252  50.476  1.00  0.00     0.286 C 
HETATM    2  N   UNL     1      25.768  42.180  51.267  1.00  0.00    -0.056 N 
HETATM    3  H   UNL     1      25.598  41.162  51.416  1.00  0.00     0.278 HD
HETATM    4  H   UNL     1      25.871  42.593  52.201  1.00  0.00     0.278 HD
HETATM    5  C   UNL     1      24.554  42.704  50.560  1.00  0.00     0.209 C 
HETATM    6  C   UNL     1      24.441  42.028  49.173  1.00  0.00     0.115 C 
HETATM    7  N   UNL     1      25.684  42.118  48.408  1.00  0.00    -0.353 N 
HETATM    8  C   UNL     1      26.921  41.930  48.973  1.00  0.00     0.249 C 
HETATM    9  O   UNL     1      27.875  41.613  48.271  1.00  0.00    -0.271 OA
HETATM   10  C   UNL     1      24.602  44.231  50.479  1.00  0.00     0.035 C 
HETATM   11  C   UNL     1      23.399  44.765  49.704  1.00  0.00     0.002 C 
HETATM   12  C   UNL     1      23.296  44.135  48.316  1.00  0.00     0.002 C 
HETATM   13  C   UNL     1      23.262  42.608  48.385  1.00  0.00     0.027 C 
HETATM   14  H   UNL     1      25.662  41.830  47.431  1.00  0.00     0.163 HD
ENDROOT
BRANCH   1  15
HETATM   15  C   UNL     1      28.140  41.344  51.114  1.00  0.00     0.146 C 
BRANCH  15  16
HETATM   16  C   UNL     1      28.381  41.767  52.548  1.00  0.00     0.224 C 
HETATM   17  N   UNL     1      28.935  43.016  52.685  1.00  0.00    -0.327 N 
HETATM   18  H   UNL     1      28.989  43.607  51.865  1.00  0.00     0.169 HD
HETATM   19  O   UNL     1      27.982  41.031  53.454  1.00  0.00    -0.273 OA
BRANCH  17  20
HETATM   20  C   UNL     1      29.359  43.611  53.899  1.00  0.00     0.040 A 
HETATM   21  C   UNL     1      28.610  44.675  54.444  1.00  0.00    -0.035 A 
HETATM   22  C   UNL     1      27.334  45.174  53.822  1.00  0.00     0.050 C 
HETATM   23  C   UNL     1      29.058  45.295  55.624  1.00  0.00     0.009 A 
HETATM   24  C   UNL     1      30.226  44.872  56.259  1.00  0.00     0.001 A 
HETATM   25  C   UNL     1      30.962  43.825  55.720  1.00  0.00     0.002 A 
HETATM   26  C   UNL     1      30.531  43.199  54.549  1.00  0.00     0.030 A 
ENDBRANCH  17  20
ENDBRANCH  15  16
ENDBRANCH   1  15
TORSDOF 3
ENDMDL
MODEL 9
REMARK VINA RESULT:      -8.0      8.885     10.907
REMARK  3 active torsions:
REMARK  status: ('A' for Active; 'I' for Inactive)
REMARK    1  A    between atoms: C_3  and  N_4 
REMARK       I    between atoms: N_4  and  C_5 
REMARK    2  A    between atoms: C_5  and  C_6 
REMARK    3  A    between atoms: C_6  and  C_7 
ROOT
HETATM    1  C   UNL     1      20.033  49.685  48.811  1.00  0.00     0.286 C 
HETATM    2  N   UNL     1      19.275  49.901  50.121  1.00  0.00    -0.056 N 
HETATM    3  H   UNL     1      18.990  48.948  50.430  1.00  0.00     0.278 HD
HETATM    4  H   UNL     1      19.892  50.268  50.855  1.00  0.00     0.278 HD
HETATM    5  C   UNL     1      18.009  50.698  50.013  1.00  0.00     0.209 C 
HETATM    6  C   UNL     1      17.114  50.084  48.910  1.00  0.00     0.115 C 
HETATM    7  N   UNL     1      17.833  49.899  47.650  1.00  0.00    -0.353 N 
HETATM    8  C   UNL     1      19.121  49.426  47.591  1.00  0.00     0.249 C 
HETATM    9  O   UNL     1      19.539  48.909  46.560  1.00  0.00    -0.271 OA
HETATM   10  C   UNL     1      18.327  52.175  49.771  1.00  0.00     0.035 C 
HETATM   11  C   UNL     1      17.040  52.979  49.597  1.00  0.00     0.002 C 
HETATM   12  C   UNL     1      16.164  52.407  48.484  1.00  0.00     0.002 C 
HETATM   13  C   UNL     1      15.852  50.927  48.708  1.00  0.00     0.027 C 
HETATM   14  H   UNL     1      17.291  49.637  46.829  1.00  0.00     0.163 HD
ENDROOT
BRANCH   1  15
HETATM   15  C   UNL     1      21.059  48.550  48.964  1.00  0.00     0.146 C 
BRANCH  15  16
HETATM   16  C   UNL     1      22.429  49.132  49.245  1.00  0.00     0.224 C 
HETATM   17  N   UNL     1      23.460  48.490  48.604  1.00  0.00    -0.327 N 
HETATM   18  H   UNL     1      23.228  47.807  47.893  1.00  0.00     0.169 HD
HETATM   19  O   UNL     1      22.503  50.164  49.917  1.00  0.00    -0.273 OA
BRANCH  17  20
HETATM   20  C   UNL     1      24.841  48.759  48.771  1.00  0.00     0.040 A 
HETATM   21  C   UNL     1      25.597  47.960  49.653  1.00  0.00    -0.035 A 
HETATM   22  C   UNL     1      25.012  46.785  50.390  1.00  0.00     0.050 C 
HETATM   23  C   UNL     1      26.956  48.258  49.854  1.00  0.00     0.009 A 
HETATM   24  C   UNL     1      27.563  49.325  49.193  1.00  0.00     0.001 A 
HETATM   25  C   UNL     1      26.817  50.110  48.324  1.00  0.00     0.002 A 
HETATM   26  C   UNL     1      25.466  49.829  48.114  1.00  0.00     0.030 A 
ENDBRANCH  17  20
ENDBRANCH  15  16
ENDBRANCH   1  15
TORSDOF 3
ENDMDL
MODEL 10
REMARK VINA RESULT:      -8.0      5.137      8.263
REMARK  3 active torsions:
REMARK  status: ('A' for Active; 'I' for Inactive)
REMARK    1  A    between atoms: C_3  and  N_4 
REMARK       I    between atoms: N_4  and  C_5 
REMARK    2  A    between atoms: C_5  and  C_6 
REMARK    3  A    between atoms: C_6  and  C_7 
ROOT
HETATM    1  C   UNL     1      24.976  45.201  50.975  1.00  0.00     0.286 C 
HETATM    2  N   UNL     1      26.484  45.451  50.984  1.00  0.00    -0.056 N 
HETATM    3  H   UNL     1      26.822  45.106  50.060  1.00  0.00     0.278 HD
HETATM    4  H   UNL     1      26.698  46.455  51.011  1.00  0.00     0.278 HD
HETATM    5  C   UNL     1      27.260  44.692  52.019  1.00  0.00     0.209 C 
HETATM    6  C   UNL     1      26.913  43.188  51.913  1.00  0.00     0.115 C 
HETATM    7  N   UNL     1      25.471  42.948  51.927  1.00  0.00    -0.353 N 
HETATM    8  C   UNL     1      24.579  43.731  51.238  1.00  0.00     0.249 C 
HETATM    9  O   UNL     1      23.474  43.289  50.939  1.00  0.00    -0.271 OA
HETATM   10  C   UNL     1      26.998  45.269  53.411  1.00  0.00     0.035 C 
HETATM   11  C   UNL     1      27.736  44.458  54.476  1.00  0.00     0.002 C 
HETATM   12  C   UNL     1      27.374  42.975  54.407  1.00  0.00     0.002 C 
HETATM   13  C   UNL     1      27.618  42.392  53.016  1.00  0.00     0.027 C 
HETATM   14  H   UNL     1      25.151  41.984  52.007  1.00  0.00     0.163 HD
ENDROOT
BRANCH   1  15
HETATM   15  C   UNL     1      24.357  45.697  49.657  1.00  0.00     0.146 C 
BRANCH  15  16
HETATM   16  C   UNL     1      23.927  47.142  49.804  1.00  0.00     0.224 C 
HETATM   17  N   UNL     1      22.798  47.472  49.096  1.00  0.00    -0.327 N 
HETATM   18  H   UNL     1      22.263  46.723  48.674  1.00  0.00     0.169 HD
HETATM   19  O   UNL     1      24.537  47.859  50.602  1.00  0.00    -0.273 OA
BRANCH  17  20
HETATM   20  C   UNL     1      22.243  48.770  48.972  1.00  0.00     0.040 A 
HETATM   21  C   UNL     1      20.841  48.925  48.995  1.00  0.00    -0.035 A 
HETATM   22  C   UNL     1      19.899  47.771  49.208  1.00  0.00     0.050 C 
HETATM   23  C   UNL     1      20.290  50.207  48.824  1.00  0.00     0.009 A 
HETATM   24  C   UNL     1      21.108  51.321  48.636  1.00  0.00     0.001 A 
HETATM   25  C   UNL     1      22.488  51.166  48.613  1.00  0.00     0.002 A 
HETATM   26  C   UNL     1      23.051  49.900  48.781  1.00  0.00     0.030 A 
ENDBRANCH  17  20
ENDBRANCH  15  16
ENDBRANCH   1  15
TORSDOF 3
ENDMDL
