MODEL 1
REMARK VINA RESULT:      -7.7      0.000      0.000
REMARK  7 active torsions:
REMARK  status: ('A' for Active; 'I' for Inactive)
REMARK    1  A    between atoms: O_2  and  C_3 
REMARK    2  A    between atoms: C_4  and  O_5 
REMARK    3  A    between atoms: C_6  and  C_7 
REMARK    4  A    between atoms: C_7  and  N_8 
REMARK    5  A    between atoms: C_11  and  C_12 
REMARK    6  A    between atoms: C_12  and  N_13 
REMARK    7  A    between atoms: N_13  and  C_14 
ROOT
HETATM    1  N   UNL     1      26.724  43.409  51.766  1.00  0.00    -0.067 N 
HETATM    2  H   UNL     1      27.464  42.783  52.141  1.00  0.00     0.280 HD
HETATM    3  C   UNL     1      27.400  44.401  50.854  1.00  0.00     0.241 C 
HETATM    4  C   UNL     1      26.497  44.494  49.626  1.00  0.00     0.026 C 
HETATM    5  C   UNL     1      25.982  43.061  49.507  1.00  0.00     0.035 C 
HETATM    6  C   UNL     1      25.775  42.581  50.937  1.00  0.00     0.235 C 
ENDROOT
BRANCH   1   7
HETATM    7  C   UNL     1      26.100  43.962  53.025  1.00  0.00     0.276 C 
BRANCH   7   8
HETATM    8  C   UNL     1      27.039  44.775  53.863  1.00  0.00     0.005 A 
HETATM    9  C   UNL     1      26.781  46.124  54.118  1.00  0.00     0.107 A 
HETATM   10  C   UNL     1      27.670  46.928  54.845  1.00  0.00     0.103 A 
HETATM   11  C   UNL     1      28.824  46.354  55.374  1.00  0.00     0.058 A 
HETATM   12  C   UNL     1      29.083  45.001  55.147  1.00  0.00     0.014 A 
HETATM   13  C   UNL     1      28.211  44.216  54.388  1.00  0.00     0.030 A 
HETATM   14 BR   UNL     1      30.634  44.206  55.882  1.00  0.00    -0.051 Br
BRANCH   9  15
HETATM   15  O   UNL     1      25.609  46.662  53.645  1.00  0.00    -0.357 OA
HETATM   16  H   UNL     1      25.032  45.882  53.471  1.00  0.00     0.218 HD
ENDBRANCH   9  15
BRANCH  10  17
HETATM   17  O   UNL     1      27.287  48.236  54.974  1.00  0.00    -0.353 OA
HETATM   18  C   UNL     1      26.529  48.559  56.139  1.00  0.00     0.210 C 
ENDBRANCH  10  17
ENDBRANCH   7   8
ENDBRANCH   1   7
BRANCH   4  19
HETATM   19  C   UNL     1      25.399  45.559  49.806  1.00  0.00     0.100 C 
BRANCH  19  20
HETATM   20  N   UNL     1      25.916  46.715  50.566  1.00  0.00    -0.279 NA
HETATM   21  H   UNL     1      26.849  46.475  50.922  1.00  0.00     0.129 HD
BRANCH  20  22
HETATM   22  C   UNL     1      26.064  47.868  49.786  1.00  0.00     0.079 A 
HETATM   23  N   UNL     1      24.940  48.417  49.302  1.00  0.00    -0.357 N 
HETATM   24  H   UNL     1      24.067  47.951  49.543  1.00  0.00     0.166 HD
HETATM   25  C   UNL     1      24.923  49.522  48.544  1.00  0.00     0.089 A 
HETATM   26  C   UNL     1      26.117  50.157  48.226  1.00  0.00     0.017 A 
HETATM   27  C   UNL     1      27.308  49.634  48.717  1.00  0.00     0.005 A 
HETATM   28  C   UNL     1      27.283  48.488  49.511  1.00  0.00     0.042 A 
ENDBRANCH  20  22
ENDBRANCH  19  20
ENDBRANCH   4  19
TORSDOF 7
ENDMDL
MODEL 2
REMARK VINA RESULT:      -7.7      3.448      7.241
REMARK  7 active torsions:
REMARK  status: ('A' for Active; 'I' for Inactive)
REMARK    1  A    between atoms: O_2  and  C_3 
REMARK    2  A    between atoms: C_4  and  O_5 
REMARK    3  A    between atoms: C_6  and  C_7 
REMARK    4  A    between atoms: C_7  and  N_8 
REMARK    5  A    between atoms: C_11  and  C_12 
REMARK    6  A    between atoms: C_12  and  N_13 
REMARK    7  A    between atoms: N_13  and  C_14 
ROOT
HETATM    1  N   UNL     1      25.776  44.914  52.515  1.00  0.00    -0.067 N 
HETATM    2  H   UNL     1      24.786  44.802  52.222  1.00  0.00     0.280 HD
HETATM    3  C   UNL     1      25.805  45.975  53.587  1.00  0.00     0.241 C 
HETATM    4  C   UNL     1      26.748  45.433  54.659  1.00  0.00     0.026 C 
HETATM    5  C   UNL     1      26.460  43.934  54.600  1.00  0.00     0.035 C 
HETATM    6  C   UNL     1      26.243  43.617  53.126  1.00  0.00     0.235 C 
ENDROOT
BRANCH   1   7
HETATM    7  C   UNL     1      26.463  45.249  51.213  1.00  0.00     0.276 C 
BRANCH   7   8
HETATM    8  C   UNL     1      25.838  46.391  50.471  1.00  0.00     0.005 A 
HETATM    9  C   UNL     1      24.471  46.394  50.186  1.00  0.00     0.107 A 
HETATM   10  C   UNL     1      23.867  47.416  49.441  1.00  0.00     0.103 A 
HETATM   11  C   UNL     1      24.643  48.491  49.013  1.00  0.00     0.058 A 
HETATM   12  C   UNL     1      26.006  48.514  49.312  1.00  0.00     0.014 A 
HETATM   13  C   UNL     1      26.608  47.471  50.021  1.00  0.00     0.030 A 
HETATM   14 BR   UNL     1      27.064  49.980  48.757  1.00  0.00    -0.051 Br
BRANCH   9  15
HETATM   15  O   UNL     1      23.705  45.361  50.669  1.00  0.00    -0.357 OA
HETATM   16  H   UNL     1      22.775  45.649  50.512  1.00  0.00     0.218 HD
ENDBRANCH   9  15
BRANCH  10  17
HETATM   17  O   UNL     1      22.526  47.249  49.219  1.00  0.00    -0.353 OA
HETATM   18  C   UNL     1      21.795  48.422  48.861  1.00  0.00     0.210 C 
ENDBRANCH  10  17
ENDBRANCH   7   8
ENDBRANCH   1   7
BRANCH   4  19
HETATM   19  C   UNL     1      28.213  45.818  54.378  1.00  0.00     0.100 C 
BRANCH  19  20
HETATM   20  N   UNL     1      28.883  46.252  55.620  1.00  0.00    -0.279 NA
HETATM   21  H   UNL     1      28.165  46.403  56.338  1.00  0.00     0.129 HD
BRANCH  20  22
HETATM   22  C   UNL     1      29.772  45.298  56.130  1.00  0.00     0.079 A 
HETATM   23  N   UNL     1      30.237  45.509  57.370  1.00  0.00    -0.357 N 
HETATM   24  H   UNL     1      29.903  46.346  57.844  1.00  0.00     0.166 HD
HETATM   25  C   UNL     1      31.091  44.683  57.991  1.00  0.00     0.089 A 
HETATM   26  C   UNL     1      31.536  43.539  57.342  1.00  0.00     0.017 A 
HETATM   27  C   UNL     1      31.070  43.269  56.060  1.00  0.00     0.005 A 
HETATM   28  C   UNL     1      30.174  44.148  55.452  1.00  0.00     0.042 A 
ENDBRANCH  20  22
ENDBRANCH  19  20
ENDBRANCH   4  19
TORSDOF 7
ENDMDL
MODEL 3
REMARK VINA RESULT:      -7.6      3.292      6.394
REMARK  7 active torsions:
REMARK  status: ('A' for Active; 'I' for Inactive)
REMARK    1  A    between atoms: O_2  and  C_3 
REMARK    2  A    between atoms: C_4  and  O_5 
REMARK    3  A    between atoms: C_6  and  C_7 
REMARK    4  A    between atoms: C_7  and  N_8 
REMARK    5  A    between atoms: C_11  and  C_12 
REMARK    6  A    between atoms: C_12  and  N_13 
REMARK    7  A    between atoms: N_13  and  C_14 
ROOT
HETATM    1  N   UNL     1      28.062  44.301  53.498  1.00  0.00    -0.067 N 
HETATM    2  H   UNL     1      28.152  45.327  53.356  1.00  0.00     0.280 HD
HETATM    3  C   UNL     1      28.685  43.631  52.299  1.00  0.00     0.241 C 
HETATM    4  C   UNL     1      29.510  42.479  52.870  1.00  0.00     0.026 C 
HETATM    5  C   UNL     1      30.012  43.076  54.184  1.00  0.00     0.035 C 
HETATM    6  C   UNL     1      28.860  43.917  54.718  1.00  0.00     0.235 C 
ENDROOT
BRANCH   1   7
HETATM    7  C   UNL     1      26.572  44.129  53.673  1.00  0.00     0.276 C 
BRANCH   7   8
HETATM    8  C   UNL     1      25.766  44.573  52.490  1.00  0.00     0.005 A 
HETATM    9  C   UNL     1      25.728  45.919  52.118  1.00  0.00     0.107 A 
HETATM   10  C   UNL     1      24.934  46.376  51.057  1.00  0.00     0.103 A 
HETATM   11  C   UNL     1      24.198  45.454  50.316  1.00  0.00     0.058 A 
HETATM   12  C   UNL     1      24.246  44.102  50.662  1.00  0.00     0.014 A 
HETATM   13  C   UNL     1      25.008  43.660  51.746  1.00  0.00     0.030 A 
HETATM   14 BR   UNL     1      23.270  42.839  49.647  1.00  0.00    -0.051 Br
BRANCH   9  15
HETATM   15  O   UNL     1      26.507  46.808  52.816  1.00  0.00    -0.357 OA
HETATM   16  H   UNL     1      26.711  46.347  53.663  1.00  0.00     0.218 HD
ENDBRANCH   9  15
BRANCH  10  17
HETATM   17  O   UNL     1      24.982  47.727  50.846  1.00  0.00    -0.353 OA
HETATM   18  C   UNL     1      25.569  48.154  49.617  1.00  0.00     0.210 C 
ENDBRANCH  10  17
ENDBRANCH   7   8
ENDBRANCH   1   7
BRANCH   4  19
HETATM   19  C   UNL     1      28.669  41.198  53.026  1.00  0.00     0.100 C 
BRANCH  19  20
HETATM   20  N   UNL     1      29.043  40.204  52.000  1.00  0.00    -0.279 NA
HETATM   21  H   UNL     1      28.851  39.267  52.374  1.00  0.00     0.129 HD
BRANCH  20  22
HETATM   22  C   UNL     1      28.307  40.328  50.815  1.00  0.00     0.079 A 
HETATM   23  N   UNL     1      28.971  40.128  49.668  1.00  0.00    -0.357 N 
HETATM   24  H   UNL     1      29.960  39.899  49.750  1.00  0.00     0.166 HD
HETATM   25  C   UNL     1      28.399  40.208  48.458  1.00  0.00     0.089 A 
HETATM   26  C   UNL     1      27.049  40.513  48.354  1.00  0.00     0.017 A 
HETATM   27  C   UNL     1      26.313  40.714  49.518  1.00  0.00     0.005 A 
HETATM   28  C   UNL     1      26.942  40.611  50.758  1.00  0.00     0.042 A 
ENDBRANCH  20  22
ENDBRANCH  19  20
ENDBRANCH   4  19
TORSDOF 7
ENDMDL
MODEL 4
REMARK VINA RESULT:      -7.5      1.907      2.373
REMARK  7 active torsions:
REMARK  status: ('A' for Active; 'I' for Inactive)
REMARK    1  A    between atoms: O_2  and  C_3 
REMARK    2  A    between atoms: C_4  and  O_5 
REMARK    3  A    between atoms: C_6  and  C_7 
REMARK    4  A    between atoms: C_7  and  N_8 
REMARK    5  A    between atoms: C_11  and  C_12 
REMARK    6  A    between atoms: C_12  and  N_13 
REMARK    7  A    between atoms: N_13  and  C_14 
ROOT
HETATM    1  N   UNL     1      26.303  43.491  51.577  1.00  0.00    -0.067 N 
HETATM    2  H   UNL     1      27.108  42.902  51.868  1.00  0.00     0.280 HD
HETATM    3  C   UNL     1      26.854  44.600  50.716  1.00  0.00     0.241 C 
HETATM    4  C   UNL     1      25.886  44.712  49.541  1.00  0.00     0.026 C 
HETATM    5  C   UNL     1      25.478  43.254  49.332  1.00  0.00     0.035 C 
HETATM    6  C   UNL     1      25.380  42.653  50.728  1.00  0.00     0.235 C 
ENDROOT
BRANCH   1   7
HETATM    7  C   UNL     1      25.702  43.896  52.902  1.00  0.00     0.276 C 
BRANCH   7   8
HETATM    8  C   UNL     1      26.610  44.734  53.751  1.00  0.00     0.005 A 
HETATM    9  C   UNL     1      27.847  44.242  54.172  1.00  0.00     0.107 A 
HETATM   10  C   UNL     1      28.692  44.975  55.018  1.00  0.00     0.103 A 
HETATM   11  C   UNL     1      28.310  46.256  55.411  1.00  0.00     0.058 A 
HETATM   12  C   UNL     1      27.087  46.770  54.977  1.00  0.00     0.014 A 
HETATM   13  C   UNL     1      26.233  46.017  54.167  1.00  0.00     0.030 A 
HETATM   14 BR   UNL     1      26.570  48.517  55.484  1.00  0.00    -0.051 Br
BRANCH   9  15
HETATM   15  O   UNL     1      28.240  43.004  53.726  1.00  0.00    -0.357 OA
HETATM   16  H   UNL     1      28.181  42.424  54.522  1.00  0.00     0.218 HD
ENDBRANCH   9  15
BRANCH  10  17
HETATM   17  O   UNL     1      29.850  44.335  55.367  1.00  0.00    -0.353 OA
HETATM   18  C   UNL     1      30.624  44.949  56.397  1.00  0.00     0.210 C 
ENDBRANCH  10  17
ENDBRANCH   7   8
ENDBRANCH   1   7
BRANCH   4  19
HETATM   19  C   UNL     1      24.719  45.668  49.852  1.00  0.00     0.100 C 
BRANCH  19  20
HETATM   20  N   UNL     1      25.193  46.830  50.629  1.00  0.00    -0.279 NA
HETATM   21  H   UNL     1      25.998  46.534  51.194  1.00  0.00     0.129 HD
BRANCH  20  22
HETATM   22  C   UNL     1      25.629  47.891  49.826  1.00  0.00     0.079 A 
HETATM   23  N   UNL     1      24.682  48.590  49.183  1.00  0.00    -0.357 N 
HETATM   24  H   UNL     1      23.720  48.294  49.333  1.00  0.00     0.166 HD
HETATM   25  C   UNL     1      24.947  49.633  48.383  1.00  0.00     0.089 A 
HETATM   26  C   UNL     1      26.262  50.036  48.191  1.00  0.00     0.017 A 
HETATM   27  C   UNL     1      27.279  49.351  48.849  1.00  0.00     0.005 A 
HETATM   28  C   UNL     1      26.961  48.278  49.681  1.00  0.00     0.042 A 
ENDBRANCH  20  22
ENDBRANCH  19  20
ENDBRANCH   4  19
TORSDOF 7
ENDMDL
MODEL 5
REMARK VINA RESULT:      -7.5      3.633      7.354
REMARK  7 active torsions:
REMARK  status: ('A' for Active; 'I' for Inactive)
REMARK    1  A    between atoms: O_2  and  C_3 
REMARK    2  A    between atoms: C_4  and  O_5 
REMARK    3  A    between atoms: C_6  and  C_7 
REMARK    4  A    between atoms: C_7  and  N_8 
REMARK    5  A    between atoms: C_11  and  C_12 
REMARK    6  A    between atoms: C_12  and  N_13 
REMARK    7  A    between atoms: N_13  and  C_14 
ROOT
HETATM    1  N   UNL     1      25.821  44.647  52.596  1.00  0.00    -0.067 N 
HETATM    2  H   UNL     1      24.840  44.408  52.351  1.00  0.00     0.280 HD
HETATM    3  C   UNL     1      25.771  45.528  53.820  1.00  0.00     0.241 C 
HETATM    4  C   UNL     1      26.880  45.008  54.731  1.00  0.00     0.026 C 
HETATM    5  C   UNL     1      26.836  43.506  54.452  1.00  0.00     0.035 C 
HETATM    6  C   UNL     1      26.544  43.376  52.963  1.00  0.00     0.235 C 
ENDROOT
BRANCH   1   7
HETATM    7  C   UNL     1      26.326  45.284  51.324  1.00  0.00     0.276 C 
BRANCH   7   8
HETATM    8  C   UNL     1      25.252  45.917  50.492  1.00  0.00     0.005 A 
HETATM    9  C   UNL     1      25.233  47.297  50.283  1.00  0.00     0.107 A 
HETATM   10  C   UNL     1      24.208  47.927  49.562  1.00  0.00     0.103 A 
HETATM   11  C   UNL     1      23.203  47.148  48.993  1.00  0.00     0.058 A 
HETATM   12  C   UNL     1      23.224  45.764  49.173  1.00  0.00     0.014 A 
HETATM   13  C   UNL     1      24.227  45.148  49.926  1.00  0.00     0.030 A 
HETATM   14 BR   UNL     1      21.879  44.695  48.383  1.00  0.00    -0.051 Br
BRANCH   9  15
HETATM   15  O   UNL     1      26.263  48.047  50.796  1.00  0.00    -0.357 OA
HETATM   16  H   UNL     1      26.308  47.787  51.746  1.00  0.00     0.218 HD
ENDBRANCH   9  15
BRANCH  10  17
HETATM   17  O   UNL     1      24.318  49.289  49.481  1.00  0.00    -0.353 OA
HETATM   18  C   UNL     1      24.768  49.812  48.231  1.00  0.00     0.210 C 
ENDBRANCH  10  17
ENDBRANCH   7   8
ENDBRANCH   1   7
BRANCH   4  19
HETATM   19  C   UNL     1      28.231  45.680  54.425  1.00  0.00     0.100 C 
BRANCH  19  20
HETATM   20  N   UNL     1      28.865  46.161  55.669  1.00  0.00    -0.279 NA
HETATM   21  H   UNL     1      28.134  46.275  56.381  1.00  0.00     0.129 HD
BRANCH  20  22
HETATM   22  C   UNL     1      29.805  45.265  56.193  1.00  0.00     0.079 A 
HETATM   23  N   UNL     1      30.227  45.496  57.445  1.00  0.00    -0.357 N 
HETATM   24  H   UNL     1      29.827  46.305  57.916  1.00  0.00     0.166 HD
HETATM   25  C   UNL     1      31.120  44.723  58.079  1.00  0.00     0.089 A 
HETATM   26  C   UNL     1      31.655  43.617  57.433  1.00  0.00     0.017 A 
HETATM   27  C   UNL     1      31.237  43.327  56.138  1.00  0.00     0.005 A 
HETATM   28  C   UNL     1      30.298  44.149  55.516  1.00  0.00     0.042 A 
ENDBRANCH  20  22
ENDBRANCH  19  20
ENDBRANCH   4  19
TORSDOF 7
ENDMDL
MODEL 6
REMARK VINA RESULT:      -7.5      3.801      7.046
REMARK  7 active torsions:
REMARK  status: ('A' for Active; 'I' for Inactive)
REMARK    1  A    between atoms: O_2  and  C_3 
REMARK    2  A    between atoms: C_4  and  O_5 
REMARK    3  A    between atoms: C_6  and  C_7 
REMARK    4  A    between atoms: C_7  and  N_8 
REMARK    5  A    between atoms: C_11  and  C_12 
REMARK    6  A    between atoms: C_12  and  N_13 
REMARK    7  A    between atoms: N_13  and  C_14 
ROOT
HETATM    1  N   UNL     1      26.861  42.602  52.773  1.00  0.00    -0.067 N 
HETATM    2  H   UNL     1      25.951  42.101  52.784  1.00  0.00     0.280 HD
HETATM    3  C   UNL     1      27.745  41.942  53.801  1.00  0.00     0.241 C 
HETATM    4  C   UNL     1      29.111  41.815  53.132  1.00  0.00     0.026 C 
HETATM    5  C   UNL     1      28.723  41.548  51.678  1.00  0.00     0.035 C 
HETATM    6  C   UNL     1      27.495  42.410  51.418  1.00  0.00     0.235 C 
ENDROOT
BRANCH   1   7
HETATM    7  C   UNL     1      26.449  44.028  53.050  1.00  0.00     0.276 C 
BRANCH   7   8
HETATM    8  C   UNL     1      25.788  44.707  51.888  1.00  0.00     0.005 A 
HETATM    9  C   UNL     1      24.659  44.148  51.284  1.00  0.00     0.107 A 
HETATM   10  C   UNL     1      24.055  44.724  50.157  1.00  0.00     0.103 A 
HETATM   11  C   UNL     1      24.565  45.919  49.653  1.00  0.00     0.058 A 
HETATM   12  C   UNL     1      25.677  46.501  50.262  1.00  0.00     0.014 A 
HETATM   13  C   UNL     1      26.298  45.900  51.360  1.00  0.00     0.030 A 
HETATM   14 BR   UNL     1      26.362  48.136  49.601  1.00  0.00    -0.051 Br
BRANCH   9  15
HETATM   15  O   UNL     1      24.129  43.005  51.829  1.00  0.00    -0.357 OA
HETATM   16  H   UNL     1      23.807  43.282  52.719  1.00  0.00     0.218 HD
ENDBRANCH   9  15
BRANCH  10  17
HETATM   17  O   UNL     1      22.982  44.033  49.665  1.00  0.00    -0.353 OA
HETATM   18  C   UNL     1      23.175  43.374  48.414  1.00  0.00     0.210 C 
ENDBRANCH  10  17
ENDBRANCH   7   8
ENDBRANCH   1   7
BRANCH   4  19
HETATM   19  C   UNL     1      29.971  43.074  53.347  1.00  0.00     0.100 C 
BRANCH  19  20
HETATM   20  N   UNL     1      29.331  43.979  54.322  1.00  0.00    -0.279 NA
HETATM   21  H   UNL     1      28.412  43.591  54.567  1.00  0.00     0.129 HD
BRANCH  20  22
HETATM   22  C   UNL     1      30.051  44.102  55.517  1.00  0.00     0.079 A 
HETATM   23  N   UNL     1      29.836  45.211  56.240  1.00  0.00    -0.357 N 
HETATM   24  H   UNL     1      29.162  45.875  55.862  1.00  0.00     0.166 HD
HETATM   25  C   UNL     1      30.449  45.466  57.404  1.00  0.00     0.089 A 
HETATM   26  C   UNL     1      31.360  44.553  57.917  1.00  0.00     0.017 A 
HETATM   27  C   UNL     1      31.606  43.379  57.211  1.00  0.00     0.005 A 
HETATM   28  C   UNL     1      30.940  43.146  56.007  1.00  0.00     0.042 A 
ENDBRANCH  20  22
ENDBRANCH  19  20
ENDBRANCH   4  19
TORSDOF 7
ENDMDL
MODEL 7
REMARK VINA RESULT:      -7.3      3.525      6.538
REMARK  7 active torsions:
REMARK  status: ('A' for Active; 'I' for Inactive)
REMARK    1  A    between atoms: O_2  and  C_3 
REMARK    2  A    between atoms: C_4  and  O_5 
REMARK    3  A    between atoms: C_6  and  C_7 
REMARK    4  A    between atoms: C_7  and  N_8 
REMARK    5  A    between atoms: C_11  and  C_12 
REMARK    6  A    between atoms: C_12  and  N_13 
REMARK    7  A    between atoms: N_13  and  C_14 
ROOT
HETATM    1  N   UNL     1      28.416  44.673  53.592  1.00  0.00    -0.067 N 
HETATM    2  H   UNL     1      28.778  45.622  53.376  1.00  0.00     0.280 HD
HETATM    3  C   UNL     1      28.719  43.800  52.400  1.00  0.00     0.241 C 
HETATM    4  C   UNL     1      29.233  42.487  52.987  1.00  0.00     0.026 C 
HETATM    5  C   UNL     1      29.994  42.973  54.220  1.00  0.00     0.035 C 
HETATM    6  C   UNL     1      29.175  44.130  54.776  1.00  0.00     0.235 C 
ENDROOT
BRANCH   1   7
HETATM    7  C   UNL     1      26.958  44.941  53.881  1.00  0.00     0.276 C 
BRANCH   7   8
HETATM    8  C   UNL     1      26.151  45.288  52.668  1.00  0.00     0.005 A 
HETATM    9  C   UNL     1      25.050  44.511  52.297  1.00  0.00     0.107 A 
HETATM   10  C   UNL     1      24.312  44.772  51.134  1.00  0.00     0.103 A 
HETATM   11  C   UNL     1      24.654  45.869  50.347  1.00  0.00     0.058 A 
HETATM   12  C   UNL     1      25.736  46.669  50.719  1.00  0.00     0.014 A 
HETATM   13  C   UNL     1      26.491  46.379  51.858  1.00  0.00     0.030 A 
HETATM   14 BR   UNL     1      26.193  48.176  49.671  1.00  0.00    -0.051 Br
BRANCH   9  15
HETATM   15  O   UNL     1      24.685  43.470  53.116  1.00  0.00    -0.357 OA
HETATM   16  H   UNL     1      24.499  42.724  52.499  1.00  0.00     0.218 HD
ENDBRANCH   9  15
BRANCH  10  17
HETATM   17  O   UNL     1      23.288  43.895  50.896  1.00  0.00    -0.353 OA
HETATM   18  C   UNL     1      23.446  43.031  49.771  1.00  0.00     0.210 C 
ENDBRANCH  10  17
ENDBRANCH   7   8
ENDBRANCH   1   7
BRANCH   4  19
HETATM   19  C   UNL     1      28.082  41.508  53.287  1.00  0.00     0.100 C 
BRANCH  19  20
HETATM   20  N   UNL     1      27.081  41.536  52.202  1.00  0.00    -0.279 NA
HETATM   21  H   UNL     1      26.855  42.517  51.997  1.00  0.00     0.129 HD
BRANCH  20  22
HETATM   22  C   UNL     1      27.543  40.968  51.008  1.00  0.00     0.079 A 
HETATM   23  N   UNL     1      28.188  39.796  51.106  1.00  0.00    -0.357 N 
HETATM   24  H   UNL     1      28.287  39.411  52.043  1.00  0.00     0.166 HD
HETATM   25  C   UNL     1      28.683  39.133  50.052  1.00  0.00     0.089 A 
HETATM   26  C   UNL     1      28.536  39.661  48.776  1.00  0.00     0.017 A 
HETATM   27  C   UNL     1      27.861  40.868  48.621  1.00  0.00     0.005 A 
HETATM   28  C   UNL     1      27.352  41.523  49.742  1.00  0.00     0.042 A 
ENDBRANCH  20  22
ENDBRANCH  19  20
ENDBRANCH   4  19
TORSDOF 7
ENDMDL
MODEL 8
REMARK VINA RESULT:      -7.1      4.051      7.397
REMARK  7 active torsions:
REMARK  status: ('A' for Active; 'I' for Inactive)
REMARK    1  A    between atoms: O_2  and  C_3 
REMARK    2  A    between atoms: C_4  and  O_5 
REMARK    3  A    between atoms: C_6  and  C_7 
REMARK    4  A    between atoms: C_7  and  N_8 
REMARK    5  A    between atoms: C_11  and  C_12 
REMARK    6  A    between atoms: C_12  and  N_13 
REMARK    7  A    between atoms: N_13  and  C_14 
ROOT
HETATM    1  N   UNL     1      26.127  43.499  50.698  1.00  0.00    -0.067 N 
HETATM    2  H   UNL     1      26.195  43.500  49.661  1.00  0.00     0.280 HD
HETATM    3  C   UNL     1      27.256  44.352  51.219  1.00  0.00     0.241 C 
HETATM    4  C   UNL     1      26.636  45.204  52.324  1.00  0.00     0.026 C 
HETATM    5  C   UNL     1      25.231  45.449  51.778  1.00  0.00     0.035 C 
HETATM    6  C   UNL     1      24.826  44.152  51.092  1.00  0.00     0.235 C 
ENDROOT
BRANCH   1   7
HETATM    7  C   UNL     1      26.186  42.026  51.025  1.00  0.00     0.276 C 
BRANCH   7   8
HETATM    8  C   UNL     1      27.150  41.252  50.177  1.00  0.00     0.005 A 
HETATM    9  C   UNL     1      27.307  41.552  48.822  1.00  0.00     0.107 A 
HETATM   10  C   UNL     1      28.154  40.808  47.988  1.00  0.00     0.103 A 
HETATM   11  C   UNL     1      28.901  39.768  48.536  1.00  0.00     0.058 A 
HETATM   12  C   UNL     1      28.772  39.473  49.895  1.00  0.00     0.014 A 
HETATM   13  C   UNL     1      27.896  40.194  50.710  1.00  0.00     0.030 A 
HETATM   14 BR   UNL     1      29.800  38.080  50.654  1.00  0.00    -0.051 Br
BRANCH   9  15
HETATM   15  O   UNL     1      26.614  42.620  48.308  1.00  0.00    -0.357 OA
HETATM   16  H   UNL     1      26.062  42.233  47.588  1.00  0.00     0.218 HD
ENDBRANCH   9  15
BRANCH  10  17
HETATM   17  O   UNL     1      28.166  41.209  46.679  1.00  0.00    -0.353 OA
HETATM   18  C   UNL     1      27.836  40.212  45.712  1.00  0.00     0.210 C 
ENDBRANCH  10  17
ENDBRANCH   7   8
ENDBRANCH   1   7
BRANCH   4  19
HETATM   19  C   UNL     1      26.681  44.489  53.687  1.00  0.00     0.100 C 
BRANCH  19  20
HETATM   20  N   UNL     1      27.356  45.333  54.693  1.00  0.00    -0.279 NA
HETATM   21  H   UNL     1      26.773  45.356  55.539  1.00  0.00     0.129 HD
BRANCH  20  22
HETATM   22  C   UNL     1      28.609  44.839  55.078  1.00  0.00     0.079 A 
HETATM   23  N   UNL     1      29.244  45.501  56.056  1.00  0.00    -0.357 N 
HETATM   24  H   UNL     1      28.762  46.309  56.444  1.00  0.00     0.166 HD
HETATM   25  C   UNL     1      30.446  45.145  56.531  1.00  0.00     0.089 A 
HETATM   26  C   UNL     1      31.094  44.036  56.002  1.00  0.00     0.017 A 
HETATM   27  C   UNL     1      30.468  43.308  54.995  1.00  0.00     0.005 A 
HETATM   28  C   UNL     1      29.213  43.704  54.536  1.00  0.00     0.042 A 
ENDBRANCH  20  22
ENDBRANCH  19  20
ENDBRANCH   4  19
TORSDOF 7
ENDMDL
MODEL 9
REMARK VINA RESULT:      -7.1      3.434      7.105
REMARK  7 active torsions:
REMARK  status: ('A' for Active; 'I' for Inactive)
REMARK    1  A    between atoms: O_2  and  C_3 
REMARK    2  A    between atoms: C_4  and  O_5 
REMARK    3  A    between atoms: C_6  and  C_7 
REMARK    4  A    between atoms: C_7  and  N_8 
REMARK    5  A    between atoms: C_11  and  C_12 
REMARK    6  A    between atoms: C_12  and  N_13 
REMARK    7  A    between atoms: N_13  and  C_14 
ROOT
HETATM    1  N   UNL     1      26.690  43.562  52.416  1.00  0.00    -0.067 N 
HETATM    2  H   UNL     1      25.662  43.443  52.315  1.00  0.00     0.280 HD
HETATM    3  C   UNL     1      26.995  43.547  53.893  1.00  0.00     0.241 C 
HETATM    4  C   UNL     1      28.238  42.671  54.034  1.00  0.00     0.026 C 
HETATM    5  C   UNL     1      28.008  41.624  52.946  1.00  0.00     0.035 C 
HETATM    6  C   UNL     1      27.372  42.375  51.784  1.00  0.00     0.235 C 
ENDROOT
BRANCH   1   7
HETATM    7  C   UNL     1      26.939  44.860  51.686  1.00  0.00     0.276 C 
BRANCH   7   8
HETATM    8  C   UNL     1      25.796  45.302  50.823  1.00  0.00     0.005 A 
HETATM    9  C   UNL     1      25.400  46.641  50.796  1.00  0.00     0.107 A 
HETATM   10  C   UNL     1      24.296  47.076  50.049  1.00  0.00     0.103 A 
HETATM   11  C   UNL     1      23.601  46.155  49.268  1.00  0.00     0.058 A 
HETATM   12  C   UNL     1      24.001  44.818  49.267  1.00  0.00     0.014 A 
HETATM   13  C   UNL     1      25.077  44.385  50.046  1.00  0.00     0.030 A 
HETATM   14 BR   UNL     1      23.080  43.563  48.193  1.00  0.00    -0.051 Br
BRANCH   9  15
HETATM   15  O   UNL     1      26.132  47.550  51.519  1.00  0.00    -0.357 OA
HETATM   16  H   UNL     1      26.578  48.106  50.838  1.00  0.00     0.218 HD
ENDBRANCH   9  15
BRANCH  10  17
HETATM   17  O   UNL     1      24.019  48.412  50.159  1.00  0.00    -0.353 OA
HETATM   18  C   UNL     1      23.545  49.058  48.978  1.00  0.00     0.210 C 
ENDBRANCH  10  17
ENDBRANCH   7   8
ENDBRANCH   1   7
BRANCH   4  19
HETATM   19  C   UNL     1      29.533  43.490  53.876  1.00  0.00     0.100 C 
BRANCH  19  20
HETATM   20  N   UNL     1      30.544  43.058  54.861  1.00  0.00    -0.279 NA
HETATM   21  H   UNL     1      31.466  43.082  54.410  1.00  0.00     0.129 HD
BRANCH  20  22
HETATM   22  C   UNL     1      30.618  43.896  55.981  1.00  0.00     0.079 A 
HETATM   23  N   UNL     1      29.877  45.013  55.950  1.00  0.00    -0.357 N 
HETATM   24  H   UNL     1      29.316  45.161  55.113  1.00  0.00     0.166 HD
HETATM   25  C   UNL     1      29.843  45.907  56.947  1.00  0.00     0.089 A 
HETATM   26  C   UNL     1      30.604  45.693  58.089  1.00  0.00     0.017 A 
HETATM   27  C   UNL     1      31.379  44.541  58.175  1.00  0.00     0.005 A 
HETATM   28  C   UNL     1      31.379  43.630  57.119  1.00  0.00     0.042 A 
ENDBRANCH  20  22
ENDBRANCH  19  20
ENDBRANCH   4  19
TORSDOF 7
ENDMDL
MODEL 10
REMARK VINA RESULT:      -7.1      2.264      2.961
REMARK  7 active torsions:
REMARK  status: ('A' for Active; 'I' for Inactive)
REMARK    1  A    between atoms: O_2  and  C_3 
REMARK    2  A    between atoms: C_4  and  O_5 
REMARK    3  A    between atoms: C_6  and  C_7 
REMARK    4  A    between atoms: C_7  and  N_8 
REMARK    5  A    between atoms: C_11  and  C_12 
REMARK    6  A    between atoms: C_12  and  N_13 
REMARK    7  A    between atoms: N_13  and  C_14 
ROOT
HETATM    1  N   UNL     1      25.919  45.050  51.437  1.00  0.00    -0.067 N 
HETATM    2  H   UNL     1      26.660  44.331  51.561  1.00  0.00     0.280 HD
HETATM    3  C   UNL     1      26.131  45.677  50.082  1.00  0.00     0.241 C 
HETATM    4  C   UNL     1      24.736  45.786  49.470  1.00  0.00     0.026 C 
HETATM    5  C   UNL     1      24.060  44.526  50.007  1.00  0.00     0.035 C 
HETATM    6  C   UNL     1      24.580  44.357  51.429  1.00  0.00     0.235 C 
ENDROOT
BRANCH   1   7
HETATM    7  C   UNL     1      26.129  45.942  52.636  1.00  0.00     0.276 C 
BRANCH   7   8
HETATM    8  C   UNL     1      27.219  45.478  53.556  1.00  0.00     0.005 A 
HETATM    9  C   UNL     1      27.411  46.088  54.797  1.00  0.00     0.107 A 
HETATM   10  C   UNL     1      28.459  45.720  55.653  1.00  0.00     0.103 A 
HETATM   11  C   UNL     1      29.307  44.681  55.278  1.00  0.00     0.058 A 
HETATM   12  C   UNL     1      29.111  44.046  54.050  1.00  0.00     0.014 A 
HETATM   13  C   UNL     1      28.089  44.445  53.185  1.00  0.00     0.030 A 
HETATM   14 BR   UNL     1      30.241  42.617  53.542  1.00  0.00    -0.051 Br
BRANCH   9  15
HETATM   15  O   UNL     1      26.530  47.068  55.183  1.00  0.00    -0.357 OA
HETATM   16  H   UNL     1      26.559  47.729  54.452  1.00  0.00     0.218 HD
ENDBRANCH   9  15
BRANCH  10  17
HETATM   17  O   UNL     1      28.530  46.440  56.815  1.00  0.00    -0.353 OA
HETATM   18  C   UNL     1      29.476  45.986  57.783  1.00  0.00     0.210 C 
ENDBRANCH  10  17
ENDBRANCH   7   8
ENDBRANCH   1   7
BRANCH   4  19
HETATM   19  C   UNL     1      24.043  47.104  49.862  1.00  0.00     0.100 C 
BRANCH  19  20
HETATM   20  N   UNL     1      22.720  47.207  49.214  1.00  0.00    -0.279 NA
HETATM   21  H   UNL     1      22.021  46.787  49.839  1.00  0.00     0.129 HD
BRANCH  20  22
HETATM   22  C   UNL     1      22.318  48.529  48.986  1.00  0.00     0.079 A 
HETATM   23  N   UNL     1      21.220  48.946  49.633  1.00  0.00    -0.357 N 
HETATM   24  H   UNL     1      20.767  48.268  50.242  1.00  0.00     0.166 HD
HETATM   25  C   UNL     1      20.718  50.183  49.516  1.00  0.00     0.089 A 
HETATM   26  C   UNL     1      21.345  51.106  48.689  1.00  0.00     0.017 A 
HETATM   27  C   UNL     1      22.496  50.724  48.008  1.00  0.00     0.005 A 
HETATM   28  C   UNL     1      22.993  49.431  48.164  1.00  0.00     0.042 A 
ENDBRANCH  20  22
ENDBRANCH  19  20
ENDBRANCH   4  19
TORSDOF 7
ENDMDL
