MODEL 1
REMARK VINA RESULT:      -9.5      0.000      0.000
REMARK  6 active torsions:
REMARK  status: ('A' for Active; 'I' for Inactive)
REMARK    1  A    between atoms: C_2  and  C_3 
REMARK    2  A    between atoms: C_3  and  N_4 
REMARK       I    between atoms: N_4  and  C_5 
REMARK    3  A    between atoms: C_5  and  C_6 
REMARK    4  A    between atoms: C_8  and  N_9 
REMARK       I    between atoms: N_9  and  C_10 
REMARK    5  A    between atoms: C_10  and  C_11 
REMARK    6  A    between atoms: C_15  and  C_16 
ROOT
HETATM    1  N   UNL     1      25.483  47.291  50.484  1.00  0.00    -0.322 N 
HETATM    2  C   UNL     1      25.176  45.952  50.645  1.00  0.00     0.274 C 
HETATM    3  O   UNL     1      24.404  45.318  49.935  1.00  0.00    -0.266 OA
HETATM    4  H   UNL     1      26.287  47.636  50.988  1.00  0.00     0.169 HD
ENDROOT
BRANCH   1   5
HETATM    5  C   UNL     1      24.843  48.211  49.626  1.00  0.00     0.036 A 
HETATM    6  C   UNL     1      23.455  48.369  49.568  1.00  0.00     0.046 A 
HETATM    7  C   UNL     1      22.883  49.324  48.716  1.00  0.00     0.034 A 
HETATM    8  C   UNL     1      23.709  50.138  47.933  1.00  0.00     0.017 A 
HETATM    9  C   UNL     1      25.094  49.989  47.992  1.00  0.00     0.003 A 
HETATM   10  C   UNL     1      25.657  49.034  48.839  1.00  0.00     0.029 A 
BRANCH   7  11
HETATM   11  C   UNL     1      21.410  49.550  48.662  1.00  0.00     0.251 C 
HETATM   12  N   UNL     1      20.808  49.997  49.820  1.00  0.00    -0.357 N 
HETATM   13  H   UNL     1      21.331  50.009  50.687  1.00  0.00     0.162 HD
HETATM   14  O   UNL     1      20.795  49.323  47.626  1.00  0.00    -0.268 OA
BRANCH  12  15
HETATM   15  C   UNL     1      19.386  50.260  49.887  1.00  0.00     0.122 C 
BRANCH  15  16
HETATM   16  C   UNL     1      19.055  51.751  49.881  1.00  0.00     0.015 C 
HETATM   17  C   UNL     1      19.091  52.355  48.485  1.00  0.00     0.006 C 
ENDBRANCH  15  16
ENDBRANCH  12  15
ENDBRANCH   7  11
ENDBRANCH   1   5
BRANCH   2  18
HETATM   18  C   UNL     1      25.872  45.310  51.731  1.00  0.00     0.120 A 
HETATM   19  N   UNL     1      25.204  44.571  52.667  1.00  0.00    -0.272 N 
HETATM   20  H   UNL     1      24.205  44.382  52.694  1.00  0.00     0.189 HD
HETATM   21  N   UNL     1      25.982  44.080  53.641  1.00  0.00    -0.174 NA
HETATM   22  C   UNL     1      27.214  44.530  53.355  1.00  0.00     0.089 A 
HETATM   23  C   UNL     1      27.189  45.288  52.147  1.00  0.00     0.071 A 
BRANCH  22  24
HETATM   24  C   UNL     1      28.356  44.265  54.238  1.00  0.00    -0.006 A 
HETATM   25  C   UNL     1      28.780  45.237  55.158  1.00  0.00     0.014 A 
HETATM   26  C   UNL     1      29.889  45.017  55.980  1.00  0.00     0.007 A 
HETATM   27  C   UNL     1      30.599  43.816  55.903  1.00  0.00    -0.062 A 
HETATM   28  C   UNL     1      31.794  43.569  56.773  1.00  0.00     0.048 C 
HETATM   29  C   UNL     1      30.174  42.835  55.001  1.00  0.00     0.007 A 
HETATM   30  C   UNL     1      29.064  43.057  54.176  1.00  0.00     0.014 A 
ENDBRANCH  22  24
ENDBRANCH   2  18
TORSDOF 6
ENDMDL
MODEL 2
REMARK VINA RESULT:      -9.3      1.595      1.939
REMARK  6 active torsions:
REMARK  status: ('A' for Active; 'I' for Inactive)
REMARK    1  A    between atoms: C_2  and  C_3 
REMARK    2  A    between atoms: C_3  and  N_4 
REMARK       I    between atoms: N_4  and  C_5 
REMARK    3  A    between atoms: C_5  and  C_6 
REMARK    4  A    between atoms: C_8  and  N_9 
REMARK       I    between atoms: N_9  and  C_10 
REMARK    5  A    between atoms: C_10  and  C_11 
REMARK    6  A    between atoms: C_15  and  C_16 
ROOT
HETATM    1  N   UNL     1      25.022  45.612  50.059  1.00  0.00    -0.322 N 
HETATM    2  C   UNL     1      24.943  44.787  51.165  1.00  0.00     0.274 C 
HETATM    3  O   UNL     1      23.913  44.273  51.587  1.00  0.00    -0.266 OA
HETATM    4  H   UNL     1      25.946  45.791  49.690  1.00  0.00     0.169 HD
ENDROOT
BRANCH   1   5
HETATM    5  C   UNL     1      23.945  46.169  49.337  1.00  0.00     0.036 A 
HETATM    6  C   UNL     1      23.524  47.494  49.486  1.00  0.00     0.046 A 
HETATM    7  C   UNL     1      22.466  47.995  48.715  1.00  0.00     0.034 A 
HETATM    8  C   UNL     1      21.839  47.167  47.776  1.00  0.00     0.017 A 
HETATM    9  C   UNL     1      22.259  45.848  47.619  1.00  0.00     0.003 A 
HETATM   10  C   UNL     1      23.311  45.353  48.392  1.00  0.00     0.029 A 
BRANCH   7  11
HETATM   11  C   UNL     1      22.021  49.415  48.815  1.00  0.00     0.251 C 
HETATM   12  N   UNL     1      21.254  49.748  49.913  1.00  0.00    -0.357 N 
HETATM   13  H   UNL     1      20.893  49.019  50.515  1.00  0.00     0.162 HD
HETATM   14  O   UNL     1      22.328  50.214  47.939  1.00  0.00    -0.268 OA
BRANCH  12  15
HETATM   15  C   UNL     1      20.771  51.097  50.123  1.00  0.00     0.122 C 
BRANCH  15  16
HETATM   16  C   UNL     1      19.340  51.300  49.628  1.00  0.00     0.015 C 
HETATM   17  C   UNL     1      19.249  52.314  48.497  1.00  0.00     0.006 C 
ENDBRANCH  15  16
ENDBRANCH  12  15
ENDBRANCH   7  11
ENDBRANCH   1   5
BRANCH   2  18
HETATM   18  C   UNL     1      26.208  44.532  51.808  1.00  0.00     0.120 A 
HETATM   19  N   UNL     1      27.193  43.817  51.185  1.00  0.00    -0.272 N 
HETATM   20  H   UNL     1      27.159  43.425  50.248  1.00  0.00     0.189 HD
HETATM   21  N   UNL     1      28.288  43.622  51.930  1.00  0.00    -0.174 NA
HETATM   22  C   UNL     1      28.013  44.209  53.105  1.00  0.00     0.089 A 
HETATM   23  C   UNL     1      26.723  44.814  53.059  1.00  0.00     0.071 A 
BRANCH  22  24
HETATM   24  C   UNL     1      28.950  44.151  54.234  1.00  0.00    -0.006 A 
HETATM   25  C   UNL     1      28.963  45.171  55.197  1.00  0.00     0.014 A 
HETATM   26  C   UNL     1      29.874  45.152  56.256  1.00  0.00     0.007 A 
HETATM   27  C   UNL     1      30.794  44.108  56.378  1.00  0.00    -0.062 A 
HETATM   28  C   UNL     1      31.783  44.077  57.505  1.00  0.00     0.048 C 
HETATM   29  C   UNL     1      30.779  43.077  55.432  1.00  0.00     0.007 A 
HETATM   30  C   UNL     1      29.866  43.099  54.370  1.00  0.00     0.014 A 
ENDBRANCH  22  24
ENDBRANCH   2  18
TORSDOF 6
ENDMDL
MODEL 3
REMARK VINA RESULT:      -9.2      2.200     10.473
REMARK  6 active torsions:
REMARK  status: ('A' for Active; 'I' for Inactive)
REMARK    1  A    between atoms: C_2  and  C_3 
REMARK    2  A    between atoms: C_3  and  N_4 
REMARK       I    between atoms: N_4  and  C_5 
REMARK    3  A    between atoms: C_5  and  C_6 
REMARK    4  A    between atoms: C_8  and  N_9 
REMARK       I    between atoms: N_9  and  C_10 
REMARK    5  A    between atoms: C_10  and  C_11 
REMARK    6  A    between atoms: C_15  and  C_16 
ROOT
HETATM    1  N   UNL     1      25.614  46.448  51.645  1.00  0.00    -0.322 N 
HETATM    2  C   UNL     1      25.973  46.809  50.360  1.00  0.00     0.274 C 
HETATM    3  O   UNL     1      26.913  46.334  49.733  1.00  0.00    -0.266 OA
HETATM    4  H   UNL     1      24.703  46.747  51.964  1.00  0.00     0.169 HD
ENDROOT
BRANCH   1   5
HETATM    5  C   UNL     1      26.349  45.636  52.535  1.00  0.00     0.036 A 
HETATM    6  C   UNL     1      27.086  46.145  53.609  1.00  0.00     0.046 A 
HETATM    7  C   UNL     1      27.770  45.281  54.476  1.00  0.00     0.034 A 
HETATM    8  C   UNL     1      27.699  43.898  54.274  1.00  0.00     0.017 A 
HETATM    9  C   UNL     1      26.961  43.384  53.209  1.00  0.00     0.003 A 
HETATM   10  C   UNL     1      26.285  44.250  52.348  1.00  0.00     0.029 A 
BRANCH   7  11
HETATM   11  C   UNL     1      28.527  45.787  55.656  1.00  0.00     0.251 C 
HETATM   12  N   UNL     1      29.750  45.199  55.907  1.00  0.00    -0.357 N 
HETATM   13  H   UNL     1      30.022  44.366  55.400  1.00  0.00     0.162 HD
HETATM   14  O   UNL     1      28.047  46.671  56.356  1.00  0.00    -0.268 OA
BRANCH  12  15
HETATM   15  C   UNL     1      30.580  45.612  57.020  1.00  0.00     0.122 C 
BRANCH  15  16
HETATM   16  C   UNL     1      31.018  44.444  57.901  1.00  0.00     0.015 C 
HETATM   17  C   UNL     1      31.688  43.331  57.108  1.00  0.00     0.006 C 
ENDBRANCH  15  16
ENDBRANCH  12  15
ENDBRANCH   7  11
ENDBRANCH   1   5
BRANCH   2  18
HETATM   18  C   UNL     1      25.118  47.803  49.761  1.00  0.00     0.120 A 
HETATM   19  N   UNL     1      25.627  48.806  48.985  1.00  0.00    -0.272 N 
HETATM   20  H   UNL     1      26.602  48.948  48.736  1.00  0.00     0.189 HD
HETATM   21  N   UNL     1      24.712  49.679  48.543  1.00  0.00    -0.174 NA
HETATM   22  C   UNL     1      23.551  49.255  49.066  1.00  0.00     0.089 A 
HETATM   23  C   UNL     1      23.762  48.063  49.819  1.00  0.00     0.071 A 
BRANCH  22  24
HETATM   24  C   UNL     1      22.301  49.998  48.872  1.00  0.00    -0.006 A 
HETATM   25  C   UNL     1      21.707  50.678  49.945  1.00  0.00     0.014 A 
HETATM   26  C   UNL     1      20.496  51.359  49.788  1.00  0.00     0.007 A 
HETATM   27  C   UNL     1      19.852  51.377  48.548  1.00  0.00    -0.062 A 
HETATM   28  C   UNL     1      18.549  52.097  48.366  1.00  0.00     0.048 C 
HETATM   29  C   UNL     1      20.444  50.716  47.467  1.00  0.00     0.007 A 
HETATM   30  C   UNL     1      21.656  50.033  47.627  1.00  0.00     0.014 A 
ENDBRANCH  22  24
ENDBRANCH   2  18
TORSDOF 6
ENDMDL
MODEL 4
REMARK VINA RESULT:      -9.1      2.228     10.493
REMARK  6 active torsions:
REMARK  status: ('A' for Active; 'I' for Inactive)
REMARK    1  A    between atoms: C_2  and  C_3 
REMARK    2  A    between atoms: C_3  and  N_4 
REMARK       I    between atoms: N_4  and  C_5 
REMARK    3  A    between atoms: C_5  and  C_6 
REMARK    4  A    between atoms: C_8  and  N_9 
REMARK       I    between atoms: N_9  and  C_10 
REMARK    5  A    between atoms: C_10  and  C_11 
REMARK    6  A    between atoms: C_15  and  C_16 
ROOT
HETATM    1  N   UNL     1      24.686  47.155  50.671  1.00  0.00    -0.322 N 
HETATM    2  C   UNL     1      25.182  47.982  49.681  1.00  0.00     0.274 C 
HETATM    3  O   UNL     1      26.361  48.052  49.348  1.00  0.00    -0.266 OA
HETATM    4  H   UNL     1      23.684  47.030  50.698  1.00  0.00     0.169 HD
ENDROOT
BRANCH   1   5
HETATM    5  C   UNL     1      25.433  46.400  51.600  1.00  0.00     0.036 A 
HETATM    6  C   UNL     1      26.076  46.963  52.706  1.00  0.00     0.046 A 
HETATM    7  C   UNL     1      26.778  46.152  53.610  1.00  0.00     0.034 A 
HETATM    8  C   UNL     1      26.818  44.767  53.412  1.00  0.00     0.017 A 
HETATM    9  C   UNL     1      26.173  44.200  52.314  1.00  0.00     0.003 A 
HETATM   10  C   UNL     1      25.479  45.013  51.416  1.00  0.00     0.029 A 
BRANCH   7  11
HETATM   11  C   UNL     1      27.437  46.713  54.824  1.00  0.00     0.251 C 
HETATM   12  N   UNL     1      28.034  45.810  55.679  1.00  0.00    -0.357 N 
HETATM   13  H   UNL     1      27.881  44.818  55.550  1.00  0.00     0.162 HD
HETATM   14  O   UNL     1      27.413  47.921  55.028  1.00  0.00    -0.268 OA
BRANCH  12  15
HETATM   15  C   UNL     1      28.712  46.237  56.885  1.00  0.00     0.122 C 
BRANCH  15  16
HETATM   16  C   UNL     1      30.178  45.808  56.928  1.00  0.00     0.015 C 
HETATM   17  C   UNL     1      30.459  44.594  56.055  1.00  0.00     0.006 C 
ENDBRANCH  15  16
ENDBRANCH  12  15
ENDBRANCH   7  11
ENDBRANCH   1   5
BRANCH   2  18
HETATM   18  C   UNL     1      24.182  48.774  49.010  1.00  0.00     0.120 A 
HETATM   19  N   UNL     1      24.523  49.712  48.076  1.00  0.00    -0.272 N 
HETATM   20  H   UNL     1      25.460  49.933  47.750  1.00  0.00     0.189 HD
HETATM   21  N   UNL     1      23.486  50.400  47.581  1.00  0.00    -0.174 NA
HETATM   22  C   UNL     1      22.414  49.917  48.229  1.00  0.00     0.089 A 
HETATM   23  C   UNL     1      22.808  48.876  49.119  1.00  0.00     0.071 A 
BRANCH  22  24
HETATM   24  C   UNL     1      21.071  50.472  48.016  1.00  0.00    -0.006 A 
HETATM   25  C   UNL     1      20.692  51.667  48.646  1.00  0.00     0.014 A 
HETATM   26  C   UNL     1      19.405  52.189  48.486  1.00  0.00     0.007 A 
HETATM   27  C   UNL     1      18.467  51.528  47.689  1.00  0.00    -0.062 A 
HETATM   28  C   UNL     1      17.081  52.072  47.514  1.00  0.00     0.048 C 
HETATM   29  C   UNL     1      18.842  50.344  47.044  1.00  0.00     0.007 A 
HETATM   30  C   UNL     1      20.130  49.821  47.206  1.00  0.00     0.014 A 
ENDBRANCH  22  24
ENDBRANCH   2  18
TORSDOF 6
ENDMDL
MODEL 5
REMARK VINA RESULT:      -8.9      2.150     10.909
REMARK  6 active torsions:
REMARK  status: ('A' for Active; 'I' for Inactive)
REMARK    1  A    between atoms: C_2  and  C_3 
REMARK    2  A    between atoms: C_3  and  N_4 
REMARK       I    between atoms: N_4  and  C_5 
REMARK    3  A    between atoms: C_5  and  C_6 
REMARK    4  A    between atoms: C_8  and  N_9 
REMARK       I    between atoms: N_9  and  C_10 
REMARK    5  A    between atoms: C_10  and  C_11 
REMARK    6  A    between atoms: C_15  and  C_16 
ROOT
HETATM    1  N   UNL     1      23.105  48.272  49.759  1.00  0.00    -0.322 N 
HETATM    2  C   UNL     1      22.248  48.449  48.689  1.00  0.00     0.274 C 
HETATM    3  O   UNL     1      22.507  48.162  47.525  1.00  0.00    -0.266 OA
HETATM    4  H   UNL     1      22.700  48.340  50.682  1.00  0.00     0.169 HD
ENDROOT
BRANCH   1   5
HETATM    5  C   UNL     1      24.472  47.925  49.702  1.00  0.00     0.036 A 
HETATM    6  C   UNL     1      24.963  46.672  50.083  1.00  0.00     0.046 A 
HETATM    7  C   UNL     1      26.330  46.380  49.973  1.00  0.00     0.034 A 
HETATM    8  C   UNL     1      27.206  47.344  49.461  1.00  0.00     0.017 A 
HETATM    9  C   UNL     1      26.721  48.592  49.074  1.00  0.00     0.003 A 
HETATM   10  C   UNL     1      25.360  48.878  49.189  1.00  0.00     0.029 A 
BRANCH   7  11
HETATM   11  C   UNL     1      26.880  45.040  50.327  1.00  0.00     0.251 C 
HETATM   12  N   UNL     1      27.040  44.771  51.671  1.00  0.00    -0.357 N 
HETATM   13  H   UNL     1      26.936  45.515  52.349  1.00  0.00     0.162 HD
HETATM   14  O   UNL     1      27.178  44.249  49.440  1.00  0.00    -0.268 OA
BRANCH  12  15
HETATM   15  C   UNL     1      27.558  43.501  52.136  1.00  0.00     0.122 C 
BRANCH  15  16
HETATM   16  C   UNL     1      28.613  43.654  53.231  1.00  0.00     0.015 C 
HETATM   17  C   UNL     1      29.922  42.959  52.884  1.00  0.00     0.006 C 
ENDBRANCH  15  16
ENDBRANCH  12  15
ENDBRANCH   7  11
ENDBRANCH   1   5
BRANCH   2  18
HETATM   18  C   UNL     1      20.960  48.989  49.043  1.00  0.00     0.120 A 
HETATM   19  N   UNL     1      20.098  48.306  49.855  1.00  0.00    -0.272 N 
HETATM   20  H   UNL     1      20.263  47.404  50.294  1.00  0.00     0.189 HD
HETATM   21  N   UNL     1      18.922  48.916  50.050  1.00  0.00    -0.174 NA
HETATM   22  C   UNL     1      18.994  50.040  49.319  1.00  0.00     0.089 A 
HETATM   23  C   UNL     1      20.270  50.133  48.690  1.00  0.00     0.071 A 
BRANCH  22  24
HETATM   24  C   UNL     1      17.856  50.961  49.209  1.00  0.00    -0.006 A 
HETATM   25  C   UNL     1      17.860  52.177  49.908  1.00  0.00     0.014 A 
HETATM   26  C   UNL     1      16.769  53.048  49.847  1.00  0.00     0.007 A 
HETATM   27  C   UNL     1      15.647  52.723  49.079  1.00  0.00    -0.062 A 
HETATM   28  C   UNL     1      14.466  53.645  49.009  1.00  0.00     0.048 C 
HETATM   29  C   UNL     1      15.640  51.520  48.365  1.00  0.00     0.007 A 
HETATM   30  C   UNL     1      16.733  50.647  48.430  1.00  0.00     0.014 A 
ENDBRANCH  22  24
ENDBRANCH   2  18
TORSDOF 6
ENDMDL
MODEL 6
REMARK VINA RESULT:      -8.8      1.871     10.535
REMARK  6 active torsions:
REMARK  status: ('A' for Active; 'I' for Inactive)
REMARK    1  A    between atoms: C_2  and  C_3 
REMARK    2  A    between atoms: C_3  and  N_4 
REMARK       I    between atoms: N_4  and  C_5 
REMARK    3  A    between atoms: C_5  and  C_6 
REMARK    4  A    between atoms: C_8  and  N_9 
REMARK       I    between atoms: N_9  and  C_10 
REMARK    5  A    between atoms: C_10  and  C_11 
REMARK    6  A    between atoms: C_15  and  C_16 
ROOT
HETATM    1  N   UNL     1      24.018  46.915  49.985  1.00  0.00    -0.322 N 
HETATM    2  C   UNL     1      24.474  48.114  49.469  1.00  0.00     0.274 C 
HETATM    3  O   UNL     1      25.643  48.362  49.196  1.00  0.00    -0.266 OA
HETATM    4  H   UNL     1      23.020  46.761  49.961  1.00  0.00     0.169 HD
ENDROOT
BRANCH   1   5
HETATM    5  C   UNL     1      24.802  45.847  50.470  1.00  0.00     0.036 A 
HETATM    6  C   UNL     1      25.450  45.870  51.708  1.00  0.00     0.046 A 
HETATM    7  C   UNL     1      26.189  44.761  52.145  1.00  0.00     0.034 A 
HETATM    8  C   UNL     1      26.262  43.617  51.344  1.00  0.00     0.017 A 
HETATM    9  C   UNL     1      25.611  43.585  50.111  1.00  0.00     0.003 A 
HETATM   10  C   UNL     1      24.880  44.694  49.680  1.00  0.00     0.029 A 
BRANCH   7  11
HETATM   11  C   UNL     1      26.856  44.736  53.479  1.00  0.00     0.251 C 
HETATM   12  N   UNL     1      28.200  44.422  53.494  1.00  0.00    -0.357 N 
HETATM   13  H   UNL     1      28.646  44.076  52.654  1.00  0.00     0.162 HD
HETATM   14  O   UNL     1      26.206  44.971  54.491  1.00  0.00    -0.268 OA
BRANCH  12  15
HETATM   15  C   UNL     1      28.956  44.374  54.728  1.00  0.00     0.122 C 
BRANCH  15  16
HETATM   16  C   UNL     1      30.105  43.368  54.683  1.00  0.00     0.015 C 
HETATM   17  C   UNL     1      30.272  42.730  53.312  1.00  0.00     0.006 C 
ENDBRANCH  15  16
ENDBRANCH  12  15
ENDBRANCH   7  11
ENDBRANCH   1   5
BRANCH   2  18
HETATM   18  C   UNL     1      23.441  49.091  49.234  1.00  0.00     0.120 A 
HETATM   19  N   UNL     1      23.735  50.339  48.759  1.00  0.00    -0.272 N 
HETATM   20  H   UNL     1      24.655  50.694  48.512  1.00  0.00     0.189 HD
HETATM   21  N   UNL     1      22.675  51.148  48.641  1.00  0.00    -0.174 NA
HETATM   22  C   UNL     1      21.636  50.419  49.078  1.00  0.00     0.089 A 
HETATM   23  C   UNL     1      22.075  49.110  49.437  1.00  0.00     0.071 A 
BRANCH  22  24
HETATM   24  C   UNL     1      20.285  50.984  49.176  1.00  0.00    -0.006 A 
HETATM   25  C   UNL     1      19.328  50.390  50.012  1.00  0.00     0.014 A 
HETATM   26  C   UNL     1      18.025  50.890  50.088  1.00  0.00     0.007 A 
HETATM   27  C   UNL     1      17.650  52.002  49.329  1.00  0.00    -0.062 A 
HETATM   28  C   UNL     1      16.255  52.547  49.395  1.00  0.00     0.048 C 
HETATM   29  C   UNL     1      18.602  52.612  48.505  1.00  0.00     0.007 A 
HETATM   30  C   UNL     1      19.906  52.107  48.428  1.00  0.00     0.014 A 
ENDBRANCH  22  24
ENDBRANCH   2  18
TORSDOF 6
ENDMDL
MODEL 7
REMARK VINA RESULT:      -8.8      1.964      2.795
REMARK  6 active torsions:
REMARK  status: ('A' for Active; 'I' for Inactive)
REMARK    1  A    between atoms: C_2  and  C_3 
REMARK    2  A    between atoms: C_3  and  N_4 
REMARK       I    between atoms: N_4  and  C_5 
REMARK    3  A    between atoms: C_5  and  C_6 
REMARK    4  A    between atoms: C_8  and  N_9 
REMARK       I    between atoms: N_9  and  C_10 
REMARK    5  A    between atoms: C_10  and  C_11 
REMARK    6  A    between atoms: C_15  and  C_16 
ROOT
HETATM    1  N   UNL     1      23.681  47.882  49.970  1.00  0.00    -0.322 N 
HETATM    2  C   UNL     1      23.831  46.553  49.622  1.00  0.00     0.274 C 
HETATM    3  O   UNL     1      23.388  46.039  48.600  1.00  0.00    -0.266 OA
HETATM    4  H   UNL     1      24.271  48.226  50.715  1.00  0.00     0.169 HD
ENDROOT
BRANCH   1   5
HETATM    5  C   UNL     1      22.850  48.835  49.344  1.00  0.00     0.036 A 
HETATM    6  C   UNL     1      21.455  48.743  49.325  1.00  0.00     0.046 A 
HETATM    7  C   UNL     1      20.684  49.741  48.712  1.00  0.00     0.034 A 
HETATM    8  C   UNL     1      21.316  50.846  48.131  1.00  0.00     0.017 A 
HETATM    9  C   UNL     1      22.706  50.947  48.153  1.00  0.00     0.003 A 
HETATM   10  C   UNL     1      23.468  49.948  48.762  1.00  0.00     0.029 A 
BRANCH   7  11
HETATM   11  C   UNL     1      19.194  49.697  48.713  1.00  0.00     0.251 C 
HETATM   12  N   UNL     1      18.601  48.747  47.908  1.00  0.00    -0.357 N 
HETATM   13  H   UNL     1      19.161  48.230  47.242  1.00  0.00     0.162 HD
HETATM   14  O   UNL     1      18.560  50.493  49.396  1.00  0.00    -0.268 OA
BRANCH  12  15
HETATM   15  C   UNL     1      17.162  48.603  47.832  1.00  0.00     0.122 C 
BRANCH  15  16
HETATM   16  C   UNL     1      16.649  47.359  48.555  1.00  0.00     0.015 C 
HETATM   17  C   UNL     1      17.430  46.105  48.189  1.00  0.00     0.006 C 
ENDBRANCH  15  16
ENDBRANCH  12  15
ENDBRANCH   7  11
ENDBRANCH   1   5
BRANCH   2  18
HETATM   18  C   UNL     1      24.600  45.775  50.560  1.00  0.00     0.120 A 
HETATM   19  N   UNL     1      24.014  44.822  51.346  1.00  0.00    -0.272 N 
HETATM   20  H   UNL     1      23.034  44.553  51.346  1.00  0.00     0.189 HD
HETATM   21  N   UNL     1      24.850  44.222  52.202  1.00  0.00    -0.174 NA
HETATM   22  C   UNL     1      26.037  44.815  51.995  1.00  0.00     0.089 A 
HETATM   23  C   UNL     1      25.925  45.781  50.953  1.00  0.00     0.071 A 
BRANCH  22  24
HETATM   24  C   UNL     1      27.216  44.481  52.803  1.00  0.00    -0.006 A 
HETATM   25  C   UNL     1      28.183  43.593  52.309  1.00  0.00     0.014 A 
HETATM   26  C   UNL     1      29.293  43.233  53.080  1.00  0.00     0.007 A 
HETATM   27  C   UNL     1      29.461  43.757  54.364  1.00  0.00    -0.062 A 
HETATM   28  C   UNL     1      30.643  43.375  55.205  1.00  0.00     0.048 C 
HETATM   29  C   UNL     1      28.511  44.656  54.858  1.00  0.00     0.007 A 
HETATM   30  C   UNL     1      27.399  45.014  54.086  1.00  0.00     0.014 A 
ENDBRANCH  22  24
ENDBRANCH   2  18
TORSDOF 6
ENDMDL
MODEL 8
REMARK VINA RESULT:      -8.7      2.143     10.045
REMARK  6 active torsions:
REMARK  status: ('A' for Active; 'I' for Inactive)
REMARK    1  A    between atoms: C_2  and  C_3 
REMARK    2  A    between atoms: C_3  and  N_4 
REMARK       I    between atoms: N_4  and  C_5 
REMARK    3  A    between atoms: C_5  and  C_6 
REMARK    4  A    between atoms: C_8  and  N_9 
REMARK       I    between atoms: N_9  and  C_10 
REMARK    5  A    between atoms: C_10  and  C_11 
REMARK    6  A    between atoms: C_15  and  C_16 
ROOT
HETATM    1  N   UNL     1      25.207  46.337  49.957  1.00  0.00    -0.322 N 
HETATM    2  C   UNL     1      25.640  47.554  49.465  1.00  0.00     0.274 C 
HETATM    3  O   UNL     1      26.809  47.846  49.242  1.00  0.00    -0.266 OA
HETATM    4  H   UNL     1      24.217  46.146  49.890  1.00  0.00     0.169 HD
ENDROOT
BRANCH   1   5
HETATM    5  C   UNL     1      26.009  45.295  50.469  1.00  0.00     0.036 A 
HETATM    6  C   UNL     1      26.461  45.252  51.791  1.00  0.00     0.046 A 
HETATM    7  C   UNL     1      27.229  44.171  52.246  1.00  0.00     0.034 A 
HETATM    8  C   UNL     1      27.529  43.119  51.375  1.00  0.00     0.017 A 
HETATM    9  C   UNL     1      27.076  43.152  50.057  1.00  0.00     0.003 A 
HETATM   10  C   UNL     1      26.314  44.233  49.609  1.00  0.00     0.029 A 
BRANCH   7  11
HETATM   11  C   UNL     1      27.689  44.072  53.661  1.00  0.00     0.251 C 
HETATM   12  N   UNL     1      28.580  45.034  54.092  1.00  0.00    -0.357 N 
HETATM   13  H   UNL     1      29.004  45.664  53.423  1.00  0.00     0.162 HD
HETATM   14  O   UNL     1      27.287  43.158  54.371  1.00  0.00    -0.268 OA
BRANCH  12  15
HETATM   15  C   UNL     1      29.090  45.046  55.447  1.00  0.00     0.122 C 
BRANCH  15  16
HETATM   16  C   UNL     1      28.473  46.149  56.306  1.00  0.00     0.015 C 
HETATM   17  C   UNL     1      28.983  46.130  57.740  1.00  0.00     0.006 C 
ENDBRANCH  15  16
ENDBRANCH  12  15
ENDBRANCH   7  11
ENDBRANCH   1   5
BRANCH   2  18
HETATM   18  C   UNL     1      24.582  48.494  49.192  1.00  0.00     0.120 A 
HETATM   19  N   UNL     1      24.814  49.643  48.487  1.00  0.00    -0.272 N 
HETATM   20  H   UNL     1      25.698  49.940  48.082  1.00  0.00     0.189 HD
HETATM   21  N   UNL     1      23.744  50.437  48.360  1.00  0.00    -0.174 NA
HETATM   22  C   UNL     1      22.765  49.805  49.026  1.00  0.00     0.089 A 
HETATM   23  C   UNL     1      23.248  48.567  49.543  1.00  0.00     0.071 A 
BRANCH  22  24
HETATM   24  C   UNL     1      21.432  50.398  49.183  1.00  0.00    -0.006 A 
HETATM   25  C   UNL     1      21.046  51.490  48.392  1.00  0.00     0.014 A 
HETATM   26  C   UNL     1      19.795  52.092  48.555  1.00  0.00     0.007 A 
HETATM   27  C   UNL     1      18.898  51.612  49.513  1.00  0.00    -0.062 A 
HETATM   28  C   UNL     1      17.556  52.252  49.704  1.00  0.00     0.048 C 
HETATM   29  C   UNL     1      19.268  50.513  50.296  1.00  0.00     0.007 A 
HETATM   30  C   UNL     1      20.523  49.912  50.133  1.00  0.00     0.014 A 
ENDBRANCH  22  24
ENDBRANCH   2  18
TORSDOF 6
ENDMDL
MODEL 9
REMARK VINA RESULT:      -8.6      2.548      9.993
REMARK  6 active torsions:
REMARK  status: ('A' for Active; 'I' for Inactive)
REMARK    1  A    between atoms: C_2  and  C_3 
REMARK    2  A    between atoms: C_3  and  N_4 
REMARK       I    between atoms: N_4  and  C_5 
REMARK    3  A    between atoms: C_5  and  C_6 
REMARK    4  A    between atoms: C_8  and  N_9 
REMARK       I    between atoms: N_9  and  C_10 
REMARK    5  A    between atoms: C_10  and  C_11 
REMARK    6  A    between atoms: C_15  and  C_16 
ROOT
HETATM    1  N   UNL     1      26.223  43.973  51.543  1.00  0.00    -0.322 N 
HETATM    2  C   UNL     1      26.358  44.549  50.294  1.00  0.00     0.274 C 
HETATM    3  O   UNL     1      27.336  44.425  49.565  1.00  0.00    -0.266 OA
HETATM    4  H   UNL     1      25.295  43.968  51.943  1.00  0.00     0.169 HD
ENDROOT
BRANCH   1   5
HETATM    5  C   UNL     1      27.225  43.317  52.288  1.00  0.00     0.036 A 
HETATM    6  C   UNL     1      28.066  43.975  53.191  1.00  0.00     0.046 A 
HETATM    7  C   UNL     1      29.023  43.259  53.924  1.00  0.00     0.034 A 
HETATM    8  C   UNL     1      29.123  41.872  53.765  1.00  0.00     0.017 A 
HETATM    9  C   UNL     1      28.283  41.210  52.872  1.00  0.00     0.003 A 
HETATM   10  C   UNL     1      27.335  41.929  52.141  1.00  0.00     0.029 A 
BRANCH   7  11
HETATM   11  C   UNL     1      29.904  43.922  54.928  1.00  0.00     0.251 C 
HETATM   12  N   UNL     1      29.539  45.189  55.333  1.00  0.00    -0.357 N 
HETATM   13  H   UNL     1      28.802  45.681  54.844  1.00  0.00     0.162 HD
HETATM   14  O   UNL     1      30.905  43.345  55.336  1.00  0.00    -0.268 OA
BRANCH  12  15
HETATM   15  C   UNL     1      30.312  45.929  56.309  1.00  0.00     0.122 C 
BRANCH  15  16
HETATM   16  C   UNL     1      29.778  45.775  57.732  1.00  0.00     0.015 C 
HETATM   17  C   UNL     1      28.343  46.261  57.876  1.00  0.00     0.006 C 
ENDBRANCH  15  16
ENDBRANCH  12  15
ENDBRANCH   7  11
ENDBRANCH   1   5
BRANCH   2  18
HETATM   18  C   UNL     1      25.215  45.315  49.865  1.00  0.00     0.120 A 
HETATM   19  N   UNL     1      24.256  44.774  49.056  1.00  0.00    -0.272 N 
HETATM   20  H   UNL     1      24.227  43.822  48.701  1.00  0.00     0.189 HD
HETATM   21  N   UNL     1      23.285  45.626  48.704  1.00  0.00    -0.174 NA
HETATM   22  C   UNL     1      23.624  46.789  49.283  1.00  0.00     0.089 A 
HETATM   23  C   UNL     1      24.819  46.627  50.042  1.00  0.00     0.071 A 
BRANCH  22  24
HETATM   24  C   UNL     1      22.837  48.011  49.075  1.00  0.00    -0.006 A 
HETATM   25  C   UNL     1      23.439  49.271  49.206  1.00  0.00     0.014 A 
HETATM   26  C   UNL     1      22.697  50.446  49.050  1.00  0.00     0.007 A 
HETATM   27  C   UNL     1      21.332  50.385  48.755  1.00  0.00    -0.062 A 
HETATM   28  C   UNL     1      20.522  51.636  48.591  1.00  0.00     0.048 C 
HETATM   29  C   UNL     1      20.727  49.133  48.606  1.00  0.00     0.007 A 
HETATM   30  C   UNL     1      21.471  47.958  48.765  1.00  0.00     0.014 A 
ENDBRANCH  22  24
ENDBRANCH   2  18
TORSDOF 6
ENDMDL
MODEL 10
REMARK VINA RESULT:      -8.4      5.628      9.743
REMARK  6 active torsions:
REMARK  status: ('A' for Active; 'I' for Inactive)
REMARK    1  A    between atoms: C_2  and  C_3 
REMARK    2  A    between atoms: C_3  and  N_4 
REMARK       I    between atoms: N_4  and  C_5 
REMARK    3  A    between atoms: C_5  and  C_6 
REMARK    4  A    between atoms: C_8  and  N_9 
REMARK       I    between atoms: N_9  and  C_10 
REMARK    5  A    between atoms: C_10  and  C_11 
REMARK    6  A    between atoms: C_15  and  C_16 
ROOT
HETATM    1  N   UNL     1      27.490  43.078  52.029  1.00  0.00    -0.322 N 
HETATM    2  C   UNL     1      27.853  41.825  52.485  1.00  0.00     0.274 C 
HETATM    3  O   UNL     1      27.932  41.501  53.665  1.00  0.00    -0.266 OA
HETATM    4  H   UNL     1      27.253  43.154  51.050  1.00  0.00     0.169 HD
ENDROOT
BRANCH   1   5
HETATM    5  C   UNL     1      27.336  44.250  52.800  1.00  0.00     0.036 A 
HETATM    6  C   UNL     1      28.006  44.468  54.007  1.00  0.00     0.046 A 
HETATM    7  C   UNL     1      27.833  45.669  54.710  1.00  0.00     0.034 A 
HETATM    8  C   UNL     1      26.998  46.664  54.188  1.00  0.00     0.017 A 
HETATM    9  C   UNL     1      26.333  46.454  52.981  1.00  0.00     0.003 A 
HETATM   10  C   UNL     1      26.506  45.254  52.288  1.00  0.00     0.029 A 
BRANCH   7  11
HETATM   11  C   UNL     1      28.567  45.954  55.977  1.00  0.00     0.251 C 
HETATM   12  N   UNL     1      29.745  45.265  56.179  1.00  0.00    -0.357 N 
HETATM   13  H   UNL     1      29.993  44.500  55.564  1.00  0.00     0.162 HD
HETATM   14  O   UNL     1      28.106  46.753  56.783  1.00  0.00    -0.268 OA
BRANCH  12  15
HETATM   15  C   UNL     1      30.549  45.463  57.367  1.00  0.00     0.122 C 
BRANCH  15  16
HETATM   16  C   UNL     1      31.343  44.220  57.762  1.00  0.00     0.015 C 
HETATM   17  C   UNL     1      31.367  43.166  56.665  1.00  0.00     0.006 C 
ENDBRANCH  15  16
ENDBRANCH  12  15
ENDBRANCH   7  11
ENDBRANCH   1   5
BRANCH   2  18
HETATM   18  C   UNL     1      28.119  40.866  51.442  1.00  0.00     0.120 A 
HETATM   19  N   UNL     1      28.986  39.827  51.633  1.00  0.00    -0.272 N 
HETATM   20  H   UNL     1      29.497  39.609  52.484  1.00  0.00     0.189 HD
HETATM   21  N   UNL     1      29.166  39.053  50.555  1.00  0.00    -0.174 NA
HETATM   22  C   UNL     1      28.407  39.614  49.600  1.00  0.00     0.089 A 
HETATM   23  C   UNL     1      27.714  40.743  50.127  1.00  0.00     0.071 A 
BRANCH  22  24
HETATM   24  C   UNL     1      28.387  39.094  48.227  1.00  0.00    -0.006 A 
HETATM   25  C   UNL     1      28.862  37.803  47.952  1.00  0.00     0.014 A 
HETATM   26  C   UNL     1      28.888  37.306  46.646  1.00  0.00     0.007 A 
HETATM   27  C   UNL     1      28.434  38.091  45.582  1.00  0.00    -0.062 A 
HETATM   28  C   UNL     1      28.462  37.575  44.175  1.00  0.00     0.048 C 
HETATM   29  C   UNL     1      27.944  39.374  45.848  1.00  0.00     0.007 A 
HETATM   30  C   UNL     1      27.921  39.871  47.157  1.00  0.00     0.014 A 
ENDBRANCH  22  24
ENDBRANCH   2  18
TORSDOF 6
ENDMDL
