MODEL 1
REMARK VINA RESULT:      -8.7      0.000      0.000
REMARK  6 active torsions:
REMARK  status: ('A' for Active; 'I' for Inactive)
REMARK    1  A    between atoms: O_2  and  C_3 
REMARK    2  A    between atoms: C_4  and  C_5 
REMARK    3  A    between atoms: C_5  and  N_6 
REMARK       I    between atoms: N_6  and  C_7 
REMARK    4  A    between atoms: C_7  and  C_8 
REMARK    5  A    between atoms: C_8  and  O_9 
REMARK    6  A    between atoms: N_10  and  C_11 
ROOT
HETATM    1  C   UNL     1      28.129  49.649  40.850  1.00  0.00     0.256 C 
HETATM    2  N   UNL     1      27.264  48.798  40.015  1.00  0.00    -0.254 N 
HETATM    3  C   UNL     1      27.310  48.936  38.632  1.00  0.00     0.330 C 
HETATM    4  O   UNL     1      26.936  48.090  37.818  1.00  0.00    -0.246 OA
HETATM    5  N   UNL     1      27.836  50.086  38.126  1.00  0.00    -0.308 N 
HETATM    6  C   UNL     1      28.259  51.171  38.878  1.00  0.00     0.048 A 
HETATM    7  C   UNL     1      28.376  51.021  40.252  1.00  0.00     0.034 A 
HETATM    8  C   UNL     1      28.550  52.383  38.248  1.00  0.00     0.030 A 
HETATM    9  C   UNL     1      28.950  53.478  39.012  1.00  0.00     0.002 A 
HETATM   10  C   UNL     1      29.072  53.351  40.393  1.00  0.00     0.001 A 
HETATM   11  C   UNL     1      28.797  52.129  41.011  1.00  0.00     0.015 A 
HETATM   12  H   UNL     1      27.766  50.167  37.120  1.00  0.00     0.170 HD
ENDROOT
BRANCH   1  13
HETATM   13  C   UNL     1      29.524  48.959  41.142  1.00  0.00     0.279 C 
HETATM   14  N   UNL     1      30.073  49.133  42.394  1.00  0.00    -0.352 N 
HETATM   15  H   UNL     1      29.683  49.835  43.009  1.00  0.00     0.162 HD
HETATM   16  O   UNL     1      30.052  48.262  40.270  1.00  0.00    -0.268 OA
BRANCH  14  17
HETATM   17  C   UNL     1      31.354  48.563  42.767  1.00  0.00     0.164 C 
BRANCH  17  18
HETATM   18  C   UNL     1      32.552  49.380  42.332  1.00  0.00    -0.007 A 
HETATM   19  C   UNL     1      32.812  50.609  42.981  1.00  0.00     0.076 A 
HETATM   20  C   UNL     1      33.927  51.371  42.616  1.00  0.00     0.037 A 
HETATM   21  C   UNL     1      34.785  50.929  41.609  1.00  0.00     0.003 A 
HETATM   22  C   UNL     1      34.538  49.723  40.963  1.00  0.00     0.001 A 
HETATM   23  C   UNL     1      33.432  48.952  41.323  1.00  0.00     0.011 A 
BRANCH  19  24
HETATM   24  O   UNL     1      31.929  50.960  43.971  1.00  0.00    -0.355 OA
HETATM   25  C   UNL     1      32.327  52.003  44.853  1.00  0.00     0.210 C 
ENDBRANCH  19  24
ENDBRANCH  17  18
ENDBRANCH  14  17
ENDBRANCH   1  13
BRANCH   1  26
HETATM   26  O   UNL     1      27.460  49.897  42.097  1.00  0.00    -0.359 OA
HETATM   27  H   UNL     1      28.060  50.491  42.589  1.00  0.00     0.213 HD
ENDBRANCH   1  26
BRANCH   2  28
HETATM   28  C   UNL     1      26.513  47.713  40.605  1.00  0.00     0.043 A 
HETATM   29  C   UNL     1      25.113  47.731  40.714  1.00  0.00     0.031 A 
HETATM   30  C   UNL     1      24.410  46.650  41.264  1.00  0.00     0.026 A 
HETATM   31  C   UNL     1      25.098  45.524  41.701  1.00  0.00     0.034 A 
HETATM   32 CL   UNL     1      24.233  44.192  42.361  1.00  0.00    -0.084 Cl
HETATM   33  C   UNL     1      26.480  45.473  41.599  1.00  0.00     0.026 A 
HETATM   34  C   UNL     1      27.178  46.559  41.058  1.00  0.00     0.031 A 
ENDBRANCH   2  28
TORSDOF 6
ENDMDL
MODEL 2
REMARK VINA RESULT:      -8.6      1.093      2.017
REMARK  6 active torsions:
REMARK  status: ('A' for Active; 'I' for Inactive)
REMARK    1  A    between atoms: O_2  and  C_3 
REMARK    2  A    between atoms: C_4  and  C_5 
REMARK    3  A    between atoms: C_5  and  N_6 
REMARK       I    between atoms: N_6  and  C_7 
REMARK    4  A    between atoms: C_7  and  C_8 
REMARK    5  A    between atoms: C_8  and  O_9 
REMARK    6  A    between atoms: N_10  and  C_11 
ROOT
HETATM    1  C   UNL     1      28.183  49.752  41.002  1.00  0.00     0.256 C 
HETATM    2  N   UNL     1      27.562  48.780  40.085  1.00  0.00    -0.254 N 
HETATM    3  C   UNL     1      27.880  48.824  38.733  1.00  0.00     0.330 C 
HETATM    4  O   UNL     1      27.734  47.897  37.935  1.00  0.00    -0.246 OA
HETATM    5  N   UNL     1      28.425  49.975  38.247  1.00  0.00    -0.308 N 
HETATM    6  C   UNL     1      28.616  51.139  38.974  1.00  0.00     0.048 A 
HETATM    7  C   UNL     1      28.460  51.094  40.351  1.00  0.00     0.034 A 
HETATM    8  C   UNL     1      28.953  52.323  38.315  1.00  0.00     0.030 A 
HETATM    9  C   UNL     1      29.119  53.496  39.049  1.00  0.00     0.002 A 
HETATM   10  C   UNL     1      28.965  53.476  40.432  1.00  0.00     0.001 A 
HETATM   11  C   UNL     1      28.646  52.281  41.083  1.00  0.00     0.015 A 
HETATM   12  H   UNL     1      28.557  49.980  37.243  1.00  0.00     0.170 HD
ENDROOT
BRANCH   1  13
HETATM   13  C   UNL     1      29.529  49.196  41.622  1.00  0.00     0.279 C 
HETATM   14  N   UNL     1      30.714  49.644  41.081  1.00  0.00    -0.352 N 
HETATM   15  H   UNL     1      30.696  50.146  40.202  1.00  0.00     0.162 HD
HETATM   16  O   UNL     1      29.482  48.422  42.584  1.00  0.00    -0.268 OA
BRANCH  14  17
HETATM   17  C   UNL     1      32.007  49.188  41.556  1.00  0.00     0.164 C 
BRANCH  17  18
HETATM   18  C   UNL     1      32.735  50.180  42.439  1.00  0.00    -0.007 A 
HETATM   19  C   UNL     1      34.076  50.507  42.137  1.00  0.00     0.076 A 
HETATM   20  C   UNL     1      34.763  51.439  42.921  1.00  0.00     0.037 A 
HETATM   21  C   UNL     1      34.134  52.047  44.008  1.00  0.00     0.003 A 
HETATM   22  C   UNL     1      32.815  51.732  44.316  1.00  0.00     0.001 A 
HETATM   23  C   UNL     1      32.119  50.807  43.536  1.00  0.00     0.011 A 
BRANCH  19  24
HETATM   24  O   UNL     1      34.612  49.877  41.041  1.00  0.00    -0.355 OA
HETATM   25  C   UNL     1      35.876  50.342  40.582  1.00  0.00     0.210 C 
ENDBRANCH  19  24
ENDBRANCH  17  18
ENDBRANCH  14  17
ENDBRANCH   1  13
BRANCH   1  26
HETATM   26  O   UNL     1      27.259  50.033  42.066  1.00  0.00    -0.359 OA
HETATM   27  H   UNL     1      26.692  50.750  41.722  1.00  0.00     0.213 HD
ENDBRANCH   1  26
BRANCH   2  28
HETATM   28  C   UNL     1      26.776  47.683  40.603  1.00  0.00     0.043 A 
HETATM   29  C   UNL     1      27.354  46.496  41.084  1.00  0.00     0.031 A 
HETATM   30  C   UNL     1      26.566  45.462  41.609  1.00  0.00     0.026 A 
HETATM   31  C   UNL     1      25.185  45.604  41.674  1.00  0.00     0.034 A 
HETATM   32 CL   UNL     1      24.222  44.341  42.332  1.00  0.00    -0.084 Cl
HETATM   33  C   UNL     1      24.585  46.768  41.215  1.00  0.00     0.026 A 
HETATM   34  C   UNL     1      25.375  47.794  40.684  1.00  0.00     0.031 A 
ENDBRANCH   2  28
TORSDOF 6
ENDMDL
MODEL 3
REMARK VINA RESULT:      -8.5     11.921     13.775
REMARK  6 active torsions:
REMARK  status: ('A' for Active; 'I' for Inactive)
REMARK    1  A    between atoms: O_2  and  C_3 
REMARK    2  A    between atoms: C_4  and  C_5 
REMARK    3  A    between atoms: C_5  and  N_6 
REMARK       I    between atoms: N_6  and  C_7 
REMARK    4  A    between atoms: C_7  and  C_8 
REMARK    5  A    between atoms: C_8  and  O_9 
REMARK    6  A    between atoms: N_10  and  C_11 
ROOT
HETATM    1  C   UNL     1      27.265  43.166  52.454  1.00  0.00     0.256 C 
HETATM    2  N   UNL     1      27.039  42.718  51.069  1.00  0.00    -0.254 N 
HETATM    3  C   UNL     1      26.890  43.668  50.065  1.00  0.00     0.330 C 
HETATM    4  O   UNL     1      27.049  43.465  48.861  1.00  0.00    -0.246 OA
HETATM    5  N   UNL     1      26.567  44.939  50.437  1.00  0.00    -0.308 N 
HETATM    6  C   UNL     1      26.295  45.348  51.733  1.00  0.00     0.048 A 
HETATM    7  C   UNL     1      26.581  44.481  52.777  1.00  0.00     0.034 A 
HETATM    8  C   UNL     1      25.741  46.609  51.962  1.00  0.00     0.030 A 
HETATM    9  C   UNL     1      25.447  47.006  53.266  1.00  0.00     0.002 A 
HETATM   10  C   UNL     1      25.722  46.150  54.329  1.00  0.00     0.001 A 
HETATM   11  C   UNL     1      26.294  44.898  54.089  1.00  0.00     0.015 A 
HETATM   12  H   UNL     1      26.388  45.565  49.663  1.00  0.00     0.170 HD
ENDROOT
BRANCH   1  13
HETATM   13  C   UNL     1      28.808  43.298  52.782  1.00  0.00     0.279 C 
HETATM   14  N   UNL     1      29.202  43.109  54.089  1.00  0.00    -0.352 N 
HETATM   15  H   UNL     1      28.499  43.089  54.817  1.00  0.00     0.162 HD
HETATM   16  O   UNL     1      29.608  43.521  51.867  1.00  0.00    -0.268 OA
BRANCH  14  17
HETATM   17  C   UNL     1      30.586  43.225  54.509  1.00  0.00     0.164 C 
BRANCH  17  18
HETATM   18  C   UNL     1      30.779  43.903  55.848  1.00  0.00    -0.007 A 
HETATM   19  C   UNL     1      30.155  45.151  56.078  1.00  0.00     0.076 A 
HETATM   20  C   UNL     1      30.297  45.787  57.316  1.00  0.00     0.037 A 
HETATM   21  C   UNL     1      31.057  45.200  58.328  1.00  0.00     0.003 A 
HETATM   22  C   UNL     1      31.676  43.974  58.113  1.00  0.00     0.001 A 
HETATM   23  C   UNL     1      31.537  43.329  56.883  1.00  0.00     0.011 A 
BRANCH  19  24
HETATM   24  O   UNL     1      29.413  45.647  55.036  1.00  0.00    -0.355 OA
HETATM   25  C   UNL     1      28.916  46.974  55.170  1.00  0.00     0.210 C 
ENDBRANCH  19  24
ENDBRANCH  17  18
ENDBRANCH  14  17
ENDBRANCH   1  13
BRANCH   1  26
HETATM   26  O   UNL     1      26.678  42.206  53.347  1.00  0.00    -0.359 OA
HETATM   27  H   UNL     1      26.744  42.614  54.232  1.00  0.00     0.213 HD
ENDBRANCH   1  26
BRANCH   2  28
HETATM   28  C   UNL     1      27.150  41.319  50.723  1.00  0.00     0.043 A 
HETATM   29  C   UNL     1      26.036  40.527  50.399  1.00  0.00     0.031 A 
HETATM   30  C   UNL     1      26.180  39.179  50.039  1.00  0.00     0.026 A 
HETATM   31  C   UNL     1      27.444  38.605  49.982  1.00  0.00     0.034 A 
HETATM   32 CL   UNL     1      27.620  36.957  49.525  1.00  0.00    -0.084 Cl
HETATM   33  C   UNL     1      28.565  39.364  50.288  1.00  0.00     0.026 A 
HETATM   34  C   UNL     1      28.415  40.707  50.657  1.00  0.00     0.031 A 
ENDBRANCH   2  28
TORSDOF 6
ENDMDL
MODEL 4
REMARK VINA RESULT:      -8.3     10.966     13.155
REMARK  6 active torsions:
REMARK  status: ('A' for Active; 'I' for Inactive)
REMARK    1  A    between atoms: O_2  and  C_3 
REMARK    2  A    between atoms: C_4  and  C_5 
REMARK    3  A    between atoms: C_5  and  N_6 
REMARK       I    between atoms: N_6  and  C_7 
REMARK    4  A    between atoms: C_7  and  C_8 
REMARK    5  A    between atoms: C_8  and  O_9 
REMARK    6  A    between atoms: N_10  and  C_11 
ROOT
HETATM    1  C   UNL     1      26.545  43.287  50.265  1.00  0.00     0.256 C 
HETATM    2  N   UNL     1      25.106  43.604  50.253  1.00  0.00    -0.254 N 
HETATM    3  C   UNL     1      24.192  42.614  50.594  1.00  0.00     0.330 C 
HETATM    4  O   UNL     1      23.034  42.809  50.967  1.00  0.00    -0.246 OA
HETATM    5  N   UNL     1      24.610  41.318  50.539  1.00  0.00    -0.308 N 
HETATM    6  C   UNL     1      25.853  40.897  50.094  1.00  0.00     0.048 A 
HETATM    7  C   UNL     1      26.843  41.847  49.894  1.00  0.00     0.034 A 
HETATM    8  C   UNL     1      26.082  39.541  49.853  1.00  0.00     0.030 A 
HETATM    9  C   UNL     1      27.327  39.126  49.381  1.00  0.00     0.002 A 
HETATM   10  C   UNL     1      28.335  40.063  49.170  1.00  0.00     0.001 A 
HETATM   11  C   UNL     1      28.100  41.414  49.433  1.00  0.00     0.015 A 
HETATM   12  H   UNL     1      23.881  40.639  50.714  1.00  0.00     0.170 HD
ENDROOT
BRANCH   1  13
HETATM   13  C   UNL     1      27.203  43.601  51.670  1.00  0.00     0.279 C 
HETATM   14  N   UNL     1      26.463  43.323  52.798  1.00  0.00    -0.352 N 
HETATM   15  H   UNL     1      25.476  43.119  52.702  1.00  0.00     0.162 HD
HETATM   16  O   UNL     1      28.358  44.039  51.717  1.00  0.00    -0.268 OA
BRANCH  14  17
HETATM   17  C   UNL     1      26.956  43.587  54.136  1.00  0.00     0.164 C 
BRANCH  17  18
HETATM   18  C   UNL     1      27.118  45.056  54.465  1.00  0.00    -0.007 A 
HETATM   19  C   UNL     1      28.359  45.510  54.968  1.00  0.00     0.076 A 
HETATM   20  C   UNL     1      28.543  46.867  55.255  1.00  0.00     0.037 A 
HETATM   21  C   UNL     1      27.506  47.779  55.055  1.00  0.00     0.003 A 
HETATM   22  C   UNL     1      26.281  47.343  54.562  1.00  0.00     0.001 A 
HETATM   23  C   UNL     1      26.088  45.992  54.267  1.00  0.00     0.011 A 
BRANCH  19  24
HETATM   24  O   UNL     1      29.329  44.552  55.118  1.00  0.00    -0.355 OA
HETATM   25  C   UNL     1      30.384  44.836  56.029  1.00  0.00     0.210 C 
ENDBRANCH  19  24
ENDBRANCH  17  18
ENDBRANCH  14  17
ENDBRANCH   1  13
BRANCH   1  26
HETATM   26  O   UNL     1      27.195  44.078  49.257  1.00  0.00    -0.359 OA
HETATM   27  H   UNL     1      26.518  44.208  48.566  1.00  0.00     0.213 HD
ENDBRANCH   1  26
BRANCH   2  28
HETATM   28  C   UNL     1      24.657  44.965  50.070  1.00  0.00     0.043 A 
HETATM   29  C   UNL     1      25.090  46.024  50.885  1.00  0.00     0.031 A 
HETATM   30  C   UNL     1      24.659  47.340  50.662  1.00  0.00     0.026 A 
HETATM   31  C   UNL     1      23.797  47.620  49.610  1.00  0.00     0.034 A 
HETATM   32 CL   UNL     1      23.281  49.237  49.329  1.00  0.00    -0.084 Cl
HETATM   33  C   UNL     1      23.357  46.597  48.782  1.00  0.00     0.026 A 
HETATM   34  C   UNL     1      23.783  45.284  49.013  1.00  0.00     0.031 A 
ENDBRANCH   2  28
TORSDOF 6
ENDMDL
MODEL 5
REMARK VINA RESULT:      -8.3     10.558     12.470
REMARK  6 active torsions:
REMARK  status: ('A' for Active; 'I' for Inactive)
REMARK    1  A    between atoms: O_2  and  C_3 
REMARK    2  A    between atoms: C_4  and  C_5 
REMARK    3  A    between atoms: C_5  and  N_6 
REMARK       I    between atoms: N_6  and  C_7 
REMARK    4  A    between atoms: C_7  and  C_8 
REMARK    5  A    between atoms: C_8  and  O_9 
REMARK    6  A    between atoms: N_10  and  C_11 
ROOT
HETATM    1  C   UNL     1      25.252  44.221  49.657  1.00  0.00     0.256 C 
HETATM    2  N   UNL     1      23.896  44.639  49.258  1.00  0.00    -0.254 N 
HETATM    3  C   UNL     1      22.891  43.683  49.170  1.00  0.00     0.330 C 
HETATM    4  O   UNL     1      21.682  43.915  49.201  1.00  0.00    -0.246 OA
HETATM    5  N   UNL     1      23.265  42.377  49.066  1.00  0.00    -0.308 N 
HETATM    6  C   UNL     1      24.570  41.925  48.962  1.00  0.00     0.048 A 
HETATM    7  C   UNL     1      25.604  42.818  49.200  1.00  0.00     0.034 A 
HETATM    8  C   UNL     1      24.820  40.595  48.618  1.00  0.00     0.030 A 
HETATM    9  C   UNL     1      26.135  40.151  48.490  1.00  0.00     0.002 A 
HETATM   10  C   UNL     1      27.188  41.032  48.721  1.00  0.00     0.001 A 
HETATM   11  C   UNL     1      26.927  42.355  49.084  1.00  0.00     0.015 A 
HETATM   12  H   UNL     1      22.496  41.736  48.920  1.00  0.00     0.170 HD
ENDROOT
BRANCH   1  13
HETATM   13  C   UNL     1      25.456  44.316  51.224  1.00  0.00     0.279 C 
HETATM   14  N   UNL     1      26.610  44.912  51.683  1.00  0.00    -0.352 N 
HETATM   15  H   UNL     1      27.365  45.089  51.033  1.00  0.00     0.162 HD
HETATM   16  O   UNL     1      24.571  43.898  51.980  1.00  0.00    -0.268 OA
BRANCH  14  17
HETATM   17  C   UNL     1      26.912  45.036  53.097  1.00  0.00     0.164 C 
BRANCH  17  18
HETATM   18  C   UNL     1      28.191  44.351  53.526  1.00  0.00    -0.007 A 
HETATM   19  C   UNL     1      28.755  44.681  54.779  1.00  0.00     0.076 A 
HETATM   20  C   UNL     1      29.923  44.044  55.212  1.00  0.00     0.037 A 
HETATM   21  C   UNL     1      30.542  43.085  54.409  1.00  0.00     0.003 A 
HETATM   22  C   UNL     1      29.997  42.753  53.173  1.00  0.00     0.001 A 
HETATM   23  C   UNL     1      28.829  43.379  52.735  1.00  0.00     0.011 A 
BRANCH  19  24
HETATM   24  O   UNL     1      28.074  45.620  55.512  1.00  0.00    -0.355 OA
HETATM   25  C   UNL     1      28.702  46.098  56.696  1.00  0.00     0.210 C 
ENDBRANCH  19  24
ENDBRANCH  17  18
ENDBRANCH  14  17
ENDBRANCH   1  13
BRANCH   1  26
HETATM   26  O   UNL     1      26.205  45.079  49.009  1.00  0.00    -0.359 OA
HETATM   27  H   UNL     1      26.737  44.483  48.448  1.00  0.00     0.213 HD
ENDBRANCH   1  26
BRANCH   2  28
HETATM   28  C   UNL     1      23.568  46.041  49.135  1.00  0.00     0.043 A 
HETATM   29  C   UNL     1      24.170  47.034  49.927  1.00  0.00     0.031 A 
HETATM   30  C   UNL     1      23.852  48.389  49.764  1.00  0.00     0.026 A 
HETATM   31  C   UNL     1      22.936  48.777  48.794  1.00  0.00     0.034 A 
HETATM   32 CL   UNL     1      22.559  50.442  48.584  1.00  0.00    -0.084 Cl
HETATM   33  C   UNL     1      22.331  47.822  47.990  1.00  0.00     0.026 A 
HETATM   34  C   UNL     1      22.645  46.468  48.163  1.00  0.00     0.031 A 
ENDBRANCH   2  28
TORSDOF 6
ENDMDL
MODEL 6
REMARK VINA RESULT:      -8.2      8.918     11.203
REMARK  6 active torsions:
REMARK  status: ('A' for Active; 'I' for Inactive)
REMARK    1  A    between atoms: O_2  and  C_3 
REMARK    2  A    between atoms: C_4  and  C_5 
REMARK    3  A    between atoms: C_5  and  N_6 
REMARK       I    between atoms: N_6  and  C_7 
REMARK    4  A    between atoms: C_7  and  C_8 
REMARK    5  A    between atoms: C_8  and  O_9 
REMARK    6  A    between atoms: N_10  and  C_11 
ROOT
HETATM    1  C   UNL     1      21.546  45.107  48.298  1.00  0.00     0.256 C 
HETATM    2  N   UNL     1      22.583  44.159  47.852  1.00  0.00    -0.254 N 
HETATM    3  C   UNL     1      22.591  43.738  46.527  1.00  0.00     0.330 C 
HETATM    4  O   UNL     1      23.560  43.256  45.939  1.00  0.00    -0.246 OA
HETATM    5  N   UNL     1      21.447  43.892  45.805  1.00  0.00    -0.308 N 
HETATM    6  C   UNL     1      20.243  44.364  46.304  1.00  0.00     0.048 A 
HETATM    7  C   UNL     1      20.227  44.937  47.567  1.00  0.00     0.034 A 
HETATM    8  C   UNL     1      19.080  44.249  45.540  1.00  0.00     0.030 A 
HETATM    9  C   UNL     1      17.868  44.702  46.057  1.00  0.00     0.002 A 
HETATM   10  C   UNL     1      17.828  45.278  47.324  1.00  0.00     0.001 A 
HETATM   11  C   UNL     1      19.001  45.405  48.072  1.00  0.00     0.015 A 
HETATM   12  H   UNL     1      21.484  43.492  44.876  1.00  0.00     0.170 HD
ENDROOT
BRANCH   1  13
HETATM   13  C   UNL     1      22.023  46.609  48.151  1.00  0.00     0.279 C 
HETATM   14  N   UNL     1      22.439  47.261  49.290  1.00  0.00    -0.352 N 
HETATM   15  H   UNL     1      22.249  46.845  50.193  1.00  0.00     0.162 HD
HETATM   16  O   UNL     1      22.048  47.133  47.032  1.00  0.00    -0.268 OA
BRANCH  14  17
HETATM   17  C   UNL     1      22.879  48.644  49.278  1.00  0.00     0.164 C 
BRANCH  17  18
HETATM   18  C   UNL     1      24.376  48.823  49.135  1.00  0.00    -0.007 A 
HETATM   19  C   UNL     1      25.234  48.125  50.014  1.00  0.00     0.076 A 
HETATM   20  C   UNL     1      26.621  48.253  49.886  1.00  0.00     0.037 A 
HETATM   21  C   UNL     1      27.167  49.073  48.897  1.00  0.00     0.003 A 
HETATM   22  C   UNL     1      26.331  49.766  48.028  1.00  0.00     0.001 A 
HETATM   23  C   UNL     1      24.946  49.641  48.144  1.00  0.00     0.011 A 
BRANCH  19  24
HETATM   24  O   UNL     1      24.616  47.327  50.944  1.00  0.00    -0.355 OA
HETATM   25  C   UNL     1      25.389  46.930  52.071  1.00  0.00     0.210 C 
ENDBRANCH  19  24
ENDBRANCH  17  18
ENDBRANCH  14  17
ENDBRANCH   1  13
BRANCH   1  26
HETATM   26  O   UNL     1      21.248  44.843  49.678  1.00  0.00    -0.359 OA
HETATM   27  H   UNL     1      20.290  45.011  49.764  1.00  0.00     0.213 HD
ENDBRANCH   1  26
BRANCH   2  28
HETATM   28  C   UNL     1      23.681  43.812  48.724  1.00  0.00     0.043 A 
HETATM   29  C   UNL     1      23.694  42.639  49.498  1.00  0.00     0.031 A 
HETATM   30  C   UNL     1      24.788  42.314  50.312  1.00  0.00     0.026 A 
HETATM   31  C   UNL     1      25.896  43.152  50.354  1.00  0.00     0.034 A 
HETATM   32 CL   UNL     1      27.245  42.744  51.341  1.00  0.00    -0.084 Cl
HETATM   33  C   UNL     1      25.918  44.313  49.595  1.00  0.00     0.026 A 
HETATM   34  C   UNL     1      24.818  44.638  48.791  1.00  0.00     0.031 A 
ENDBRANCH   2  28
TORSDOF 6
ENDMDL
MODEL 7
REMARK VINA RESULT:      -8.1     11.255     12.853
REMARK  6 active torsions:
REMARK  status: ('A' for Active; 'I' for Inactive)
REMARK    1  A    between atoms: O_2  and  C_3 
REMARK    2  A    between atoms: C_4  and  C_5 
REMARK    3  A    between atoms: C_5  and  N_6 
REMARK       I    between atoms: N_6  and  C_7 
REMARK    4  A    between atoms: C_7  and  C_8 
REMARK    5  A    between atoms: C_8  and  O_9 
REMARK    6  A    between atoms: N_10  and  C_11 
ROOT
HETATM    1  C   UNL     1      25.568  41.949  49.871  1.00  0.00     0.256 C 
HETATM    2  N   UNL     1      26.238  40.994  48.970  1.00  0.00    -0.254 N 
HETATM    3  C   UNL     1      26.178  41.202  47.597  1.00  0.00     0.330 C 
HETATM    4  O   UNL     1      26.953  40.722  46.768  1.00  0.00    -0.246 OA
HETATM    5  N   UNL     1      25.201  42.025  47.121  1.00  0.00    -0.308 N 
HETATM    6  C   UNL     1      24.208  42.613  47.888  1.00  0.00     0.048 A 
HETATM    7  C   UNL     1      24.317  42.562  49.270  1.00  0.00     0.034 A 
HETATM    8  C   UNL     1      23.124  43.235  47.264  1.00  0.00     0.030 A 
HETATM    9  C   UNL     1      22.115  43.803  48.040  1.00  0.00     0.002 A 
HETATM   10  C   UNL     1      22.203  43.760  49.429  1.00  0.00     0.001 A 
HETATM   11  C   UNL     1      23.301  43.152  50.042  1.00  0.00     0.015 A 
HETATM   12  H   UNL     1      25.153  42.072  46.112  1.00  0.00     0.170 HD
ENDROOT
BRANCH   1  13
HETATM   13  C   UNL     1      26.543  43.113  50.321  1.00  0.00     0.279 C 
HETATM   14  N   UNL     1      26.554  43.456  51.655  1.00  0.00    -0.352 N 
HETATM   15  H   UNL     1      25.822  43.107  52.259  1.00  0.00     0.162 HD
HETATM   16  O   UNL     1      27.284  43.642  49.486  1.00  0.00    -0.268 OA
BRANCH  14  17
HETATM   17  C   UNL     1      27.392  44.519  52.177  1.00  0.00     0.164 C 
BRANCH  17  18
HETATM   18  C   UNL     1      28.524  44.045  53.064  1.00  0.00    -0.007 A 
HETATM   19  C   UNL     1      28.689  44.640  54.335  1.00  0.00     0.076 A 
HETATM   20  C   UNL     1      29.711  44.203  55.185  1.00  0.00     0.037 A 
HETATM   21  C   UNL     1      30.576  43.184  54.783  1.00  0.00     0.003 A 
HETATM   22  C   UNL     1      30.424  42.593  53.534  1.00  0.00     0.001 A 
HETATM   23  C   UNL     1      29.404  43.018  52.681  1.00  0.00     0.011 A 
BRANCH  19  24
HETATM   24  O   UNL     1      27.785  45.620  54.658  1.00  0.00    -0.355 OA
HETATM   25  C   UNL     1      28.145  46.513  55.706  1.00  0.00     0.210 C 
ENDBRANCH  19  24
ENDBRANCH  17  18
ENDBRANCH  14  17
ENDBRANCH   1  13
BRANCH   1  26
HETATM   26  O   UNL     1      25.118  41.240  51.036  1.00  0.00    -0.359 OA
HETATM   27  H   UNL     1      24.681  40.439  50.688  1.00  0.00     0.213 HD
ENDBRANCH   1  26
BRANCH   2  28
HETATM   28  C   UNL     1      27.095  39.961  49.504  1.00  0.00     0.043 A 
HETATM   29  C   UNL     1      26.837  38.592  49.322  1.00  0.00     0.031 A 
HETATM   30  C   UNL     1      27.704  37.613  49.827  1.00  0.00     0.026 A 
HETATM   31  C   UNL     1      28.854  37.988  50.511  1.00  0.00     0.034 A 
HETATM   32 CL   UNL     1      29.925  36.786  51.116  1.00  0.00    -0.084 Cl
HETATM   33  C   UNL     1      29.142  39.332  50.699  1.00  0.00     0.026 A 
HETATM   34  C   UNL     1      28.268  40.306  50.201  1.00  0.00     0.031 A 
ENDBRANCH   2  28
TORSDOF 6
ENDMDL
MODEL 8
REMARK VINA RESULT:      -8.0      8.963     11.933
REMARK  6 active torsions:
REMARK  status: ('A' for Active; 'I' for Inactive)
REMARK    1  A    between atoms: O_2  and  C_3 
REMARK    2  A    between atoms: C_4  and  C_5 
REMARK    3  A    between atoms: C_5  and  N_6 
REMARK       I    between atoms: N_6  and  C_7 
REMARK    4  A    between atoms: C_7  and  C_8 
REMARK    5  A    between atoms: C_8  and  O_9 
REMARK    6  A    between atoms: N_10  and  C_11 
ROOT
HETATM    1  C   UNL     1      26.458  43.861  50.039  1.00  0.00     0.256 C 
HETATM    2  N   UNL     1      25.106  43.285  49.927  1.00  0.00    -0.254 N 
HETATM    3  C   UNL     1      24.314  43.191  51.066  1.00  0.00     0.330 C 
HETATM    4  O   UNL     1      23.087  43.075  51.073  1.00  0.00    -0.246 OA
HETATM    5  N   UNL     1      24.933  43.259  52.277  1.00  0.00    -0.308 N 
HETATM    6  C   UNL     1      26.302  43.335  52.473  1.00  0.00     0.048 A 
HETATM    7  C   UNL     1      27.116  43.586  51.378  1.00  0.00     0.034 A 
HETATM    8  C   UNL     1      26.834  43.153  53.751  1.00  0.00     0.030 A 
HETATM    9  C   UNL     1      28.214  43.206  53.938  1.00  0.00     0.002 A 
HETATM   10  C   UNL     1      29.050  43.454  52.853  1.00  0.00     0.001 A 
HETATM   11  C   UNL     1      28.507  43.652  51.581  1.00  0.00     0.015 A 
HETATM   12  H   UNL     1      24.319  43.100  53.066  1.00  0.00     0.170 HD
ENDROOT
BRANCH   1  13
HETATM   13  C   UNL     1      26.452  45.423  49.783  1.00  0.00     0.279 C 
HETATM   14  N   UNL     1      25.389  46.147  50.276  1.00  0.00    -0.352 N 
HETATM   15  H   UNL     1      24.568  45.655  50.604  1.00  0.00     0.162 HD
HETATM   16  O   UNL     1      27.405  45.947  49.196  1.00  0.00    -0.268 OA
BRANCH  14  17
HETATM   17  C   UNL     1      25.269  47.580  50.085  1.00  0.00     0.164 C 
BRANCH  17  18
HETATM   18  C   UNL     1      24.047  48.006  49.300  1.00  0.00    -0.007 A 
HETATM   19  C   UNL     1      24.021  49.297  48.724  1.00  0.00     0.076 A 
HETATM   20  C   UNL     1      22.915  49.706  47.972  1.00  0.00     0.037 A 
HETATM   21  C   UNL     1      21.829  48.849  47.790  1.00  0.00     0.003 A 
HETATM   22  C   UNL     1      21.842  47.577  48.353  1.00  0.00     0.001 A 
HETATM   23  C   UNL     1      22.944  47.158  49.100  1.00  0.00     0.011 A 
BRANCH  19  24
HETATM   24  O   UNL     1      25.136  50.068  48.937  1.00  0.00    -0.355 OA
HETATM   25  C   UNL     1      26.138  50.048  47.927  1.00  0.00     0.210 C 
ENDBRANCH  19  24
ENDBRANCH  17  18
ENDBRANCH  14  17
ENDBRANCH   1  13
BRANCH   1  26
HETATM   26  O   UNL     1      27.306  43.231  49.066  1.00  0.00    -0.359 OA
HETATM   27  H   UNL     1      27.008  42.301  49.040  1.00  0.00     0.213 HD
ENDBRANCH   1  26
BRANCH   2  28
HETATM   28  C   UNL     1      24.541  42.989  48.631  1.00  0.00     0.043 A 
HETATM   29  C   UNL     1      24.628  41.719  48.037  1.00  0.00     0.031 A 
HETATM   30  C   UNL     1      24.043  41.455  46.790  1.00  0.00     0.026 A 
HETATM   31  C   UNL     1      23.347  42.456  46.123  1.00  0.00     0.034 A 
HETATM   32 CL   UNL     1      22.616  42.125  44.602  1.00  0.00    -0.084 Cl
HETATM   33  C   UNL     1      23.235  43.718  46.688  1.00  0.00     0.026 A 
HETATM   34  C   UNL     1      23.829  43.979  47.929  1.00  0.00     0.031 A 
ENDBRANCH   2  28
TORSDOF 6
ENDMDL
MODEL 9
REMARK VINA RESULT:      -8.0     10.160     12.542
REMARK  6 active torsions:
REMARK  status: ('A' for Active; 'I' for Inactive)
REMARK    1  A    between atoms: O_2  and  C_3 
REMARK    2  A    between atoms: C_4  and  C_5 
REMARK    3  A    between atoms: C_5  and  N_6 
REMARK       I    between atoms: N_6  and  C_7 
REMARK    4  A    between atoms: C_7  and  C_8 
REMARK    5  A    between atoms: C_8  and  O_9 
REMARK    6  A    between atoms: N_10  and  C_11 
ROOT
HETATM    1  C   UNL     1      26.512  42.762  50.141  1.00  0.00     0.256 C 
HETATM    2  N   UNL     1      26.575  41.405  49.568  1.00  0.00    -0.254 N 
HETATM    3  C   UNL     1      26.609  40.310  50.423  1.00  0.00     0.330 C 
HETATM    4  O   UNL     1      26.311  39.155  50.115  1.00  0.00    -0.246 OA
HETATM    5  N   UNL     1      26.976  40.526  51.718  1.00  0.00    -0.308 N 
HETATM    6  C   UNL     1      27.397  41.740  52.237  1.00  0.00     0.048 A 
HETATM    7  C   UNL     1      27.232  42.884  51.470  1.00  0.00     0.034 A 
HETATM    8  C   UNL     1      27.978  41.789  53.506  1.00  0.00     0.030 A 
HETATM    9  C   UNL     1      28.422  43.010  54.014  1.00  0.00     0.002 A 
HETATM   10  C   UNL     1      28.269  44.170  53.260  1.00  0.00     0.001 A 
HETATM   11  C   UNL     1      27.670  44.111  51.999  1.00  0.00     0.015 A 
HETATM   12  H   UNL     1      27.065  39.683  52.270  1.00  0.00     0.170 HD
ENDROOT
BRANCH   1  13
HETATM   13  C   UNL     1      25.018  43.252  50.321  1.00  0.00     0.279 C 
HETATM   14  N   UNL     1      24.551  44.212  49.451  1.00  0.00    -0.352 N 
HETATM   15  H   UNL     1      25.211  44.709  48.865  1.00  0.00     0.162 HD
HETATM   16  O   UNL     1      24.310  42.739  51.195  1.00  0.00    -0.268 OA
BRANCH  14  17
HETATM   17  C   UNL     1      23.206  44.750  49.534  1.00  0.00     0.164 C 
BRANCH  17  18
HETATM   18  C   UNL     1      23.079  46.190  49.084  1.00  0.00    -0.007 A 
HETATM   19  C   UNL     1      23.884  47.172  49.704  1.00  0.00     0.076 A 
HETATM   20  C   UNL     1      23.804  48.506  49.290  1.00  0.00     0.037 A 
HETATM   21  C   UNL     1      22.928  48.877  48.269  1.00  0.00     0.003 A 
HETATM   22  C   UNL     1      22.130  47.919  47.653  1.00  0.00     0.001 A 
HETATM   23  C   UNL     1      22.206  46.585  48.056  1.00  0.00     0.011 A 
BRANCH  19  24
HETATM   24  O   UNL     1      24.729  46.719  50.685  1.00  0.00    -0.355 OA
HETATM   25  C   UNL     1      26.021  47.313  50.751  1.00  0.00     0.210 C 
ENDBRANCH  19  24
ENDBRANCH  17  18
ENDBRANCH  14  17
ENDBRANCH   1  13
BRANCH   1  26
HETATM   26  O   UNL     1      27.197  43.664  49.257  1.00  0.00    -0.359 OA
HETATM   27  H   UNL     1      27.909  43.129  48.856  1.00  0.00     0.213 HD
ENDBRANCH   1  26
BRANCH   2  28
HETATM   28  C   UNL     1      26.421  41.202  48.146  1.00  0.00     0.043 A 
HETATM   29  C   UNL     1      27.510  40.956  47.292  1.00  0.00     0.031 A 
HETATM   30  C   UNL     1      27.325  40.733  45.920  1.00  0.00     0.026 A 
HETATM   31  C   UNL     1      26.044  40.738  45.381  1.00  0.00     0.034 A 
HETATM   32 CL   UNL     1      25.818  40.449  43.701  1.00  0.00    -0.084 Cl
HETATM   33  C   UNL     1      24.948  40.970  46.200  1.00  0.00     0.026 A 
HETATM   34  C   UNL     1      25.139  41.201  47.567  1.00  0.00     0.031 A 
ENDBRANCH   2  28
TORSDOF 6
ENDMDL
MODEL 10
REMARK VINA RESULT:      -7.9     10.892     12.864
REMARK  6 active torsions:
REMARK  status: ('A' for Active; 'I' for Inactive)
REMARK    1  A    between atoms: O_2  and  C_3 
REMARK    2  A    between atoms: C_4  and  C_5 
REMARK    3  A    between atoms: C_5  and  N_6 
REMARK       I    between atoms: N_6  and  C_7 
REMARK    4  A    between atoms: C_7  and  C_8 
REMARK    5  A    between atoms: C_8  and  O_9 
REMARK    6  A    between atoms: N_10  and  C_11 
ROOT
HETATM    1  C   UNL     1      20.911  45.557  48.283  1.00  0.00     0.256 C 
HETATM    2  N   UNL     1      22.047  44.638  48.092  1.00  0.00    -0.254 N 
HETATM    3  C   UNL     1      22.312  44.145  46.819  1.00  0.00     0.330 C 
HETATM    4  O   UNL     1      23.389  43.678  46.445  1.00  0.00    -0.246 OA
HETATM    5  N   UNL     1      21.312  44.203  45.895  1.00  0.00    -0.308 N 
HETATM    6  C   UNL     1      20.021  44.643  46.140  1.00  0.00     0.048 A 
HETATM    7  C   UNL     1      19.755  45.284  47.341  1.00  0.00     0.034 A 
HETATM    8  C   UNL     1      19.022  44.430  45.188  1.00  0.00     0.030 A 
HETATM    9  C   UNL     1      17.719  44.852  45.451  1.00  0.00     0.002 A 
HETATM   10  C   UNL     1      17.429  45.495  46.651  1.00  0.00     0.001 A 
HETATM   11  C   UNL     1      18.440  45.719  47.588  1.00  0.00     0.015 A 
HETATM   12  H   UNL     1      21.533  43.754  45.016  1.00  0.00     0.170 HD
ENDROOT
BRANCH   1  13
HETATM   13  C   UNL     1      21.351  47.070  48.129  1.00  0.00     0.279 C 
HETATM   14  N   UNL     1      21.235  47.885  49.235  1.00  0.00    -0.352 N 
HETATM   15  H   UNL     1      20.705  47.559  50.033  1.00  0.00     0.162 HD
HETATM   16  O   UNL     1      21.817  47.462  47.054  1.00  0.00    -0.268 OA
BRANCH  14  17
HETATM   17  C   UNL     1      21.590  49.291  49.205  1.00  0.00     0.164 C 
BRANCH  17  18
HETATM   18  C   UNL     1      20.406  50.234  49.166  1.00  0.00    -0.007 A 
HETATM   19  C   UNL     1      19.220  49.868  49.843  1.00  0.00     0.076 A 
HETATM   20  C   UNL     1      18.120  50.732  49.845  1.00  0.00     0.037 A 
HETATM   21  C   UNL     1      18.182  51.956  49.176  1.00  0.00     0.003 A 
HETATM   22  C   UNL     1      19.343  52.325  48.506  1.00  0.00     0.001 A 
HETATM   23  C   UNL     1      20.448  51.472  48.503  1.00  0.00     0.011 A 
BRANCH  19  24
HETATM   24  O   UNL     1      19.250  48.658  50.488  1.00  0.00    -0.355 OA
HETATM   25  C   UNL     1      18.531  48.559  51.713  1.00  0.00     0.210 C 
ENDBRANCH  19  24
ENDBRANCH  17  18
ENDBRANCH  14  17
ENDBRANCH   1  13
BRANCH   1  26
HETATM   26  O   UNL     1      20.378  45.357  49.602  1.00  0.00    -0.359 OA
HETATM   27  H   UNL     1      21.024  44.775  50.047  1.00  0.00     0.213 HD
ENDBRANCH   1  26
BRANCH   2  28
HETATM   28  C   UNL     1      22.981  44.392  49.167  1.00  0.00     0.043 A 
HETATM   29  C   UNL     1      23.068  43.156  49.829  1.00  0.00     0.031 A 
HETATM   30  C   UNL     1      24.006  42.940  50.848  1.00  0.00     0.026 A 
HETATM   31  C   UNL     1      24.883  43.954  51.213  1.00  0.00     0.034 A 
HETATM   32 CL   UNL     1      26.044  43.681  52.453  1.00  0.00    -0.084 Cl
HETATM   33  C   UNL     1      24.828  45.183  50.572  1.00  0.00     0.026 A 
HETATM   34  C   UNL     1      23.884  45.397  49.561  1.00  0.00     0.031 A 
ENDBRANCH   2  28
TORSDOF 6
ENDMDL
