MODEL 1
REMARK VINA RESULT:      -9.0      0.000      0.000
REMARK  5 active torsions:
REMARK  status: ('A' for Active; 'I' for Inactive)
REMARK    1  A    between atoms: C_2  and  N_3 
REMARK       I    between atoms: N_3  and  C_4 
REMARK       I    between atoms: C_4  and  N_5 
REMARK    2  A    between atoms: C_7  and  C_8 
REMARK    3  A    between atoms: C_13  and  N_14 
REMARK       I    between atoms: N_14  and  C_15 
REMARK    4  A    between atoms: C_15  and  C_16 
REMARK    5  A    between atoms: C_19  and  O_20 
ROOT
HETATM    1  C   UNL     1      26.109  45.558  50.568  1.00  0.00     0.088 A 
HETATM    2  N   UNL     1      26.701  45.331  49.388  1.00  0.00    -0.177 NA
HETATM    3  N   UNL     1      26.837  44.001  49.341  1.00  0.00    -0.287 N 
HETATM    4  H   UNL     1      27.306  43.593  48.538  1.00  0.00     0.188 HD
HETATM    5  C   UNL     1      26.310  43.359  50.424  1.00  0.00     0.141 A 
HETATM    6  C   UNL     1      25.783  44.331  51.236  1.00  0.00     0.079 A 
ENDROOT
BRANCH   1   7
HETATM    7  C   UNL     1      25.888  46.966  51.081  1.00  0.00     0.060 C 
HETATM    8  C   UNL     1      24.528  47.577  50.706  1.00  0.00     0.138 C 
HETATM    9  N   UNL     1      24.449  48.089  49.329  1.00  0.00    -0.334 N 
HETATM   10  C   UNL     1      23.243  48.236  48.647  1.00  0.00     0.318 C 
HETATM   11  C   UNL     1      25.552  48.939  48.899  1.00  0.00     0.127 C 
HETATM   12  N   UNL     1      22.244  47.409  49.095  1.00  0.00    -0.339 N 
HETATM   13  O   UNL     1      23.087  49.038  47.732  1.00  0.00    -0.247 OA
HETATM   14  H   UNL     1      22.603  46.500  49.355  1.00  0.00     0.164 HD
HETATM   15  C   UNL     1      26.911  48.316  49.192  1.00  0.00     0.021 C 
HETATM   16  C   UNL     1      27.029  47.907  50.658  1.00  0.00     0.014 C 
BRANCH  12  17
HETATM   17  C   UNL     1      20.893  47.401  48.548  1.00  0.00     0.078 C 
HETATM   18  C   UNL     1      19.980  48.391  49.267  1.00  0.00     0.032 C 
HETATM   19  C   UNL     1      20.275  46.004  48.491  1.00  0.00     0.032 C 
ENDBRANCH  12  17
ENDBRANCH   1   7
BRANCH   6  20
HETATM   20  N   UNL     1      25.116  44.230  52.442  1.00  0.00    -0.320 N 
HETATM   21  C   UNL     1      25.547  44.159  53.742  1.00  0.00     0.256 C 
HETATM   22  O   UNL     1      24.719  44.148  54.652  1.00  0.00    -0.267 OA
HETATM   23  H   UNL     1      24.105  44.255  52.396  1.00  0.00     0.169 HD
BRANCH  21  24
HETATM   24  C   UNL     1      26.968  44.137  54.108  1.00  0.00     0.032 A 
HETATM   25  C   UNL     1      27.715  42.960  54.031  1.00  0.00     0.020 A 
HETATM   26  C   UNL     1      29.047  42.969  54.457  1.00  0.00     0.038 A 
HETATM   27  C   UNL     1      29.620  44.130  54.994  1.00  0.00     0.068 A 
HETATM   28  C   UNL     1      28.853  45.292  55.094  1.00  0.00     0.038 A 
HETATM   29  C   UNL     1      27.525  45.295  54.658  1.00  0.00     0.020 A 
BRANCH  27  30
HETATM   30  O   UNL     1      30.926  43.997  55.381  1.00  0.00    -0.356 OA
HETATM   31  C   UNL     1      31.164  43.275  56.584  1.00  0.00     0.210 C 
ENDBRANCH  27  30
ENDBRANCH  21  24
ENDBRANCH   6  20
TORSDOF 5
ENDMDL
MODEL 2
REMARK VINA RESULT:      -8.0     12.568     15.944
REMARK  5 active torsions:
REMARK  status: ('A' for Active; 'I' for Inactive)
REMARK    1  A    between atoms: C_2  and  N_3 
REMARK       I    between atoms: N_3  and  C_4 
REMARK       I    between atoms: C_4  and  N_5 
REMARK    2  A    between atoms: C_7  and  C_8 
REMARK    3  A    between atoms: C_13  and  N_14 
REMARK       I    between atoms: N_14  and  C_15 
REMARK    4  A    between atoms: C_15  and  C_16 
REMARK    5  A    between atoms: C_19  and  O_20 
ROOT
HETATM    1  C   UNL     1      34.098  50.851  42.522  1.00  0.00     0.088 A 
HETATM    2  N   UNL     1      33.937  52.012  43.169  1.00  0.00    -0.177 NA
HETATM    3  N   UNL     1      32.642  52.024  43.503  1.00  0.00    -0.287 N 
HETATM    4  H   UNL     1      32.274  52.843  43.977  1.00  0.00     0.188 HD
HETATM    5  C   UNL     1      31.973  50.891  43.137  1.00  0.00     0.141 A 
HETATM    6  C   UNL     1      32.893  50.074  42.531  1.00  0.00     0.079 A 
ENDROOT
BRANCH   1   7
HETATM    7  C   UNL     1      35.410  50.497  41.853  1.00  0.00     0.060 C 
HETATM    8  C   UNL     1      36.650  51.139  42.497  1.00  0.00     0.138 C 
HETATM    9  N   UNL     1      36.867  52.548  42.131  1.00  0.00    -0.334 N 
HETATM   10  C   UNL     1      37.602  53.428  42.922  1.00  0.00     0.318 C 
HETATM   11  C   UNL     1      36.784  52.858  40.709  1.00  0.00     0.127 C 
HETATM   12  N   UNL     1      37.642  53.085  44.250  1.00  0.00    -0.339 N 
HETATM   13  O   UNL     1      38.167  54.418  42.470  1.00  0.00    -0.247 OA
HETATM   14  H   UNL     1      36.762  52.697  44.560  1.00  0.00     0.164 HD
HETATM   15  C   UNL     1      35.522  52.296  40.066  1.00  0.00     0.021 C 
HETATM   16  C   UNL     1      35.376  50.802  40.345  1.00  0.00     0.014 C 
BRANCH  12  17
HETATM   17  C   UNL     1      38.367  53.844  45.261  1.00  0.00     0.078 C 
HETATM   18  C   UNL     1      38.957  52.939  46.340  1.00  0.00     0.032 C 
HETATM   19  C   UNL     1      37.543  54.980  45.867  1.00  0.00     0.032 C 
ENDBRANCH  12  17
ENDBRANCH   1   7
BRANCH   6  20
HETATM   20  N   UNL     1      32.754  48.806  41.997  1.00  0.00    -0.320 N 
HETATM   21  C   UNL     1      32.141  48.334  40.866  1.00  0.00     0.256 C 
HETATM   22  O   UNL     1      32.233  47.139  40.584  1.00  0.00    -0.267 OA
HETATM   23  H   UNL     1      33.225  48.060  42.493  1.00  0.00     0.169 HD
BRANCH  21  24
HETATM   24  C   UNL     1      31.405  49.202  39.939  1.00  0.00     0.032 A 
HETATM   25  C   UNL     1      32.071  50.119  39.125  1.00  0.00     0.020 A 
HETATM   26  C   UNL     1      31.326  50.976  38.310  1.00  0.00     0.038 A 
HETATM   27  C   UNL     1      29.925  50.947  38.333  1.00  0.00     0.068 A 
HETATM   28  C   UNL     1      29.268  50.046  39.175  1.00  0.00     0.038 A 
HETATM   29  C   UNL     1      30.008  49.178  39.982  1.00  0.00     0.020 A 
BRANCH  27  30
HETATM   30  O   UNL     1      29.320  51.844  37.495  1.00  0.00    -0.356 OA
HETATM   31  C   UNL     1      28.692  52.966  38.106  1.00  0.00     0.210 C 
ENDBRANCH  27  30
ENDBRANCH  21  24
ENDBRANCH   6  20
TORSDOF 5
ENDMDL
MODEL 3
REMARK VINA RESULT:      -7.9      3.816     10.384
REMARK  5 active torsions:
REMARK  status: ('A' for Active; 'I' for Inactive)
REMARK    1  A    between atoms: C_2  and  N_3 
REMARK       I    between atoms: N_3  and  C_4 
REMARK       I    between atoms: C_4  and  N_5 
REMARK    2  A    between atoms: C_7  and  C_8 
REMARK    3  A    between atoms: C_13  and  N_14 
REMARK       I    between atoms: N_14  and  C_15 
REMARK    4  A    between atoms: C_15  and  C_16 
REMARK    5  A    between atoms: C_19  and  O_20 
ROOT
HETATM    1  C   UNL     1      20.201  48.892  49.363  1.00  0.00     0.088 A 
HETATM    2  N   UNL     1      20.382  49.973  50.132  1.00  0.00    -0.177 NA
HETATM    3  N   UNL     1      19.394  49.902  51.032  1.00  0.00    -0.287 N 
HETATM    4  H   UNL     1      19.305  50.653  51.709  1.00  0.00     0.188 HD
HETATM    5  C   UNL     1      18.613  48.790  50.900  1.00  0.00     0.141 A 
HETATM    6  C   UNL     1      19.128  48.075  49.849  1.00  0.00     0.079 A 
ENDROOT
BRANCH   1   7
HETATM    7  C   UNL     1      21.040  48.658  48.124  1.00  0.00     0.060 C 
HETATM    8  C   UNL     1      22.311  47.823  48.360  1.00  0.00     0.138 C 
HETATM    9  N   UNL     1      23.431  48.572  48.952  1.00  0.00    -0.334 N 
HETATM   10  C   UNL     1      24.457  47.956  49.663  1.00  0.00     0.318 C 
HETATM   11  C   UNL     1      23.742  49.853  48.329  1.00  0.00     0.127 C 
HETATM   12  N   UNL     1      24.104  46.756  50.227  1.00  0.00    -0.339 N 
HETATM   13  O   UNL     1      25.579  48.441  49.771  1.00  0.00    -0.247 OA
HETATM   14  H   UNL     1      23.152  46.772  50.568  1.00  0.00     0.164 HD
HETATM   15  C   UNL     1      22.507  50.728  48.156  1.00  0.00     0.021 C 
HETATM   16  C   UNL     1      21.396  49.981  47.423  1.00  0.00     0.014 C 
BRANCH  12  17
HETATM   17  C   UNL     1      25.017  45.923  50.998  1.00  0.00     0.078 C 
HETATM   18  C   UNL     1      24.497  44.497  51.153  1.00  0.00     0.032 C 
HETATM   19  C   UNL     1      25.397  46.534  52.347  1.00  0.00     0.032 C 
ENDBRANCH  12  17
ENDBRANCH   1   7
BRANCH   6  20
HETATM   20  N   UNL     1      18.734  46.866  49.307  1.00  0.00    -0.320 N 
HETATM   21  C   UNL     1      17.899  46.537  48.270  1.00  0.00     0.256 C 
HETATM   22  O   UNL     1      17.779  45.357  47.944  1.00  0.00    -0.267 OA
HETATM   23  H   UNL     1      19.163  46.039  49.703  1.00  0.00     0.169 HD
BRANCH  21  24
HETATM   24  C   UNL     1      17.164  47.542  47.492  1.00  0.00     0.032 A 
HETATM   25  C   UNL     1      17.722  48.121  46.351  1.00  0.00     0.020 A 
HETATM   26  C   UNL     1      17.016  49.125  45.682  1.00  0.00     0.038 A 
HETATM   27  C   UNL     1      15.782  49.578  46.167  1.00  0.00     0.068 A 
HETATM   28  C   UNL     1      15.248  49.012  47.327  1.00  0.00     0.038 A 
HETATM   29  C   UNL     1      15.942  47.999  47.994  1.00  0.00     0.020 A 
BRANCH  27  30
HETATM   30  O   UNL     1      15.204  50.571  45.423  1.00  0.00    -0.356 OA
HETATM   31  C   UNL     1      15.134  51.860  46.023  1.00  0.00     0.210 C 
ENDBRANCH  27  30
ENDBRANCH  21  24
ENDBRANCH   6  20
TORSDOF 5
ENDMDL
MODEL 4
REMARK VINA RESULT:      -7.9      4.082     10.705
REMARK  5 active torsions:
REMARK  status: ('A' for Active; 'I' for Inactive)
REMARK    1  A    between atoms: C_2  and  N_3 
REMARK       I    between atoms: N_3  and  C_4 
REMARK       I    between atoms: C_4  and  N_5 
REMARK    2  A    between atoms: C_7  and  C_8 
REMARK    3  A    between atoms: C_13  and  N_14 
REMARK       I    between atoms: N_14  and  C_15 
REMARK    4  A    between atoms: C_15  and  C_16 
REMARK    5  A    between atoms: C_19  and  O_20 
ROOT
HETATM    1  C   UNL     1      19.919  48.375  48.397  1.00  0.00     0.088 A 
HETATM    2  N   UNL     1      20.116  47.761  49.572  1.00  0.00    -0.177 NA
HETATM    3  N   UNL     1      18.881  47.549  50.041  1.00  0.00    -0.287 N 
HETATM    4  H   UNL     1      18.781  47.122  50.956  1.00  0.00     0.188 HD
HETATM    5  C   UNL     1      17.895  47.959  49.190  1.00  0.00     0.141 A 
HETATM    6  C   UNL     1      18.523  48.467  48.081  1.00  0.00     0.079 A 
ENDROOT
BRANCH   1   7
HETATM    7  C   UNL     1      21.078  48.916  47.587  1.00  0.00     0.060 C 
HETATM    8  C   UNL     1      22.415  48.190  47.820  1.00  0.00     0.138 C 
HETATM    9  N   UNL     1      23.117  48.586  49.051  1.00  0.00    -0.334 N 
HETATM   10  C   UNL     1      24.048  47.767  49.684  1.00  0.00     0.318 C 
HETATM   11  C   UNL     1      23.242  50.020  49.281  1.00  0.00     0.127 C 
HETATM   12  N   UNL     1      23.879  46.430  49.431  1.00  0.00    -0.339 N 
HETATM   13  O   UNL     1      24.943  48.204  50.400  1.00  0.00    -0.247 OA
HETATM   14  H   UNL     1      22.900  46.183  49.378  1.00  0.00     0.164 HD
HETATM   15  C   UNL     1      21.912  50.749  49.130  1.00  0.00     0.021 C 
HETATM   16  C   UNL     1      21.254  50.431  47.791  1.00  0.00     0.014 C 
BRANCH  12  17
HETATM   17  C   UNL     1      24.745  45.388  49.968  1.00  0.00     0.078 C 
HETATM   18  C   UNL     1      24.812  44.171  49.049  1.00  0.00     0.032 C 
HETATM   19  C   UNL     1      24.393  44.992  51.402  1.00  0.00     0.032 C 
ENDBRANCH  12  17
ENDBRANCH   1   7
BRANCH   6  20
HETATM   20  N   UNL     1      18.000  48.994  46.916  1.00  0.00    -0.320 N 
HETATM   21  C   UNL     1      17.327  50.156  46.638  1.00  0.00     0.256 C 
HETATM   22  O   UNL     1      17.032  50.418  45.472  1.00  0.00    -0.267 OA
HETATM   23  H   UNL     1      18.169  48.462  46.071  1.00  0.00     0.169 HD
BRANCH  21  24
HETATM   24  C   UNL     1      16.973  51.136  47.672  1.00  0.00     0.032 A 
HETATM   25  C   UNL     1      17.952  51.904  48.304  1.00  0.00     0.020 A 
HETATM   26  C   UNL     1      17.578  52.773  49.333  1.00  0.00     0.038 A 
HETATM   27  C   UNL     1      16.245  52.849  49.757  1.00  0.00     0.068 A 
HETATM   28  C   UNL     1      15.279  52.054  49.137  1.00  0.00     0.038 A 
HETATM   29  C   UNL     1      15.643  51.192  48.099  1.00  0.00     0.020 A 
BRANCH  27  30
HETATM   30  O   UNL     1      16.018  53.732  50.779  1.00  0.00    -0.356 OA
HETATM   31  C   UNL     1      14.662  53.933  51.160  1.00  0.00     0.210 C 
ENDBRANCH  27  30
ENDBRANCH  21  24
ENDBRANCH   6  20
TORSDOF 5
ENDMDL
MODEL 5
REMARK VINA RESULT:      -7.9     11.338     13.151
REMARK  5 active torsions:
REMARK  status: ('A' for Active; 'I' for Inactive)
REMARK    1  A    between atoms: C_2  and  N_3 
REMARK       I    between atoms: N_3  and  C_4 
REMARK       I    between atoms: C_4  and  N_5 
REMARK    2  A    between atoms: C_7  and  C_8 
REMARK    3  A    between atoms: C_13  and  N_14 
REMARK       I    between atoms: N_14  and  C_15 
REMARK    4  A    between atoms: C_15  and  C_16 
REMARK    5  A    between atoms: C_19  and  O_20 
ROOT
HETATM    1  C   UNL     1      30.755  51.134  40.015  1.00  0.00     0.088 A 
HETATM    2  N   UNL     1      30.466  52.137  39.176  1.00  0.00    -0.177 NA
HETATM    3  N   UNL     1      31.319  51.968  38.159  1.00  0.00    -0.287 N 
HETATM    4  H   UNL     1      31.311  52.649  37.406  1.00  0.00     0.188 HD
HETATM    5  C   UNL     1      32.114  50.866  38.290  1.00  0.00     0.141 A 
HETATM    6  C   UNL     1      31.753  50.262  39.467  1.00  0.00     0.079 A 
ENDROOT
BRANCH   1   7
HETATM    7  C   UNL     1      30.097  51.031  41.375  1.00  0.00     0.060 C 
HETATM    8  C   UNL     1      29.278  49.748  41.595  1.00  0.00     0.138 C 
HETATM    9  N   UNL     1      27.944  49.764  40.974  1.00  0.00    -0.334 N 
HETATM   10  C   UNL     1      27.252  48.601  40.643  1.00  0.00     0.318 C 
HETATM   11  C   UNL     1      27.141  50.957  41.214  1.00  0.00     0.127 C 
HETATM   12  N   UNL     1      28.060  47.513  40.426  1.00  0.00    -0.339 N 
HETATM   13  O   UNL     1      26.030  48.553  40.558  1.00  0.00    -0.247 OA
HETATM   14  H   UNL     1      28.918  47.775  39.960  1.00  0.00     0.164 HD
HETATM   15  C   UNL     1      27.911  52.240  40.929  1.00  0.00     0.021 C 
HETATM   16  C   UNL     1      29.238  52.270  41.684  1.00  0.00     0.014 C 
BRANCH  12  17
HETATM   17  C   UNL     1      27.560  46.187  40.089  1.00  0.00     0.078 C 
HETATM   18  C   UNL     1      26.921  45.495  41.289  1.00  0.00     0.032 C 
HETATM   19  C   UNL     1      28.611  45.300  39.420  1.00  0.00     0.032 C 
ENDBRANCH  12  17
ENDBRANCH   1   7
BRANCH   6  20
HETATM   20  N   UNL     1      32.222  49.107  40.065  1.00  0.00    -0.320 N 
HETATM   21  C   UNL     1      33.085  48.881  41.106  1.00  0.00     0.256 C 
HETATM   22  O   UNL     1      33.278  47.729  41.491  1.00  0.00    -0.267 OA
HETATM   23  H   UNL     1      31.837  48.238  39.718  1.00  0.00     0.169 HD
BRANCH  21  24
HETATM   24  C   UNL     1      33.769  49.966  41.821  1.00  0.00     0.032 A 
HETATM   25  C   UNL     1      35.113  50.256  41.578  1.00  0.00     0.020 A 
HETATM   26  C   UNL     1      35.743  51.250  42.333  1.00  0.00     0.038 A 
HETATM   27  C   UNL     1      35.053  51.923  43.349  1.00  0.00     0.068 A 
HETATM   28  C   UNL     1      33.718  51.603  43.603  1.00  0.00     0.038 A 
HETATM   29  C   UNL     1      33.077  50.620  42.844  1.00  0.00     0.020 A 
BRANCH  27  30
HETATM   30  O   UNL     1      35.791  52.864  44.016  1.00  0.00    -0.356 OA
HETATM   31  C   UNL     1      36.990  53.300  43.386  1.00  0.00     0.210 C 
ENDBRANCH  27  30
ENDBRANCH  21  24
ENDBRANCH   6  20
TORSDOF 5
ENDMDL
MODEL 6
REMARK VINA RESULT:      -7.7     11.913     13.559
REMARK  5 active torsions:
REMARK  status: ('A' for Active; 'I' for Inactive)
REMARK    1  A    between atoms: C_2  and  N_3 
REMARK       I    between atoms: N_3  and  C_4 
REMARK       I    between atoms: C_4  and  N_5 
REMARK    2  A    between atoms: C_7  and  C_8 
REMARK    3  A    between atoms: C_13  and  N_14 
REMARK       I    between atoms: N_14  and  C_15 
REMARK    4  A    between atoms: C_15  and  C_16 
REMARK    5  A    between atoms: C_19  and  O_20 
ROOT
HETATM    1  C   UNL     1      30.268  50.002  41.818  1.00  0.00     0.088 A 
HETATM    2  N   UNL     1      29.859  48.908  41.162  1.00  0.00    -0.177 NA
HETATM    3  N   UNL     1      30.863  48.037  41.322  1.00  0.00    -0.287 N 
HETATM    4  H   UNL     1      30.792  47.132  40.869  1.00  0.00     0.188 HD
HETATM    5  C   UNL     1      31.881  48.513  42.098  1.00  0.00     0.141 A 
HETATM    6  C   UNL     1      31.518  49.779  42.483  1.00  0.00     0.079 A 
ENDROOT
BRANCH   1   7
HETATM    7  C   UNL     1      29.470  51.289  41.775  1.00  0.00     0.060 C 
HETATM    8  C   UNL     1      28.090  51.164  41.108  1.00  0.00     0.138 C 
HETATM    9  N   UNL     1      28.124  51.160  39.636  1.00  0.00    -0.334 N 
HETATM   10  C   UNL     1      27.111  50.603  38.860  1.00  0.00     0.318 C 
HETATM   11  C   UNL     1      28.926  52.206  39.013  1.00  0.00     0.127 C 
HETATM   12  N   UNL     1      26.392  49.624  39.500  1.00  0.00    -0.339 N 
HETATM   13  O   UNL     1      26.878  50.959  37.710  1.00  0.00    -0.247 OA
HETATM   14  H   UNL     1      26.983  49.057  40.093  1.00  0.00     0.164 HD
HETATM   15  C   UNL     1      30.325  52.296  39.609  1.00  0.00     0.021 C 
HETATM   16  C   UNL     1      30.273  52.431  41.129  1.00  0.00     0.014 C 
BRANCH  12  17
HETATM   17  C   UNL     1      25.273  48.914  38.894  1.00  0.00     0.078 C 
HETATM   18  C   UNL     1      23.957  49.667  39.071  1.00  0.00     0.032 C 
HETATM   19  C   UNL     1      25.159  47.462  39.358  1.00  0.00     0.032 C 
ENDBRANCH  12  17
ENDBRANCH   1   7
BRANCH   6  20
HETATM   20  N   UNL     1      32.170  50.694  43.288  1.00  0.00    -0.320 N 
HETATM   21  C   UNL     1      33.354  51.374  43.156  1.00  0.00     0.256 C 
HETATM   22  O   UNL     1      33.671  52.205  44.007  1.00  0.00    -0.267 OA
HETATM   23  H   UNL     1      31.684  50.974  44.130  1.00  0.00     0.169 HD
BRANCH  21  24
HETATM   24  C   UNL     1      34.254  51.189  42.011  1.00  0.00     0.032 A 
HETATM   25  C   UNL     1      35.503  50.585  42.165  1.00  0.00     0.020 A 
HETATM   26  C   UNL     1      36.357  50.493  41.062  1.00  0.00     0.038 A 
HETATM   27  C   UNL     1      35.987  51.033  39.823  1.00  0.00     0.068 A 
HETATM   28  C   UNL     1      34.747  51.662  39.689  1.00  0.00     0.038 A 
HETATM   29  C   UNL     1      33.883  51.746  40.784  1.00  0.00     0.020 A 
BRANCH  27  30
HETATM   30  O   UNL     1      36.919  50.884  38.832  1.00  0.00    -0.356 OA
HETATM   31  C   UNL     1      37.428  52.078  38.249  1.00  0.00     0.210 C 
ENDBRANCH  27  30
ENDBRANCH  21  24
ENDBRANCH   6  20
TORSDOF 5
ENDMDL
MODEL 7
REMARK VINA RESULT:      -7.7     17.178     20.065
REMARK  5 active torsions:
REMARK  status: ('A' for Active; 'I' for Inactive)
REMARK    1  A    between atoms: C_2  and  N_3 
REMARK       I    between atoms: N_3  and  C_4 
REMARK       I    between atoms: C_4  and  N_5 
REMARK    2  A    between atoms: C_7  and  C_8 
REMARK    3  A    between atoms: C_13  and  N_14 
REMARK       I    between atoms: N_14  and  C_15 
REMARK    4  A    between atoms: C_15  and  C_16 
REMARK    5  A    between atoms: C_19  and  O_20 
ROOT
HETATM    1  C   UNL     1      40.761  43.083  64.695  1.00  0.00     0.088 A 
HETATM    2  N   UNL     1      40.162  42.377  65.663  1.00  0.00    -0.177 NA
HETATM    3  N   UNL     1      41.053  42.370  66.661  1.00  0.00    -0.287 N 
HETATM    4  H   UNL     1      40.828  41.849  67.503  1.00  0.00     0.188 HD
HETATM    5  C   UNL     1      42.183  43.086  66.390  1.00  0.00     0.141 A 
HETATM    6  C   UNL     1      42.022  43.609  65.132  1.00  0.00     0.079 A 
ENDROOT
BRANCH   1   7
HETATM    7  C   UNL     1      40.138  43.223  63.322  1.00  0.00     0.060 C 
HETATM    8  C   UNL     1      39.096  44.348  63.204  1.00  0.00     0.138 C 
HETATM    9  N   UNL     1      37.771  44.010  63.748  1.00  0.00    -0.334 N 
HETATM   10  C   UNL     1      36.861  44.976  64.169  1.00  0.00     0.318 C 
HETATM   11  C   UNL     1      37.219  42.726  63.334  1.00  0.00     0.127 C 
HETATM   12  N   UNL     1      37.439  46.162  64.547  1.00  0.00    -0.339 N 
HETATM   13  O   UNL     1      35.649  44.786  64.194  1.00  0.00    -0.247 OA
HETATM   14  H   UNL     1      38.317  46.010  65.026  1.00  0.00     0.164 HD
HETATM   15  C   UNL     1      38.210  41.584  63.515  1.00  0.00     0.021 C 
HETATM   16  C   UNL     1      39.541  41.892  62.833  1.00  0.00     0.014 C 
BRANCH  12  17
HETATM   17  C   UNL     1      36.685  47.322  65.004  1.00  0.00     0.078 C 
HETATM   18  C   UNL     1      36.939  48.548  64.130  1.00  0.00     0.032 C 
HETATM   19  C   UNL     1      36.896  47.633  66.486  1.00  0.00     0.032 C 
ENDBRANCH  12  17
ENDBRANCH   1   7
BRANCH   6  20
HETATM   20  N   UNL     1      42.850  44.424  64.385  1.00  0.00    -0.320 N 
HETATM   21  C   UNL     1      42.997  45.786  64.310  1.00  0.00     0.256 C 
HETATM   22  O   UNL     1      43.882  46.259  63.598  1.00  0.00    -0.267 OA
HETATM   23  H   UNL     1      43.527  43.954  63.797  1.00  0.00     0.169 HD
BRANCH  21  24
HETATM   24  C   UNL     1      42.166  46.718  65.081  1.00  0.00     0.032 A 
HETATM   25  C   UNL     1      41.039  47.318  64.516  1.00  0.00     0.020 A 
HETATM   26  C   UNL     1      40.318  48.254  65.263  1.00  0.00     0.038 A 
HETATM   27  C   UNL     1      40.737  48.621  66.549  1.00  0.00     0.068 A 
HETATM   28  C   UNL     1      41.883  48.037  67.092  1.00  0.00     0.038 A 
HETATM   29  C   UNL     1      42.602  47.090  66.356  1.00  0.00     0.020 A 
BRANCH  27  30
HETATM   30  O   UNL     1      39.947  49.554  67.164  1.00  0.00    -0.356 OA
HETATM   31  C   UNL     1      39.251  50.460  66.316  1.00  0.00     0.210 C 
ENDBRANCH  27  30
ENDBRANCH  21  24
ENDBRANCH   6  20
TORSDOF 5
ENDMDL
MODEL 8
REMARK VINA RESULT:      -7.6     11.103     13.777
REMARK  5 active torsions:
REMARK  status: ('A' for Active; 'I' for Inactive)
REMARK    1  A    between atoms: C_2  and  N_3 
REMARK       I    between atoms: N_3  and  C_4 
REMARK       I    between atoms: C_4  and  N_5 
REMARK    2  A    between atoms: C_7  and  C_8 
REMARK    3  A    between atoms: C_13  and  N_14 
REMARK       I    between atoms: N_14  and  C_15 
REMARK    4  A    between atoms: C_15  and  C_16 
REMARK    5  A    between atoms: C_19  and  O_20 
ROOT
HETATM    1  C   UNL     1      27.867  49.317  39.904  1.00  0.00     0.088 A 
HETATM    2  N   UNL     1      27.583  48.718  41.068  1.00  0.00    -0.177 NA
HETATM    3  N   UNL     1      27.325  49.731  41.902  1.00  0.00    -0.287 N 
HETATM    4  H   UNL     1      27.118  49.516  42.873  1.00  0.00     0.188 HD
HETATM    5  C   UNL     1      27.385  50.959  41.307  1.00  0.00     0.141 A 
HETATM    6  C   UNL     1      27.693  50.738  39.989  1.00  0.00     0.079 A 
ENDROOT
BRANCH   1   7
HETATM    7  C   UNL     1      28.350  48.524  38.708  1.00  0.00     0.060 C 
HETATM    8  C   UNL     1      27.788  47.095  38.619  1.00  0.00     0.138 C 
HETATM    9  N   UNL     1      28.452  46.124  39.504  1.00  0.00    -0.334 N 
HETATM   10  C   UNL     1      27.836  44.950  39.931  1.00  0.00     0.318 C 
HETATM   11  C   UNL     1      29.909  46.127  39.477  1.00  0.00     0.127 C 
HETATM   12  N   UNL     1      26.466  45.008  39.936  1.00  0.00    -0.339 N 
HETATM   13  O   UNL     1      28.464  43.951  40.266  1.00  0.00    -0.247 OA
HETATM   14  H   UNL     1      26.134  45.919  40.223  1.00  0.00     0.164 HD
HETATM   15  C   UNL     1      30.489  47.527  39.640  1.00  0.00     0.021 C 
HETATM   16  C   UNL     1      29.886  48.498  38.628  1.00  0.00     0.014 C 
BRANCH  12  17
HETATM   17  C   UNL     1      25.609  43.895  40.324  1.00  0.00     0.078 C 
HETATM   18  C   UNL     1      24.356  43.809  39.457  1.00  0.00     0.032 C 
HETATM   19  C   UNL     1      25.265  43.890  41.814  1.00  0.00     0.032 C 
ENDBRANCH  12  17
ENDBRANCH   1   7
BRANCH   6  20
HETATM   20  N   UNL     1      27.853  51.627  38.943  1.00  0.00    -0.320 N 
HETATM   21  C   UNL     1      28.926  52.349  38.488  1.00  0.00     0.256 C 
HETATM   22  O   UNL     1      28.810  53.026  37.467  1.00  0.00    -0.267 OA
HETATM   23  H   UNL     1      27.046  51.762  38.346  1.00  0.00     0.169 HD
BRANCH  21  24
HETATM   24  C   UNL     1      30.239  52.321  39.146  1.00  0.00     0.032 A 
HETATM   25  C   UNL     1      31.312  51.625  38.586  1.00  0.00     0.020 A 
HETATM   26  C   UNL     1      32.523  51.565  39.282  1.00  0.00     0.038 A 
HETATM   27  C   UNL     1      32.654  52.160  40.544  1.00  0.00     0.068 A 
HETATM   28  C   UNL     1      31.564  52.827  41.107  1.00  0.00     0.038 A 
HETATM   29  C   UNL     1      30.354  52.902  40.412  1.00  0.00     0.020 A 
BRANCH  27  30
HETATM   30  O   UNL     1      33.888  52.018  41.119  1.00  0.00    -0.356 OA
HETATM   31  C   UNL     1      33.954  51.231  42.302  1.00  0.00     0.210 C 
ENDBRANCH  27  30
ENDBRANCH  21  24
ENDBRANCH   6  20
TORSDOF 5
ENDMDL
MODEL 9
REMARK VINA RESULT:      -7.4      2.085      2.964
REMARK  5 active torsions:
REMARK  status: ('A' for Active; 'I' for Inactive)
REMARK    1  A    between atoms: C_2  and  N_3 
REMARK       I    between atoms: N_3  and  C_4 
REMARK       I    between atoms: C_4  and  N_5 
REMARK    2  A    between atoms: C_7  and  C_8 
REMARK    3  A    between atoms: C_13  and  N_14 
REMARK       I    between atoms: N_14  and  C_15 
REMARK    4  A    between atoms: C_15  and  C_16 
REMARK    5  A    between atoms: C_19  and  O_20 
ROOT
HETATM    1  C   UNL     1      25.986  46.380  51.830  1.00  0.00     0.088 A 
HETATM    2  N   UNL     1      25.591  47.516  52.420  1.00  0.00    -0.177 NA
HETATM    3  N   UNL     1      25.458  47.186  53.709  1.00  0.00    -0.287 N 
HETATM    4  H   UNL     1      25.122  47.894  54.355  1.00  0.00     0.188 HD
HETATM    5  C   UNL     1      25.799  45.892  53.980  1.00  0.00     0.141 A 
HETATM    6  C   UNL     1      26.194  45.335  52.790  1.00  0.00     0.079 A 
ENDROOT
BRANCH   1   7
HETATM    7  C   UNL     1      26.129  46.282  50.326  1.00  0.00     0.060 C 
HETATM    8  C   UNL     1      25.265  47.279  49.535  1.00  0.00     0.138 C 
HETATM    9  N   UNL     1      23.851  46.890  49.405  1.00  0.00    -0.334 N 
HETATM   10  C   UNL     1      22.835  47.812  49.167  1.00  0.00     0.318 C 
HETATM   11  C   UNL     1      23.602  45.517  48.984  1.00  0.00     0.127 C 
HETATM   12  N   UNL     1      23.126  49.086  49.586  1.00  0.00    -0.339 N 
HETATM   13  O   UNL     1      21.776  47.513  48.625  1.00  0.00    -0.247 OA
HETATM   14  H   UNL     1      23.651  49.081  50.451  1.00  0.00     0.164 HD
HETATM   15  C   UNL     1      24.392  44.507  49.807  1.00  0.00     0.021 C 
HETATM   16  C   UNL     1      25.879  44.848  49.826  1.00  0.00     0.014 C 
BRANCH  12  17
HETATM   17  C   UNL     1      22.225  50.219  49.423  1.00  0.00     0.078 C 
HETATM   18  C   UNL     1      22.753  51.228  48.407  1.00  0.00     0.032 C 
HETATM   19  C   UNL     1      21.857  50.891  50.746  1.00  0.00     0.032 C 
ENDBRANCH  12  17
ENDBRANCH   1   7
BRANCH   6  20
HETATM   20  N   UNL     1      26.656  44.065  52.503  1.00  0.00    -0.320 N 
HETATM   21  C   UNL     1      27.695  43.318  52.997  1.00  0.00     0.256 C 
HETATM   22  O   UNL     1      27.844  42.160  52.607  1.00  0.00    -0.267 OA
HETATM   23  H   UNL     1      26.118  43.536  51.829  1.00  0.00     0.169 HD
BRANCH  21  24
HETATM   24  C   UNL     1      28.626  43.824  54.013  1.00  0.00     0.032 A 
HETATM   25  C   UNL     1      29.683  43.040  54.478  1.00  0.00     0.020 A 
HETATM   26  C   UNL     1      30.501  43.534  55.497  1.00  0.00     0.038 A 
HETATM   27  C   UNL     1      30.247  44.784  56.077  1.00  0.00     0.068 A 
HETATM   28  C   UNL     1      29.168  45.547  55.624  1.00  0.00     0.038 A 
HETATM   29  C   UNL     1      28.353  45.064  54.597  1.00  0.00     0.020 A 
BRANCH  27  30
HETATM   30  O   UNL     1      31.118  45.143  57.070  1.00  0.00    -0.356 OA
HETATM   31  C   UNL     1      30.579  45.895  58.151  1.00  0.00     0.210 C 
ENDBRANCH  27  30
ENDBRANCH  21  24
ENDBRANCH   6  20
TORSDOF 5
ENDMDL
MODEL 10
REMARK VINA RESULT:      -7.4      7.623     10.490
REMARK  5 active torsions:
REMARK  status: ('A' for Active; 'I' for Inactive)
REMARK    1  A    between atoms: C_2  and  N_3 
REMARK       I    between atoms: N_3  and  C_4 
REMARK       I    between atoms: C_4  and  N_5 
REMARK    2  A    between atoms: C_7  and  C_8 
REMARK    3  A    between atoms: C_13  and  N_14 
REMARK       I    between atoms: N_14  and  C_15 
REMARK    4  A    between atoms: C_15  and  C_16 
REMARK    5  A    between atoms: C_19  and  O_20 
ROOT
HETATM    1  C   UNL     1      17.380  50.690  47.551  1.00  0.00     0.088 A 
HETATM    2  N   UNL     1      17.101  51.702  46.719  1.00  0.00    -0.177 NA
HETATM    3  N   UNL     1      16.823  52.727  47.531  1.00  0.00    -0.287 N 
HETATM    4  H   UNL     1      16.539  53.609  47.115  1.00  0.00     0.188 HD
HETATM    5  C   UNL     1      16.958  52.427  48.856  1.00  0.00     0.141 A 
HETATM    6  C   UNL     1      17.364  51.118  48.920  1.00  0.00     0.079 A 
ENDROOT
BRANCH   1   7
HETATM    7  C   UNL     1      17.625  49.289  47.033  1.00  0.00     0.060 C 
HETATM    8  C   UNL     1      17.983  49.212  45.539  1.00  0.00     0.138 C 
HETATM    9  N   UNL     1      16.831  49.324  44.630  1.00  0.00    -0.334 N 
HETATM   10  C   UNL     1      16.952  49.746  43.309  1.00  0.00     0.318 C 
HETATM   11  C   UNL     1      15.683  48.483  44.947  1.00  0.00     0.127 C 
HETATM   12  N   UNL     1      18.049  50.535  43.072  1.00  0.00    -0.339 N 
HETATM   13  O   UNL     1      16.151  49.435  42.433  1.00  0.00    -0.247 OA
HETATM   14  H   UNL     1      18.235  51.155  43.849  1.00  0.00     0.164 HD
HETATM   15  C   UNL     1      15.264  48.602  46.407  1.00  0.00     0.021 C 
HETATM   16  C   UNL     1      16.443  48.355  47.345  1.00  0.00     0.014 C 
BRANCH  12  17
HETATM   17  C   UNL     1      18.391  51.075  41.763  1.00  0.00     0.078 C 
HETATM   18  C   UNL     1      19.879  50.928  41.456  1.00  0.00     0.032 C 
HETATM   19  C   UNL     1      17.914  52.513  41.561  1.00  0.00     0.032 C 
ENDBRANCH  12  17
ENDBRANCH   1   7
BRANCH   6  20
HETATM   20  N   UNL     1      17.666  50.323  50.010  1.00  0.00    -0.320 N 
HETATM   21  C   UNL     1      18.822  49.714  50.427  1.00  0.00     0.256 C 
HETATM   22  O   UNL     1      18.833  49.110  51.499  1.00  0.00    -0.267 OA
HETATM   23  H   UNL     1      16.919  50.178  50.677  1.00  0.00     0.169 HD
BRANCH  21  24
HETATM   24  C   UNL     1      20.076  49.784  49.667  1.00  0.00     0.032 A 
HETATM   25  C   UNL     1      20.768  50.988  49.524  1.00  0.00     0.020 A 
HETATM   26  C   UNL     1      21.920  51.023  48.732  1.00  0.00     0.038 A 
HETATM   27  C   UNL     1      22.358  49.877  48.055  1.00  0.00     0.068 A 
HETATM   28  C   UNL     1      21.640  48.686  48.181  1.00  0.00     0.038 A 
HETATM   29  C   UNL     1      20.496  48.640  48.981  1.00  0.00     0.020 A 
BRANCH  27  30
HETATM   30  O   UNL     1      23.491  50.053  47.307  1.00  0.00    -0.356 OA
HETATM   31  C   UNL     1      24.725  50.083  48.016  1.00  0.00     0.210 C 
ENDBRANCH  27  30
ENDBRANCH  21  24
ENDBRANCH   6  20
TORSDOF 5
ENDMDL
