MODEL 1
REMARK VINA RESULT:      -8.8      0.000      0.000
REMARK  7 active torsions:
REMARK  status: ('A' for Active; 'I' for Inactive)
REMARK       I    between atoms: C_2  and  N_3 
REMARK    1  A    between atoms: N_3  and  C_4 
REMARK    2  A    between atoms: N_9  and  C_10 
REMARK    3  A    between atoms: C_10  and  C_11 
REMARK    4  A    between atoms: C_11  and  C_12 
REMARK    5  A    between atoms: C_12  and  O_13 
REMARK    6  A    between atoms: O_13  and  C_14 
REMARK    7  A    between atoms: C_17  and  C_18 
REMARK       I    between atoms: N_30  and  C_31 
ROOT
HETATM    1  C   UNL     1      27.150  43.959  51.472  1.00  0.00     0.191 C 
HETATM    2  S   UNL     1      27.051  44.679  49.896  1.00  0.00    -0.042 SA
HETATM    3  C   UNL     1      26.119  46.059  50.673  1.00  0.00     0.224 A 
HETATM    4  C   UNL     1      24.606  45.792  50.436  1.00  0.00     0.271 A 
HETATM    5  O   UNL     1      23.975  44.842  50.885  1.00  0.00    -0.269 OA
HETATM    6  N   UNL     1      24.132  46.820  49.600  1.00  0.00    -0.314 N 
HETATM    7  C   UNL     1      25.153  47.764  49.362  1.00  0.00     0.047 A 
HETATM    8  C   UNL     1      26.345  47.366  49.981  1.00  0.00     0.019 A 
HETATM    9  C   UNL     1      25.075  48.948  48.650  1.00  0.00     0.030 A 
HETATM   10  C   UNL     1      26.224  49.739  48.562  1.00  0.00     0.002 A 
HETATM   11  C   UNL     1      27.420  49.342  49.181  1.00  0.00     0.001 A 
HETATM   12  C   UNL     1      27.489  48.147  49.899  1.00  0.00     0.013 A 
HETATM   13  N   UNL     1      26.426  45.936  52.095  1.00  0.00    -0.201 N 
HETATM   14  C   UNL     1      25.958  46.846  53.029  1.00  0.00     0.238 C 
HETATM   15  C   UNL     1      26.249  46.508  54.470  1.00  0.00     0.119 C 
HETATM   16  O   UNL     1      25.335  47.864  52.731  1.00  0.00    -0.272 OA
HETATM   17  N   UNL     1      26.878  44.686  52.503  1.00  0.00    -0.141 NA
ENDROOT
BRANCH   6  18
HETATM   18  C   UNL     1      22.754  47.027  49.171  1.00  0.00     0.134 C 
BRANCH  18  19
HETATM   19  C   UNL     1      22.228  46.019  48.154  1.00  0.00     0.047 C 
BRANCH  19  20
HETATM   20  C   UNL     1      20.893  45.407  48.558  1.00  0.00     0.177 C 
BRANCH  20  21
HETATM   21  O   UNL     1      19.928  45.899  47.628  1.00  0.00    -0.351 OA
BRANCH  21  22
HETATM   22  C   UNL     1      19.520  47.193  47.757  1.00  0.00     0.068 A 
HETATM   23  C   UNL     1      19.548  48.166  46.766  1.00  0.00     0.037 A 
HETATM   24  C   UNL     1      19.088  49.464  47.036  1.00  0.00     0.011 A 
HETATM   25  C   UNL     1      18.586  49.818  48.300  1.00  0.00    -0.050 A 
HETATM   26  C   UNL     1      18.565  48.815  49.286  1.00  0.00     0.011 A 
HETATM   27  C   UNL     1      19.022  47.523  49.015  1.00  0.00     0.037 A 
BRANCH  25  28
HETATM   28  C   UNL     1      18.072  51.230  48.630  1.00  0.00    -0.024 C 
HETATM   29  C   UNL     1      16.578  51.273  49.023  1.00  0.00     0.019 C 
HETATM   30  C   UNL     1      18.873  51.809  49.816  1.00  0.00     0.019 C 
HETATM   31  C   UNL     1      18.248  52.147  47.401  1.00  0.00     0.019 C 
ENDBRANCH  25  28
ENDBRANCH  21  22
ENDBRANCH  20  21
ENDBRANCH  19  20
ENDBRANCH  18  19
ENDBRANCH   6  18
BRANCH   1  32
HETATM   32  N   UNL     1      27.523  42.647  51.465  1.00  0.00    -0.305 N 
HETATM   33  C   UNL     1      28.479  41.994  52.204  1.00  0.00     0.219 C 
HETATM   34  C   UNL     1      29.168  42.737  53.315  1.00  0.00     0.117 C 
HETATM   35  O   UNL     1      28.741  40.817  51.949  1.00  0.00    -0.274 OA
HETATM   36  H   UNL     1      27.021  42.044  50.829  1.00  0.00     0.171 HD
ENDBRANCH   1  32
TORSDOF 7
ENDMDL
MODEL 2
REMARK VINA RESULT:      -8.8     11.846     16.093
REMARK  7 active torsions:
REMARK  status: ('A' for Active; 'I' for Inactive)
REMARK       I    between atoms: C_2  and  N_3 
REMARK    1  A    between atoms: N_3  and  C_4 
REMARK    2  A    between atoms: N_9  and  C_10 
REMARK    3  A    between atoms: C_10  and  C_11 
REMARK    4  A    between atoms: C_11  and  C_12 
REMARK    5  A    between atoms: C_12  and  O_13 
REMARK    6  A    between atoms: O_13  and  C_14 
REMARK    7  A    between atoms: C_17  and  C_18 
REMARK       I    between atoms: N_30  and  C_31 
ROOT
HETATM    1  C   UNL     1      29.417  49.556  41.032  1.00  0.00     0.191 C 
HETATM    2  S   UNL     1      30.824  49.077  41.928  1.00  0.00    -0.042 SA
HETATM    3  C   UNL     1      31.537  50.724  41.535  1.00  0.00     0.224 A 
HETATM    4  C   UNL     1      32.486  50.543  40.317  1.00  0.00     0.271 A 
HETATM    5  O   UNL     1      32.139  50.197  39.194  1.00  0.00    -0.269 OA
HETATM    6  N   UNL     1      33.790  50.821  40.766  1.00  0.00    -0.314 N 
HETATM    7  C   UNL     1      33.762  51.256  42.108  1.00  0.00     0.047 A 
HETATM    8  C   UNL     1      32.452  51.225  42.607  1.00  0.00     0.019 A 
HETATM    9  C   UNL     1      34.818  51.685  42.892  1.00  0.00     0.030 A 
HETATM   10  C   UNL     1      34.543  52.087  44.203  1.00  0.00     0.002 A 
HETATM   11  C   UNL     1      33.232  52.057  44.705  1.00  0.00     0.001 A 
HETATM   12  C   UNL     1      32.172  51.623  43.906  1.00  0.00     0.013 A 
HETATM   13  N   UNL     1      30.380  51.526  41.146  1.00  0.00    -0.201 N 
HETATM   14  C   UNL     1      30.491  52.870  40.832  1.00  0.00     0.238 C 
HETATM   15  C   UNL     1      29.231  53.525  40.321  1.00  0.00     0.119 C 
HETATM   16  O   UNL     1      31.536  53.510  40.943  1.00  0.00    -0.272 OA
HETATM   17  N   UNL     1      29.261  50.804  40.747  1.00  0.00    -0.141 NA
ENDROOT
BRANCH   6  18
HETATM   18  C   UNL     1      35.002  50.855  39.955  1.00  0.00     0.134 C 
BRANCH  18  19
HETATM   19  C   UNL     1      35.331  52.206  39.329  1.00  0.00     0.047 C 
BRANCH  19  20
HETATM   20  C   UNL     1      36.800  52.344  38.951  1.00  0.00     0.177 C 
BRANCH  20  21
HETATM   21  O   UNL     1      37.247  53.576  39.518  1.00  0.00    -0.351 OA
BRANCH  21  22
HETATM   22  C   UNL     1      37.596  53.581  40.835  1.00  0.00     0.068 A 
HETATM   23  C   UNL     1      38.148  52.521  41.543  1.00  0.00     0.037 A 
HETATM   24  C   UNL     1      38.467  52.668  42.901  1.00  0.00     0.011 A 
HETATM   25  C   UNL     1      38.246  53.877  43.583  1.00  0.00    -0.050 A 
HETATM   26  C   UNL     1      37.689  54.936  42.843  1.00  0.00     0.011 A 
HETATM   27  C   UNL     1      37.373  54.789  41.491  1.00  0.00     0.037 A 
BRANCH  25  28
HETATM   28  C   UNL     1      38.585  54.073  45.070  1.00  0.00    -0.024 C 
HETATM   29  C   UNL     1      37.538  54.906  45.844  1.00  0.00     0.019 C 
HETATM   30  C   UNL     1      38.680  52.698  45.766  1.00  0.00     0.019 C 
HETATM   31  C   UNL     1      39.939  54.804  45.201  1.00  0.00     0.019 C 
ENDBRANCH  25  28
ENDBRANCH  21  22
ENDBRANCH  20  21
ENDBRANCH  19  20
ENDBRANCH  18  19
ENDBRANCH   6  18
BRANCH   1  32
HETATM   32  N   UNL     1      28.583  48.526  40.709  1.00  0.00    -0.305 N 
HETATM   33  C   UNL     1      28.595  47.683  39.624  1.00  0.00     0.219 C 
HETATM   34  C   UNL     1      29.756  47.748  38.670  1.00  0.00     0.117 C 
HETATM   35  O   UNL     1      27.665  46.891  39.464  1.00  0.00    -0.274 OA
HETATM   36  H   UNL     1      27.840  48.331  41.364  1.00  0.00     0.171 HD
ENDBRANCH   1  32
TORSDOF 7
ENDMDL
MODEL 3
REMARK VINA RESULT:      -8.6      1.585      2.187
REMARK  7 active torsions:
REMARK  status: ('A' for Active; 'I' for Inactive)
REMARK       I    between atoms: C_2  and  N_3 
REMARK    1  A    between atoms: N_3  and  C_4 
REMARK    2  A    between atoms: N_9  and  C_10 
REMARK    3  A    between atoms: C_10  and  C_11 
REMARK    4  A    between atoms: C_11  and  C_12 
REMARK    5  A    between atoms: C_12  and  O_13 
REMARK    6  A    between atoms: O_13  and  C_14 
REMARK    7  A    between atoms: C_17  and  C_18 
REMARK       I    between atoms: N_30  and  C_31 
ROOT
HETATM    1  C   UNL     1      26.819  43.857  51.238  1.00  0.00     0.191 C 
HETATM    2  S   UNL     1      26.873  44.655  49.697  1.00  0.00    -0.042 SA
HETATM    3  C   UNL     1      26.053  46.089  50.502  1.00  0.00     0.224 A 
HETATM    4  C   UNL     1      24.534  45.996  50.186  1.00  0.00     0.271 A 
HETATM    5  O   UNL     1      23.787  45.098  50.558  1.00  0.00    -0.269 OA
HETATM    6  N   UNL     1      24.211  47.106  49.384  1.00  0.00    -0.314 N 
HETATM    7  C   UNL     1      25.335  47.946  49.239  1.00  0.00     0.047 A 
HETATM    8  C   UNL     1      26.448  47.395  49.889  1.00  0.00     0.019 A 
HETATM    9  C   UNL     1      25.416  49.163  48.586  1.00  0.00     0.030 A 
HETATM   10  C   UNL     1      26.645  49.830  48.588  1.00  0.00     0.002 A 
HETATM   11  C   UNL     1      27.761  49.280  49.238  1.00  0.00     0.001 A 
HETATM   12  C   UNL     1      27.670  48.052  49.896  1.00  0.00     0.013 A 
HETATM   13  N   UNL     1      26.277  45.869  51.929  1.00  0.00    -0.201 N 
HETATM   14  C   UNL     1      25.861  46.780  52.886  1.00  0.00     0.238 C 
HETATM   15  C   UNL     1      26.044  46.346  54.319  1.00  0.00     0.119 C 
HETATM   16  O   UNL     1      25.362  47.871  52.614  1.00  0.00    -0.272 OA
HETATM   17  N   UNL     1      26.575  44.560  52.291  1.00  0.00    -0.141 NA
ENDROOT
BRANCH   6  18
HETATM   18  C   UNL     1      22.885  47.478  48.906  1.00  0.00     0.134 C 
BRANCH  18  19
HETATM   19  C   UNL     1      22.668  48.971  48.680  1.00  0.00     0.047 C 
BRANCH  19  20
HETATM   20  C   UNL     1      22.301  49.719  49.956  1.00  0.00     0.177 C 
BRANCH  20  21
HETATM   21  O   UNL     1      21.697  50.945  49.543  1.00  0.00    -0.351 OA
BRANCH  21  22
HETATM   22  C   UNL     1      20.356  50.946  49.303  1.00  0.00     0.068 A 
HETATM   23  C   UNL     1      19.432  50.037  49.802  1.00  0.00     0.037 A 
HETATM   24  C   UNL     1      18.072  50.161  49.478  1.00  0.00     0.011 A 
HETATM   25  C   UNL     1      17.605  51.197  48.651  1.00  0.00    -0.050 A 
HETATM   26  C   UNL     1      18.560  52.106  48.161  1.00  0.00     0.011 A 
HETATM   27  C   UNL     1      19.912  51.982  48.486  1.00  0.00     0.037 A 
BRANCH  25  28
HETATM   28  C   UNL     1      16.122  51.364  48.277  1.00  0.00    -0.024 C 
HETATM   29  C   UNL     1      15.396  50.029  47.993  1.00  0.00     0.019 C 
HETATM   30  C   UNL     1      15.371  52.057  49.433  1.00  0.00     0.019 C 
HETATM   31  C   UNL     1      16.003  52.229  47.003  1.00  0.00     0.019 C 
ENDBRANCH  25  28
ENDBRANCH  21  22
ENDBRANCH  20  21
ENDBRANCH  19  20
ENDBRANCH  18  19
ENDBRANCH   6  18
BRANCH   1  32
HETATM   32  N   UNL     1      27.053  42.514  51.179  1.00  0.00    -0.305 N 
HETATM   33  C   UNL     1      28.127  41.782  51.626  1.00  0.00     0.219 C 
HETATM   34  C   UNL     1      29.185  42.472  52.442  1.00  0.00     0.117 C 
HETATM   35  O   UNL     1      28.192  40.581  51.359  1.00  0.00    -0.274 OA
HETATM   36  H   UNL     1      26.330  41.953  50.753  1.00  0.00     0.171 HD
ENDBRANCH   1  32
TORSDOF 7
ENDMDL
MODEL 4
REMARK VINA RESULT:      -8.5     10.947     12.859
REMARK  7 active torsions:
REMARK  status: ('A' for Active; 'I' for Inactive)
REMARK       I    between atoms: C_2  and  N_3 
REMARK    1  A    between atoms: N_3  and  C_4 
REMARK    2  A    between atoms: N_9  and  C_10 
REMARK    3  A    between atoms: C_10  and  C_11 
REMARK    4  A    between atoms: C_11  and  C_12 
REMARK    5  A    between atoms: C_12  and  O_13 
REMARK    6  A    between atoms: O_13  and  C_14 
REMARK    7  A    between atoms: C_17  and  C_18 
REMARK       I    between atoms: N_30  and  C_31 
ROOT
HETATM    1  C   UNL     1      34.303  51.952  40.273  1.00  0.00     0.191 C 
HETATM    2  S   UNL     1      32.821  51.756  39.392  1.00  0.00    -0.042 SA
HETATM    3  C   UNL     1      32.050  51.212  40.969  1.00  0.00     0.224 A 
HETATM    4  C   UNL     1      32.032  49.658  40.967  1.00  0.00     0.271 A 
HETATM    5  O   UNL     1      33.024  48.938  40.967  1.00  0.00    -0.269 OA
HETATM    6  N   UNL     1      30.682  49.261  40.939  1.00  0.00    -0.314 N 
HETATM    7  C   UNL     1      29.840  50.390  41.022  1.00  0.00     0.047 A 
HETATM    8  C   UNL     1      30.599  51.568  41.051  1.00  0.00     0.019 A 
HETATM    9  C   UNL     1      28.459  50.424  41.089  1.00  0.00     0.030 A 
HETATM   10  C   UNL     1      27.836  51.673  41.185  1.00  0.00     0.002 A 
HETATM   11  C   UNL     1      28.594  52.854  41.214  1.00  0.00     0.001 A 
HETATM   12  C   UNL     1      29.987  52.810  41.147  1.00  0.00     0.013 A 
HETATM   13  N   UNL     1      32.967  51.696  41.997  1.00  0.00    -0.201 N 
HETATM   14  C   UNL     1      32.704  51.541  43.348  1.00  0.00     0.238 C 
HETATM   15  C   UNL     1      33.809  51.973  44.279  1.00  0.00     0.119 C 
HETATM   16  O   UNL     1      31.653  51.075  43.786  1.00  0.00    -0.272 OA
HETATM   17  N   UNL     1      34.259  51.969  41.563  1.00  0.00    -0.141 NA
ENDROOT
BRANCH   6  18
HETATM   18  C   UNL     1      30.175  47.895  41.004  1.00  0.00     0.134 C 
BRANCH  18  19
HETATM   19  C   UNL     1      30.277  47.099  39.707  1.00  0.00     0.047 C 
BRANCH  19  20
HETATM   20  C   UNL     1      28.918  46.783  39.095  1.00  0.00     0.177 C 
BRANCH  20  21
HETATM   21  O   UNL     1      28.491  47.971  38.429  1.00  0.00    -0.351 OA
BRANCH  21  22
HETATM   22  C   UNL     1      27.180  48.326  38.536  1.00  0.00     0.068 A 
HETATM   23  C   UNL     1      26.598  49.481  38.030  1.00  0.00     0.037 A 
HETATM   24  C   UNL     1      25.226  49.718  38.208  1.00  0.00     0.011 A 
HETATM   25  C   UNL     1      24.405  48.805  38.892  1.00  0.00    -0.050 A 
HETATM   26  C   UNL     1      25.017  47.642  39.392  1.00  0.00     0.011 A 
HETATM   27  C   UNL     1      26.382  47.407  39.212  1.00  0.00     0.037 A 
BRANCH  25  28
HETATM   28  C   UNL     1      22.898  49.032  39.103  1.00  0.00    -0.024 C 
HETATM   29  C   UNL     1      22.339  48.356  40.375  1.00  0.00     0.019 C 
HETATM   30  C   UNL     1      22.614  50.544  39.227  1.00  0.00     0.019 C 
HETATM   31  C   UNL     1      22.114  48.465  37.901  1.00  0.00     0.019 C 
ENDBRANCH  25  28
ENDBRANCH  21  22
ENDBRANCH  20  21
ENDBRANCH  19  20
ENDBRANCH  18  19
ENDBRANCH   6  18
BRANCH   1  32
HETATM   32  N   UNL     1      35.409  52.077  39.485  1.00  0.00    -0.305 N 
HETATM   33  C   UNL     1      35.937  53.185  38.867  1.00  0.00     0.219 C 
HETATM   34  C   UNL     1      35.344  54.533  39.171  1.00  0.00     0.117 C 
HETATM   35  O   UNL     1      36.884  53.051  38.092  1.00  0.00    -0.274 OA
HETATM   36  H   UNL     1      35.943  51.234  39.327  1.00  0.00     0.171 HD
ENDBRANCH   1  32
TORSDOF 7
ENDMDL
MODEL 5
REMARK VINA RESULT:      -8.3      2.976      6.356
REMARK  7 active torsions:
REMARK  status: ('A' for Active; 'I' for Inactive)
REMARK       I    between atoms: C_2  and  N_3 
REMARK    1  A    between atoms: N_3  and  C_4 
REMARK    2  A    between atoms: N_9  and  C_10 
REMARK    3  A    between atoms: C_10  and  C_11 
REMARK    4  A    between atoms: C_11  and  C_12 
REMARK    5  A    between atoms: C_12  and  O_13 
REMARK    6  A    between atoms: O_13  and  C_14 
REMARK    7  A    between atoms: C_17  and  C_18 
REMARK       I    between atoms: N_30  and  C_31 
ROOT
HETATM    1  C   UNL     1      27.075  43.894  51.558  1.00  0.00     0.191 C 
HETATM    2  S   UNL     1      26.977  44.572  49.963  1.00  0.00    -0.042 SA
HETATM    3  C   UNL     1      26.025  45.961  50.700  1.00  0.00     0.224 A 
HETATM    4  C   UNL     1      24.517  45.671  50.461  1.00  0.00     0.271 A 
HETATM    5  O   UNL     1      23.894  44.726  50.931  1.00  0.00    -0.269 OA
HETATM    6  N   UNL     1      24.036  46.672  49.597  1.00  0.00    -0.314 N 
HETATM    7  C   UNL     1      25.048  47.622  49.340  1.00  0.00     0.047 A 
HETATM    8  C   UNL     1      26.241  47.252  49.976  1.00  0.00     0.019 A 
HETATM    9  C   UNL     1      24.961  48.785  48.598  1.00  0.00     0.030 A 
HETATM   10  C   UNL     1      26.103  49.587  48.496  1.00  0.00     0.002 A 
HETATM   11  C   UNL     1      27.299  49.219  49.131  1.00  0.00     0.001 A 
HETATM   12  C   UNL     1      27.377  48.043  49.880  1.00  0.00     0.013 A 
HETATM   13  N   UNL     1      26.326  45.878  52.127  1.00  0.00    -0.201 N 
HETATM   14  C   UNL     1      25.842  46.806  53.034  1.00  0.00     0.238 C 
HETATM   15  C   UNL     1      26.129  46.508  54.484  1.00  0.00     0.119 C 
HETATM   16  O   UNL     1      25.210  47.810  52.707  1.00  0.00    -0.272 OA
HETATM   17  N   UNL     1      26.789  44.644  52.568  1.00  0.00    -0.141 NA
ENDROOT
BRANCH   6  18
HETATM   18  C   UNL     1      22.658  46.853  49.156  1.00  0.00     0.134 C 
BRANCH  18  19
HETATM   19  C   UNL     1      21.954  45.586  48.680  1.00  0.00     0.047 C 
BRANCH  19  20
HETATM   20  C   UNL     1      22.680  44.898  47.531  1.00  0.00     0.177 C 
BRANCH  20  21
HETATM   21  O   UNL     1      22.362  43.510  47.630  1.00  0.00    -0.351 OA
BRANCH  21  22
HETATM   22  C   UNL     1      23.395  42.622  47.683  1.00  0.00     0.068 A 
HETATM   23  C   UNL     1      24.028  42.033  46.595  1.00  0.00     0.037 A 
HETATM   24  C   UNL     1      25.089  41.137  46.796  1.00  0.00     0.011 A 
HETATM   25  C   UNL     1      25.543  40.811  48.085  1.00  0.00    -0.050 A 
HETATM   26  C   UNL     1      24.888  41.422  49.169  1.00  0.00     0.011 A 
HETATM   27  C   UNL     1      23.833  42.316  48.968  1.00  0.00     0.037 A 
BRANCH  25  28
HETATM   28  C   UNL     1      26.704  39.834  48.341  1.00  0.00    -0.024 C 
HETATM   29  C   UNL     1      26.629  39.122  49.710  1.00  0.00     0.019 C 
HETATM   30  C   UNL     1      26.707  38.737  47.254  1.00  0.00     0.019 C 
HETATM   31  C   UNL     1      28.044  40.598  48.295  1.00  0.00     0.019 C 
ENDBRANCH  25  28
ENDBRANCH  21  22
ENDBRANCH  20  21
ENDBRANCH  19  20
ENDBRANCH  18  19
ENDBRANCH   6  18
BRANCH   1  32
HETATM   32  N   UNL     1      27.462  42.586  51.586  1.00  0.00    -0.305 N 
HETATM   33  C   UNL     1      28.633  42.018  52.027  1.00  0.00     0.219 C 
HETATM   34  C   UNL     1      29.638  42.887  52.732  1.00  0.00     0.117 C 
HETATM   35  O   UNL     1      28.827  40.816  51.846  1.00  0.00    -0.274 OA
HETATM   36  H   UNL     1      26.792  41.914  51.241  1.00  0.00     0.171 HD
ENDBRANCH   1  32
TORSDOF 7
ENDMDL
MODEL 6
REMARK VINA RESULT:      -8.3      4.499     10.015
REMARK  7 active torsions:
REMARK  status: ('A' for Active; 'I' for Inactive)
REMARK       I    between atoms: C_2  and  N_3 
REMARK    1  A    between atoms: N_3  and  C_4 
REMARK    2  A    between atoms: N_9  and  C_10 
REMARK    3  A    between atoms: C_10  and  C_11 
REMARK    4  A    between atoms: C_11  and  C_12 
REMARK    5  A    between atoms: C_12  and  O_13 
REMARK    6  A    between atoms: O_13  and  C_14 
REMARK    7  A    between atoms: C_17  and  C_18 
REMARK       I    between atoms: N_30  and  C_31 
ROOT
HETATM    1  C   UNL     1      16.167  51.644  48.928  1.00  0.00     0.191 C 
HETATM    2  S   UNL     1      17.474  51.073  49.917  1.00  0.00    -0.042 SA
HETATM    3  C   UNL     1      18.262  50.453  48.376  1.00  0.00     0.224 A 
HETATM    4  C   UNL     1      17.938  48.937  48.264  1.00  0.00     0.271 A 
HETATM    5  O   UNL     1      16.818  48.460  48.126  1.00  0.00    -0.269 OA
HETATM    6  N   UNL     1      19.158  48.245  48.380  1.00  0.00    -0.314 N 
HETATM    7  C   UNL     1      20.231  49.158  48.453  1.00  0.00     0.047 A 
HETATM    8  C   UNL     1      19.756  50.477  48.446  1.00  0.00     0.019 A 
HETATM    9  C   UNL     1      21.586  48.884  48.508  1.00  0.00     0.030 A 
HETATM   10  C   UNL     1      22.474  49.964  48.559  1.00  0.00     0.002 A 
HETATM   11  C   UNL     1      22.000  51.285  48.552  1.00  0.00     0.001 A 
HETATM   12  C   UNL     1      20.631  51.553  48.496  1.00  0.00     0.013 A 
HETATM   13  N   UNL     1      17.581  51.186  47.312  1.00  0.00    -0.201 N 
HETATM   14  C   UNL     1      17.938  51.047  45.981  1.00  0.00     0.238 C 
HETATM   15  C   UNL     1      17.053  51.765  44.993  1.00  0.00     0.119 C 
HETATM   16  O   UNL     1      18.900  50.380  45.602  1.00  0.00    -0.272 OA
HETATM   17  N   UNL     1      16.343  51.719  47.653  1.00  0.00    -0.141 NA
ENDROOT
BRANCH   6  18
HETATM   18  C   UNL     1      19.357  46.806  48.257  1.00  0.00     0.134 C 
BRANCH  18  19
HETATM   19  C   UNL     1      19.719  46.314  46.860  1.00  0.00     0.047 C 
BRANCH  19  20
HETATM   20  C   UNL     1      21.081  45.634  46.802  1.00  0.00     0.177 C 
BRANCH  20  21
HETATM   21  O   UNL     1      21.179  44.831  47.978  1.00  0.00    -0.351 OA
BRANCH  21  22
HETATM   22  C   UNL     1      22.275  44.994  48.772  1.00  0.00     0.068 A 
HETATM   23  C   UNL     1      23.128  46.090  48.780  1.00  0.00     0.037 A 
HETATM   24  C   UNL     1      24.220  46.129  49.660  1.00  0.00     0.011 A 
HETATM   25  C   UNL     1      24.484  45.077  50.552  1.00  0.00    -0.050 A 
HETATM   26  C   UNL     1      23.604  43.979  50.527  1.00  0.00     0.011 A 
HETATM   27  C   UNL     1      22.516  43.943  49.652  1.00  0.00     0.037 A 
BRANCH  25  28
HETATM   28  C   UNL     1      25.671  45.087  51.531  1.00  0.00    -0.024 C 
HETATM   29  C   UNL     1      27.008  44.648  50.893  1.00  0.00     0.019 C 
HETATM   30  C   UNL     1      25.875  46.514  52.083  1.00  0.00     0.019 C 
HETATM   31  C   UNL     1      25.385  44.125  52.704  1.00  0.00     0.019 C 
ENDBRANCH  25  28
ENDBRANCH  21  22
ENDBRANCH  20  21
ENDBRANCH  19  20
ENDBRANCH  18  19
ENDBRANCH   6  18
BRANCH   1  32
HETATM   32  N   UNL     1      15.042  51.972  49.626  1.00  0.00    -0.305 N 
HETATM   33  C   UNL     1      14.723  53.125  50.301  1.00  0.00     0.219 C 
HETATM   34  C   UNL     1      15.642  54.310  50.184  1.00  0.00     0.117 C 
HETATM   35  O   UNL     1      13.692  53.167  50.974  1.00  0.00    -0.274 OA
HETATM   36  H   UNL     1      14.313  51.273  49.653  1.00  0.00     0.171 HD
ENDBRANCH   1  32
TORSDOF 7
ENDMDL
MODEL 7
REMARK VINA RESULT:      -8.2      1.780      2.455
REMARK  7 active torsions:
REMARK  status: ('A' for Active; 'I' for Inactive)
REMARK       I    between atoms: C_2  and  N_3 
REMARK    1  A    between atoms: N_3  and  C_4 
REMARK    2  A    between atoms: N_9  and  C_10 
REMARK    3  A    between atoms: C_10  and  C_11 
REMARK    4  A    between atoms: C_11  and  C_12 
REMARK    5  A    between atoms: C_12  and  O_13 
REMARK    6  A    between atoms: O_13  and  C_14 
REMARK    7  A    between atoms: C_17  and  C_18 
REMARK       I    between atoms: N_30  and  C_31 
ROOT
HETATM    1  C   UNL     1      27.578  42.265  50.981  1.00  0.00     0.191 C 
HETATM    2  S   UNL     1      27.090  43.273  49.656  1.00  0.00    -0.042 SA
HETATM    3  C   UNL     1      25.889  44.060  50.803  1.00  0.00     0.224 A 
HETATM    4  C   UNL     1      24.506  43.396  50.557  1.00  0.00     0.271 A 
HETATM    5  O   UNL     1      24.239  42.217  50.761  1.00  0.00    -0.269 OA
HETATM    6  N   UNL     1      23.656  44.392  50.041  1.00  0.00    -0.314 N 
HETATM    7  C   UNL     1      24.318  45.638  50.025  1.00  0.00     0.047 A 
HETATM    8  C   UNL     1      25.639  45.498  50.474  1.00  0.00     0.019 A 
HETATM    9  C   UNL     1      23.813  46.871  49.654  1.00  0.00     0.030 A 
HETATM   10  C   UNL     1      24.660  47.980  49.738  1.00  0.00     0.002 A 
HETATM   11  C   UNL     1      25.983  47.843  50.187  1.00  0.00     0.001 A 
HETATM   12  C   UNL     1      26.484  46.595  50.560  1.00  0.00     0.013 A 
HETATM   13  N   UNL     1      26.382  43.703  52.131  1.00  0.00    -0.201 N 
HETATM   14  C   UNL     1      25.777  44.167  53.287  1.00  0.00     0.238 C 
HETATM   15  C   UNL     1      26.320  43.601  54.576  1.00  0.00     0.119 C 
HETATM   16  O   UNL     1      24.852  44.977  53.292  1.00  0.00    -0.272 OA
HETATM   17  N   UNL     1      27.226  42.599  52.176  1.00  0.00    -0.141 NA
ENDROOT
BRANCH   6  18
HETATM   18  C   UNL     1      22.238  44.251  49.731  1.00  0.00     0.134 C 
BRANCH  18  19
HETATM   19  C   UNL     1      21.915  43.952  48.271  1.00  0.00     0.047 C 
BRANCH  19  20
HETATM   20  C   UNL     1      20.941  44.952  47.660  1.00  0.00     0.177 C 
BRANCH  20  21
HETATM   21  O   UNL     1      21.560  46.234  47.769  1.00  0.00    -0.351 OA
BRANCH  21  22
HETATM   22  C   UNL     1      20.757  47.313  47.987  1.00  0.00     0.068 A 
HETATM   23  C   UNL     1      19.542  47.310  48.661  1.00  0.00     0.037 A 
HETATM   24  C   UNL     1      18.819  48.502  48.819  1.00  0.00     0.011 A 
HETATM   25  C   UNL     1      19.293  49.723  48.310  1.00  0.00    -0.050 A 
HETATM   26  C   UNL     1      20.526  49.700  47.634  1.00  0.00     0.011 A 
HETATM   27  C   UNL     1      21.246  48.513  47.480  1.00  0.00     0.037 A 
BRANCH  25  28
HETATM   28  C   UNL     1      18.527  51.048  48.466  1.00  0.00    -0.024 C 
HETATM   29  C   UNL     1      19.437  52.298  48.465  1.00  0.00     0.019 C 
HETATM   30  C   UNL     1      17.527  51.209  47.301  1.00  0.00     0.019 C 
HETATM   31  C   UNL     1      17.754  51.046  49.803  1.00  0.00     0.019 C 
ENDBRANCH  25  28
ENDBRANCH  21  22
ENDBRANCH  20  21
ENDBRANCH  19  20
ENDBRANCH  18  19
ENDBRANCH   6  18
BRANCH   1  32
HETATM   32  N   UNL     1      28.318  41.179  50.614  1.00  0.00    -0.305 N 
HETATM   33  C   UNL     1      27.917  39.938  50.182  1.00  0.00     0.219 C 
HETATM   34  C   UNL     1      26.456  39.705  49.909  1.00  0.00     0.117 C 
HETATM   35  O   UNL     1      28.758  39.054  50.017  1.00  0.00    -0.274 OA
HETATM   36  H   UNL     1      29.321  41.290  50.649  1.00  0.00     0.171 HD
ENDBRANCH   1  32
TORSDOF 7
ENDMDL
MODEL 8
REMARK VINA RESULT:      -8.0     12.184     16.755
REMARK  7 active torsions:
REMARK  status: ('A' for Active; 'I' for Inactive)
REMARK       I    between atoms: C_2  and  N_3 
REMARK    1  A    between atoms: N_3  and  C_4 
REMARK    2  A    between atoms: N_9  and  C_10 
REMARK    3  A    between atoms: C_10  and  C_11 
REMARK    4  A    between atoms: C_11  and  C_12 
REMARK    5  A    between atoms: C_12  and  O_13 
REMARK    6  A    between atoms: O_13  and  C_14 
REMARK    7  A    between atoms: C_17  and  C_18 
REMARK       I    between atoms: N_30  and  C_31 
ROOT
HETATM    1  C   UNL     1      29.539  50.044  39.666  1.00  0.00     0.191 C 
HETATM    2  S   UNL     1      30.740  49.374  40.726  1.00  0.00    -0.042 SA
HETATM    3  C   UNL     1      31.490  51.050  40.803  1.00  0.00     0.224 A 
HETATM    4  C   UNL     1      32.673  51.078  39.794  1.00  0.00     0.271 A 
HETATM    5  O   UNL     1      32.570  50.956  38.579  1.00  0.00    -0.269 OA
HETATM    6  N   UNL     1      33.852  51.238  40.545  1.00  0.00    -0.314 N 
HETATM    7  C   UNL     1      33.540  51.415  41.910  1.00  0.00     0.047 A 
HETATM    8  C   UNL     1      32.157  51.321  42.115  1.00  0.00     0.019 A 
HETATM    9  C   UNL     1      34.405  51.667  42.960  1.00  0.00     0.030 A 
HETATM   10  C   UNL     1      33.859  51.824  44.238  1.00  0.00     0.002 A 
HETATM   11  C   UNL     1      32.474  51.730  44.446  1.00  0.00     0.001 A 
HETATM   12  C   UNL     1      31.609  51.477  43.380  1.00  0.00     0.013 A 
HETATM   13  N   UNL     1      30.425  51.936  40.342  1.00  0.00    -0.201 N 
HETATM   14  C   UNL     1      30.576  53.312  40.315  1.00  0.00     0.238 C 
HETATM   15  C   UNL     1      29.437  54.078  39.688  1.00  0.00     0.119 C 
HETATM   16  O   UNL     1      31.564  53.896  40.755  1.00  0.00    -0.272 OA
HETATM   17  N   UNL     1      29.424  51.326  39.594  1.00  0.00    -0.141 NA
ENDROOT
BRANCH   6  18
HETATM   18  C   UNL     1      35.203  51.395  40.021  1.00  0.00     0.134 C 
BRANCH  18  19
HETATM   19  C   UNL     1      35.609  52.826  39.682  1.00  0.00     0.047 C 
BRANCH  19  20
HETATM   20  C   UNL     1      36.576  53.426  40.696  1.00  0.00     0.177 C 
BRANCH  20  21
HETATM   21  O   UNL     1      37.843  52.814  40.453  1.00  0.00    -0.351 OA
BRANCH  21  22
HETATM   22  C   UNL     1      38.352  51.998  41.419  1.00  0.00     0.068 A 
HETATM   23  C   UNL     1      37.849  51.833  42.703  1.00  0.00     0.037 A 
HETATM   24  C   UNL     1      38.471  50.949  43.598  1.00  0.00     0.011 A 
HETATM   25  C   UNL     1      39.608  50.209  43.230  1.00  0.00    -0.050 A 
HETATM   26  C   UNL     1      40.096  50.392  41.923  1.00  0.00     0.011 A 
HETATM   27  C   UNL     1      39.473  51.270  41.033  1.00  0.00     0.037 A 
BRANCH  25  28
HETATM   28  C   UNL     1      40.314  49.231  44.184  1.00  0.00    -0.024 C 
HETATM   29  C   UNL     1      39.396  48.108  44.718  1.00  0.00     0.019 C 
HETATM   30  C   UNL     1      41.490  48.550  43.451  1.00  0.00     0.019 C 
HETATM   31  C   UNL     1      40.855  50.000  45.408  1.00  0.00     0.019 C 
ENDBRANCH  25  28
ENDBRANCH  21  22
ENDBRANCH  20  21
ENDBRANCH  19  20
ENDBRANCH  18  19
ENDBRANCH   6  18
BRANCH   1  32
HETATM   32  N   UNL     1      28.807  49.111  38.992  1.00  0.00    -0.305 N 
HETATM   33  C   UNL     1      27.659  48.451  39.360  1.00  0.00     0.219 C 
HETATM   34  C   UNL     1      26.959  48.866  40.624  1.00  0.00     0.117 C 
HETATM   35  O   UNL     1      27.226  47.548  38.643  1.00  0.00    -0.274 OA
HETATM   36  H   UNL     1      29.141  48.860  38.073  1.00  0.00     0.171 HD
ENDBRANCH   1  32
TORSDOF 7
ENDMDL
MODEL 9
REMARK VINA RESULT:      -8.0     11.176     14.994
REMARK  7 active torsions:
REMARK  status: ('A' for Active; 'I' for Inactive)
REMARK       I    between atoms: C_2  and  N_3 
REMARK    1  A    between atoms: N_3  and  C_4 
REMARK    2  A    between atoms: N_9  and  C_10 
REMARK    3  A    between atoms: C_10  and  C_11 
REMARK    4  A    between atoms: C_11  and  C_12 
REMARK    5  A    between atoms: C_12  and  O_13 
REMARK    6  A    between atoms: O_13  and  C_14 
REMARK    7  A    between atoms: C_17  and  C_18 
REMARK       I    between atoms: N_30  and  C_31 
ROOT
HETATM    1  C   UNL     1      27.639  46.928  40.185  1.00  0.00     0.191 C 
HETATM    2  S   UNL     1      28.571  48.016  41.165  1.00  0.00    -0.042 SA
HETATM    3  C   UNL     1      28.397  49.251  39.815  1.00  0.00     0.224 A 
HETATM    4  C   UNL     1      29.699  49.202  38.968  1.00  0.00     0.271 A 
HETATM    5  O   UNL     1      30.084  48.239  38.315  1.00  0.00    -0.269 OA
HETATM    6  N   UNL     1      30.341  50.445  39.125  1.00  0.00    -0.314 N 
HETATM    7  C   UNL     1      29.539  51.313  39.897  1.00  0.00     0.047 A 
HETATM    8  C   UNL     1      28.375  50.658  40.323  1.00  0.00     0.019 A 
HETATM    9  C   UNL     1      29.779  52.635  40.223  1.00  0.00     0.030 A 
HETATM   10  C   UNL     1      28.824  53.305  40.995  1.00  0.00     0.002 A 
HETATM   11  C   UNL     1      27.657  52.652  41.422  1.00  0.00     0.001 A 
HETATM   12  C   UNL     1      27.424  51.317  41.088  1.00  0.00     0.013 A 
HETATM   13  N   UNL     1      27.273  48.755  39.025  1.00  0.00    -0.201 N 
HETATM   14  C   UNL     1      26.778  49.453  37.935  1.00  0.00     0.238 C 
HETATM   15  C   UNL     1      25.706  48.746  37.144  1.00  0.00     0.119 C 
HETATM   16  O   UNL     1      27.175  50.569  37.606  1.00  0.00    -0.272 OA
HETATM   17  N   UNL     1      26.983  47.405  39.182  1.00  0.00    -0.141 NA
ENDROOT
BRANCH   6  18
HETATM   18  C   UNL     1      31.558  50.887  38.456  1.00  0.00     0.134 C 
BRANCH  18  19
HETATM   19  C   UNL     1      32.855  50.603  39.207  1.00  0.00     0.047 C 
BRANCH  19  20
HETATM   20  C   UNL     1      33.089  51.556  40.372  1.00  0.00     0.177 C 
BRANCH  20  21
HETATM   21  O   UNL     1      33.740  50.795  41.389  1.00  0.00    -0.351 OA
BRANCH  21  22
HETATM   22  C   UNL     1      34.668  51.426  42.161  1.00  0.00     0.068 A 
HETATM   23  C   UNL     1      34.519  51.788  43.494  1.00  0.00     0.037 A 
HETATM   24  C   UNL     1      35.565  52.430  44.174  1.00  0.00     0.011 A 
HETATM   25  C   UNL     1      36.785  52.722  43.539  1.00  0.00    -0.050 A 
HETATM   26  C   UNL     1      36.912  52.344  42.191  1.00  0.00     0.011 A 
HETATM   27  C   UNL     1      35.871  51.703  41.516  1.00  0.00     0.037 A 
BRANCH  25  28
HETATM   28  C   UNL     1      37.953  53.423  44.254  1.00  0.00    -0.024 C 
HETATM   29  C   UNL     1      38.917  54.160  43.298  1.00  0.00     0.019 C 
HETATM   30  C   UNL     1      37.400  54.472  45.244  1.00  0.00     0.019 C 
HETATM   31  C   UNL     1      38.786  52.381  45.031  1.00  0.00     0.019 C 
ENDBRANCH  25  28
ENDBRANCH  21  22
ENDBRANCH  20  21
ENDBRANCH  19  20
ENDBRANCH  18  19
ENDBRANCH   6  18
BRANCH   1  32
HETATM   32  N   UNL     1      27.691  45.627  40.592  1.00  0.00    -0.305 N 
HETATM   33  C   UNL     1      28.317  44.545  40.021  1.00  0.00     0.219 C 
HETATM   34  C   UNL     1      29.222  44.772  38.842  1.00  0.00     0.117 C 
HETATM   35  O   UNL     1      28.133  43.422  40.493  1.00  0.00    -0.274 OA
HETATM   36  H   UNL     1      27.208  45.407  41.451  1.00  0.00     0.171 HD
ENDBRANCH   1  32
TORSDOF 7
ENDMDL
MODEL 10
REMARK VINA RESULT:      -7.9      4.858      8.005
REMARK  7 active torsions:
REMARK  status: ('A' for Active; 'I' for Inactive)
REMARK       I    between atoms: C_2  and  N_3 
REMARK    1  A    between atoms: N_3  and  C_4 
REMARK    2  A    between atoms: N_9  and  C_10 
REMARK    3  A    between atoms: C_10  and  C_11 
REMARK    4  A    between atoms: C_11  and  C_12 
REMARK    5  A    between atoms: C_12  and  O_13 
REMARK    6  A    between atoms: O_13  and  C_14 
REMARK    7  A    between atoms: C_17  and  C_18 
REMARK       I    between atoms: N_30  and  C_31 
ROOT
HETATM    1  C   UNL     1      18.099  46.904  45.151  1.00  0.00     0.191 C 
HETATM    2  S   UNL     1      19.775  46.462  45.064  1.00  0.00    -0.042 SA
HETATM    3  C   UNL     1      19.887  46.851  46.857  1.00  0.00     0.224 A 
HETATM    4  C   UNL     1      20.469  48.286  46.988  1.00  0.00     0.271 A 
HETATM    5  O   UNL     1      19.926  49.310  46.591  1.00  0.00    -0.269 OA
HETATM    6  N   UNL     1      21.725  48.166  47.611  1.00  0.00    -0.314 N 
HETATM    7  C   UNL     1      21.960  46.824  47.981  1.00  0.00     0.047 A 
HETATM    8  C   UNL     1      20.899  46.007  47.565  1.00  0.00     0.019 A 
HETATM    9  C   UNL     1      23.040  46.303  48.669  1.00  0.00     0.030 A 
HETATM   10  C   UNL     1      23.047  44.931  48.939  1.00  0.00     0.002 A 
HETATM   11  C   UNL     1      21.986  44.110  48.524  1.00  0.00     0.001 A 
HETATM   12  C   UNL     1      20.899  44.646  47.830  1.00  0.00     0.013 A 
HETATM   13  N   UNL     1      18.498  46.837  47.308  1.00  0.00    -0.201 N 
HETATM   14  C   UNL     1      18.157  47.024  48.638  1.00  0.00     0.238 C 
HETATM   15  C   UNL     1      16.678  47.116  48.923  1.00  0.00     0.119 C 
HETATM   16  O   UNL     1      18.983  47.123  49.544  1.00  0.00    -0.272 OA
HETATM   17  N   UNL     1      17.544  47.004  46.311  1.00  0.00    -0.141 NA
ENDROOT
BRANCH   6  18
HETATM   18  C   UNL     1      22.606  49.257  48.010  1.00  0.00     0.134 C 
BRANCH  18  19
HETATM   19  C   UNL     1      22.561  49.624  49.490  1.00  0.00     0.047 C 
BRANCH  19  20
HETATM   20  C   UNL     1      22.261  51.099  49.728  1.00  0.00     0.177 C 
BRANCH  20  21
HETATM   21  O   UNL     1      21.058  51.145  50.495  1.00  0.00    -0.351 OA
BRANCH  21  22
HETATM   22  C   UNL     1      19.875  51.201  49.822  1.00  0.00     0.068 A 
HETATM   23  C   UNL     1      18.715  50.506  50.140  1.00  0.00     0.037 A 
HETATM   24  C   UNL     1      17.559  50.666  49.361  1.00  0.00     0.011 A 
HETATM   25  C   UNL     1      17.534  51.524  48.249  1.00  0.00    -0.050 A 
HETATM   26  C   UNL     1      18.720  52.219  47.949  1.00  0.00     0.011 A 
HETATM   27  C   UNL     1      19.869  52.061  48.727  1.00  0.00     0.037 A 
BRANCH  25  28
HETATM   28  C   UNL     1      16.285  51.724  47.374  1.00  0.00    -0.024 C 
HETATM   29  C   UNL     1      15.533  50.412  47.053  1.00  0.00     0.019 C 
HETATM   30  C   UNL     1      15.290  52.657  48.096  1.00  0.00     0.019 C 
HETATM   31  C   UNL     1      16.691  52.359  46.026  1.00  0.00     0.019 C 
ENDBRANCH  25  28
ENDBRANCH  21  22
ENDBRANCH  20  21
ENDBRANCH  19  20
ENDBRANCH  18  19
ENDBRANCH   6  18
BRANCH   1  32
HETATM   32  N   UNL     1      17.511  47.106  43.936  1.00  0.00    -0.305 N 
HETATM   33  C   UNL     1      17.309  48.268  43.231  1.00  0.00     0.219 C 
HETATM   34  C   UNL     1      17.927  49.540  43.742  1.00  0.00     0.117 C 
HETATM   35  O   UNL     1      16.641  48.239  42.197  1.00  0.00    -0.274 OA
HETATM   36  H   UNL     1      17.174  46.281  43.461  1.00  0.00     0.171 HD
ENDBRANCH   1  32
TORSDOF 7
ENDMDL
