MODEL 1
REMARK VINA RESULT:      -9.9      0.000      0.000
REMARK  9 active torsions:
REMARK  status: ('A' for Active; 'I' for Inactive)
REMARK    1  A    between atoms: C_2  and  C_3 
REMARK    2  A    between atoms: C_4  and  N_5 
REMARK       I    between atoms: N_5  and  C_6 
REMARK    3  A    between atoms: C_6  and  C_7 
REMARK    4  A    between atoms: C_7  and  S_8 
REMARK    5  A    between atoms: S_8  and  C_9 
REMARK    6  A    between atoms: C_13  and  C_14 
REMARK       I    between atoms: C_14  and  N_15 
REMARK    7  A    between atoms: N_15  and  C_16 
REMARK    8  A    between atoms: C_17  and  O_18 
REMARK    9  A    between atoms: C_25  and  C_26 
ROOT
HETATM    1  C   UNL     1      23.618  46.629  49.588  1.00  0.00     0.088 C 
HETATM    2  N   UNL     1      22.713  45.596  49.407  1.00  0.00    -0.353 N 
HETATM    3  C   UNL     1      21.881  45.496  48.293  1.00  0.00     0.019 C 
HETATM    4  C   UNL     1      21.555  44.074  47.907  1.00  0.00     0.069 C 
HETATM    5  C   UNL     1      21.571  46.610  47.583  1.00  0.00     0.046 C 
HETATM    6  C   UNL     1      22.257  47.943  47.955  1.00  0.00     0.106 C 
HETATM    7  C   UNL     1      23.438  47.792  48.922  1.00  0.00     0.069 C 
HETATM    8  C   UNL     1      24.368  48.874  48.977  1.00  0.00     0.099 C 
HETATM    9  N   UNL     1      25.113  49.763  49.012  1.00  0.00    -0.192 NA
HETATM   10  H   UNL     1      23.070  44.711  49.762  1.00  0.00     0.166 HD
ENDROOT
BRANCH   1  11
HETATM   11  S   UNL     1      25.082  46.286  50.484  1.00  0.00    -0.102 SA
BRANCH  11  12
HETATM   12  C   UNL     1      24.786  44.606  51.117  1.00  0.00     0.184 C 
BRANCH  12  13
HETATM   13  C   UNL     1      25.357  44.536  52.533  1.00  0.00     0.231 C 
HETATM   14  N   UNL     1      26.701  44.880  52.587  1.00  0.00    -0.326 N 
HETATM   15  H   UNL     1      27.176  44.953  51.699  1.00  0.00     0.169 HD
HETATM   16  O   UNL     1      24.659  44.196  53.484  1.00  0.00    -0.272 OA
BRANCH  14  17
HETATM   17  C   UNL     1      27.446  45.272  53.724  1.00  0.00     0.041 A 
HETATM   18  C   UNL     1      28.461  44.419  54.211  1.00  0.00    -0.032 A 
HETATM   19  C   UNL     1      29.281  44.860  55.268  1.00  0.00     0.009 A 
HETATM   20  C   UNL     1      29.094  46.113  55.847  1.00  0.00     0.001 A 
HETATM   21  C   UNL     1      28.080  46.940  55.382  1.00  0.00     0.002 A 
HETATM   22  C   UNL     1      27.262  46.521  54.330  1.00  0.00     0.030 A 
BRANCH  18  23
HETATM   23  C   UNL     1      28.725  43.036  53.654  1.00  0.00     0.036 C 
HETATM   24  C   UNL     1      30.187  42.825  53.293  1.00  0.00     0.010 C 
ENDBRANCH  18  23
ENDBRANCH  14  17
ENDBRANCH  12  13
ENDBRANCH  11  12
ENDBRANCH   1  11
BRANCH   6  25
HETATM   25  C   UNL     1      21.301  49.039  48.421  1.00  0.00    -0.044 A 
HETATM   26  C   UNL     1      20.449  48.863  49.519  1.00  0.00     0.008 A 
HETATM   27  C   UNL     1      19.642  49.913  49.966  1.00  0.00     0.001 A 
HETATM   28  C   UNL     1      19.678  51.149  49.324  1.00  0.00     0.000 A 
HETATM   29  C   UNL     1      20.522  51.340  48.233  1.00  0.00     0.001 A 
HETATM   30  C   UNL     1      21.327  50.293  47.784  1.00  0.00     0.008 A 
ENDBRANCH   6  25
BRANCH   5  31
HETATM   31  C   UNL     1      20.895  46.649  46.244  1.00  0.00     0.255 C 
HETATM   32  N   UNL     1      19.578  46.895  46.022  1.00  0.00    -0.321 N 
HETATM   33  H   UNL     1      19.318  46.543  45.108  1.00  0.00     0.169 HD
HETATM   34  O   UNL     1      21.553  46.306  45.253  1.00  0.00    -0.268 OA
BRANCH  32  35
HETATM   35  C   UNL     1      18.539  47.495  46.750  1.00  0.00     0.068 A 
HETATM   36  C   UNL     1      18.076  48.805  46.585  1.00  0.00     0.095 A 
HETATM   37  C   UNL     1      17.078  49.304  47.436  1.00  0.00     0.039 A 
HETATM   38  C   UNL     1      16.490  48.483  48.399  1.00  0.00     0.003 A 
HETATM   39  C   UNL     1      16.887  47.155  48.510  1.00  0.00     0.002 A 
HETATM   40  C   UNL     1      17.897  46.663  47.682  1.00  0.00     0.032 A 
BRANCH  36  41
HETATM   41  O   UNL     1      18.572  49.567  45.562  1.00  0.00    -0.354 OA
HETATM   42  C   UNL     1      17.990  50.872  45.527  1.00  0.00     0.210 C 
ENDBRANCH  36  41
ENDBRANCH  32  35
ENDBRANCH   5  31
TORSDOF 9
ENDMDL
MODEL 2
REMARK VINA RESULT:      -9.7      0.645      1.620
REMARK  9 active torsions:
REMARK  status: ('A' for Active; 'I' for Inactive)
REMARK    1  A    between atoms: C_2  and  C_3 
REMARK    2  A    between atoms: C_4  and  N_5 
REMARK       I    between atoms: N_5  and  C_6 
REMARK    3  A    between atoms: C_6  and  C_7 
REMARK    4  A    between atoms: C_7  and  S_8 
REMARK    5  A    between atoms: S_8  and  C_9 
REMARK    6  A    between atoms: C_13  and  C_14 
REMARK       I    between atoms: C_14  and  N_15 
REMARK    7  A    between atoms: N_15  and  C_16 
REMARK    8  A    between atoms: C_17  and  O_18 
REMARK    9  A    between atoms: C_25  and  C_26 
ROOT
HETATM    1  C   UNL     1      23.690  46.734  49.567  1.00  0.00     0.088 C 
HETATM    2  N   UNL     1      22.815  45.671  49.409  1.00  0.00    -0.353 N 
HETATM    3  C   UNL     1      21.973  45.533  48.307  1.00  0.00     0.019 C 
HETATM    4  C   UNL     1      21.686  44.097  47.942  1.00  0.00     0.069 C 
HETATM    5  C   UNL     1      21.620  46.628  47.589  1.00  0.00     0.046 C 
HETATM    6  C   UNL     1      22.269  47.986  47.936  1.00  0.00     0.106 C 
HETATM    7  C   UNL     1      23.466  47.883  48.890  1.00  0.00     0.069 C 
HETATM    8  C   UNL     1      24.363  48.993  48.920  1.00  0.00     0.099 C 
HETATM    9  N   UNL     1      25.080  49.905  48.936  1.00  0.00    -0.192 NA
HETATM   10  H   UNL     1      23.203  44.802  49.770  1.00  0.00     0.166 HD
ENDROOT
BRANCH   1  11
HETATM   11  S   UNL     1      25.175  46.447  50.449  1.00  0.00    -0.102 SA
BRANCH  11  12
HETATM   12  C   UNL     1      24.683  45.196  51.675  1.00  0.00     0.184 C 
BRANCH  12  13
HETATM   13  C   UNL     1      25.867  44.252  51.876  1.00  0.00     0.231 C 
HETATM   14  N   UNL     1      27.004  44.908  52.331  1.00  0.00    -0.326 N 
HETATM   15  H   UNL     1      26.976  45.916  52.299  1.00  0.00     0.169 HD
HETATM   16  O   UNL     1      25.772  43.052  51.638  1.00  0.00    -0.272 OA
BRANCH  14  17
HETATM   17  C   UNL     1      28.137  44.337  52.957  1.00  0.00     0.041 A 
HETATM   18  C   UNL     1      28.406  44.644  54.309  1.00  0.00    -0.032 A 
HETATM   19  C   UNL     1      29.463  43.985  54.967  1.00  0.00     0.009 A 
HETATM   20  C   UNL     1      30.253  43.052  54.299  1.00  0.00     0.001 A 
HETATM   21  C   UNL     1      30.001  42.769  52.963  1.00  0.00     0.002 A 
HETATM   22  C   UNL     1      28.952  43.408  52.297  1.00  0.00     0.030 A 
BRANCH  18  23
HETATM   23  C   UNL     1      27.612  45.656  55.107  1.00  0.00     0.036 C 
HETATM   24  C   UNL     1      28.299  47.011  55.173  1.00  0.00     0.010 C 
ENDBRANCH  18  23
ENDBRANCH  14  17
ENDBRANCH  12  13
ENDBRANCH  11  12
ENDBRANCH   1  11
BRANCH   6  25
HETATM   25  C   UNL     1      21.286  49.058  48.401  1.00  0.00    -0.044 A 
HETATM   26  C   UNL     1      20.430  48.856  49.492  1.00  0.00     0.008 A 
HETATM   27  C   UNL     1      19.596  49.885  49.939  1.00  0.00     0.001 A 
HETATM   28  C   UNL     1      19.609  51.126  49.305  1.00  0.00     0.000 A 
HETATM   29  C   UNL     1      20.457  51.342  48.222  1.00  0.00     0.001 A 
HETATM   30  C   UNL     1      21.289  50.316  47.773  1.00  0.00     0.008 A 
ENDBRANCH   6  25
BRANCH   5  31
HETATM   31  C   UNL     1      20.927  46.631  46.257  1.00  0.00     0.255 C 
HETATM   32  N   UNL     1      19.600  46.835  46.049  1.00  0.00    -0.321 N 
HETATM   33  H   UNL     1      19.340  46.464  45.143  1.00  0.00     0.169 HD
HETATM   34  O   UNL     1      21.582  46.296  45.262  1.00  0.00    -0.268 OA
BRANCH  32  35
HETATM   35  C   UNL     1      18.553  47.413  46.783  1.00  0.00     0.068 A 
HETATM   36  C   UNL     1      18.001  48.679  46.560  1.00  0.00     0.095 A 
HETATM   37  C   UNL     1      17.005  49.166  47.421  1.00  0.00     0.039 A 
HETATM   38  C   UNL     1      16.508  48.371  48.454  1.00  0.00     0.003 A 
HETATM   39  C   UNL     1      16.994  47.080  48.627  1.00  0.00     0.002 A 
HETATM   40  C   UNL     1      18.002  46.602  47.788  1.00  0.00     0.032 A 
BRANCH  36  41
HETATM   41  O   UNL     1      18.407  49.406  45.473  1.00  0.00    -0.354 OA
HETATM   42  C   UNL     1      18.084  50.793  45.598  1.00  0.00     0.210 C 
ENDBRANCH  36  41
ENDBRANCH  32  35
ENDBRANCH   5  31
TORSDOF 9
ENDMDL
MODEL 3
REMARK VINA RESULT:      -9.4      1.045      2.334
REMARK  9 active torsions:
REMARK  status: ('A' for Active; 'I' for Inactive)
REMARK    1  A    between atoms: C_2  and  C_3 
REMARK    2  A    between atoms: C_4  and  N_5 
REMARK       I    between atoms: N_5  and  C_6 
REMARK    3  A    between atoms: C_6  and  C_7 
REMARK    4  A    between atoms: C_7  and  S_8 
REMARK    5  A    between atoms: S_8  and  C_9 
REMARK    6  A    between atoms: C_13  and  C_14 
REMARK       I    between atoms: C_14  and  N_15 
REMARK    7  A    between atoms: N_15  and  C_16 
REMARK    8  A    between atoms: C_17  and  O_18 
REMARK    9  A    between atoms: C_25  and  C_26 
ROOT
HETATM    1  C   UNL     1      23.733  46.784  49.598  1.00  0.00     0.088 C 
HETATM    2  N   UNL     1      22.779  45.789  49.454  1.00  0.00    -0.353 N 
HETATM    3  C   UNL     1      21.904  45.721  48.371  1.00  0.00     0.019 C 
HETATM    4  C   UNL     1      21.505  44.312  48.004  1.00  0.00     0.069 C 
HETATM    5  C   UNL     1      21.615  46.844  47.669  1.00  0.00     0.046 C 
HETATM    6  C   UNL     1      22.369  48.149  48.009  1.00  0.00     0.106 C 
HETATM    7  C   UNL     1      23.577  47.952  48.934  1.00  0.00     0.069 C 
HETATM    8  C   UNL     1      24.553  48.994  48.950  1.00  0.00     0.099 C 
HETATM    9  N   UNL     1      25.334  49.851  48.955  1.00  0.00    -0.192 NA
HETATM   10  H   UNL     1      23.112  44.891  49.801  1.00  0.00     0.166 HD
ENDROOT
BRANCH   1  11
HETATM   11  S   UNL     1      25.213  46.383  50.443  1.00  0.00    -0.102 SA
BRANCH  11  12
HETATM   12  C   UNL     1      24.676  45.097  51.612  1.00  0.00     0.184 C 
BRANCH  12  13
HETATM   13  C   UNL     1      25.862  44.164  51.852  1.00  0.00     0.231 C 
HETATM   14  N   UNL     1      26.993  44.836  52.295  1.00  0.00    -0.326 N 
HETATM   15  H   UNL     1      26.962  45.844  52.232  1.00  0.00     0.169 HD
HETATM   16  O   UNL     1      25.773  42.956  51.650  1.00  0.00    -0.272 OA
BRANCH  14  17
HETATM   17  C   UNL     1      28.123  44.289  52.947  1.00  0.00     0.041 A 
HETATM   18  C   UNL     1      28.441  44.720  54.255  1.00  0.00    -0.032 A 
HETATM   19  C   UNL     1      29.493  44.091  54.948  1.00  0.00     0.009 A 
HETATM   20  C   UNL     1      30.230  43.066  54.360  1.00  0.00     0.001 A 
HETATM   21  C   UNL     1      29.930  42.660  53.066  1.00  0.00     0.002 A 
HETATM   22  C   UNL     1      28.886  43.269  52.365  1.00  0.00     0.030 A 
BRANCH  18  23
HETATM   23  C   UNL     1      27.706  45.836  54.965  1.00  0.00     0.036 C 
HETATM   24  C   UNL     1      28.393  46.253  56.257  1.00  0.00     0.010 C 
ENDBRANCH  18  23
ENDBRANCH  14  17
ENDBRANCH  12  13
ENDBRANCH  11  12
ENDBRANCH   1  11
BRANCH   6  25
HETATM   25  C   UNL     1      21.477  49.285  48.505  1.00  0.00    -0.044 A 
HETATM   26  C   UNL     1      21.419  50.523  47.850  1.00  0.00     0.008 A 
HETATM   27  C   UNL     1      20.535  51.514  48.286  1.00  0.00     0.001 A 
HETATM   28  C   UNL     1      19.700  51.281  49.377  1.00  0.00     0.000 A 
HETATM   29  C   UNL     1      19.744  50.055  50.035  1.00  0.00     0.001 A 
HETATM   30  C   UNL     1      20.627  49.064  49.603  1.00  0.00     0.008 A 
ENDBRANCH   6  25
BRANCH   5  31
HETATM   31  C   UNL     1      20.894  46.908  46.354  1.00  0.00     0.255 C 
HETATM   32  N   UNL     1      19.577  47.196  46.181  1.00  0.00    -0.321 N 
HETATM   33  H   UNL     1      19.274  46.854  45.275  1.00  0.00     0.169 HD
HETATM   34  O   UNL     1      21.504  46.547  45.340  1.00  0.00    -0.268 OA
BRANCH  32  35
HETATM   35  C   UNL     1      18.585  47.827  46.946  1.00  0.00     0.068 A 
HETATM   36  C   UNL     1      17.918  47.269  48.041  1.00  0.00     0.095 A 
HETATM   37  C   UNL     1      16.888  47.986  48.670  1.00  0.00     0.039 A 
HETATM   38  C   UNL     1      16.572  49.281  48.259  1.00  0.00     0.003 A 
HETATM   39  C   UNL     1      17.289  49.873  47.226  1.00  0.00     0.002 A 
HETATM   40  C   UNL     1      18.297  49.153  46.582  1.00  0.00     0.032 A 
BRANCH  36  41
HETATM   41  O   UNL     1      18.314  46.046  48.514  1.00  0.00    -0.354 OA
HETATM   42  C   UNL     1      17.815  44.969  47.717  1.00  0.00     0.210 C 
ENDBRANCH  36  41
ENDBRANCH  32  35
ENDBRANCH   5  31
TORSDOF 9
ENDMDL
MODEL 4
REMARK VINA RESULT:      -8.8      1.572      2.561
REMARK  9 active torsions:
REMARK  status: ('A' for Active; 'I' for Inactive)
REMARK    1  A    between atoms: C_2  and  C_3 
REMARK    2  A    between atoms: C_4  and  N_5 
REMARK       I    between atoms: N_5  and  C_6 
REMARK    3  A    between atoms: C_6  and  C_7 
REMARK    4  A    between atoms: C_7  and  S_8 
REMARK    5  A    between atoms: S_8  and  C_9 
REMARK    6  A    between atoms: C_13  and  C_14 
REMARK       I    between atoms: C_14  and  N_15 
REMARK    7  A    between atoms: N_15  and  C_16 
REMARK    8  A    between atoms: C_17  and  O_18 
REMARK    9  A    between atoms: C_25  and  C_26 
ROOT
HETATM    1  C   UNL     1      22.984  45.281  49.537  1.00  0.00     0.088 C 
HETATM    2  N   UNL     1      22.032  44.443  48.978  1.00  0.00    -0.353 N 
HETATM    3  C   UNL     1      21.491  44.642  47.709  1.00  0.00     0.019 C 
HETATM    4  C   UNL     1      21.099  43.363  47.012  1.00  0.00     0.069 C 
HETATM    5  C   UNL     1      21.500  45.883  47.162  1.00  0.00     0.046 C 
HETATM    6  C   UNL     1      22.231  47.020  47.909  1.00  0.00     0.106 C 
HETATM    7  C   UNL     1      23.113  46.542  49.069  1.00  0.00     0.069 C 
HETATM    8  C   UNL     1      24.126  47.441  49.521  1.00  0.00     0.099 C 
HETATM    9  N   UNL     1      24.942  48.185  49.879  1.00  0.00    -0.192 NA
HETATM   10  H   UNL     1      22.182  43.470  49.238  1.00  0.00     0.166 HD
ENDROOT
BRANCH   1  11
HETATM   11  S   UNL     1      24.133  44.580  50.657  1.00  0.00    -0.102 SA
BRANCH  11  12
HETATM   12  C   UNL     1      25.543  44.165  49.585  1.00  0.00     0.184 C 
BRANCH  12  13
HETATM   13  C   UNL     1      26.823  44.482  50.358  1.00  0.00     0.231 C 
HETATM   14  N   UNL     1      26.833  43.924  51.630  1.00  0.00    -0.326 N 
HETATM   15  H   UNL     1      25.954  43.547  51.955  1.00  0.00     0.169 HD
HETATM   16  O   UNL     1      27.712  45.169  49.864  1.00  0.00    -0.272 OA
BRANCH  14  17
HETATM   17  C   UNL     1      27.953  43.699  52.465  1.00  0.00     0.041 A 
HETATM   18  C   UNL     1      28.121  44.494  53.621  1.00  0.00    -0.032 A 
HETATM   19  C   UNL     1      29.168  44.193  54.514  1.00  0.00     0.009 A 
HETATM   20  C   UNL     1      30.044  43.140  54.265  1.00  0.00     0.001 A 
HETATM   21  C   UNL     1      29.891  42.376  53.116  1.00  0.00     0.002 A 
HETATM   22  C   UNL     1      28.854  42.655  52.222  1.00  0.00     0.030 A 
BRANCH  18  23
HETATM   23  C   UNL     1      27.228  45.667  53.962  1.00  0.00     0.036 C 
HETATM   24  C   UNL     1      27.702  46.417  55.198  1.00  0.00     0.010 C 
ENDBRANCH  18  23
ENDBRANCH  14  17
ENDBRANCH  12  13
ENDBRANCH  11  12
ENDBRANCH   1  11
BRANCH   6  25
HETATM   25  C   UNL     1      21.330  48.174  48.343  1.00  0.00    -0.044 A 
HETATM   26  C   UNL     1      20.207  47.974  49.156  1.00  0.00     0.008 A 
HETATM   27  C   UNL     1      19.448  49.062  49.597  1.00  0.00     0.001 A 
HETATM   28  C   UNL     1      19.802  50.360  49.234  1.00  0.00     0.000 A 
HETATM   29  C   UNL     1      20.918  50.575  48.430  1.00  0.00     0.001 A 
HETATM   30  C   UNL     1      21.676  49.490  47.986  1.00  0.00     0.008 A 
ENDBRANCH   6  25
BRANCH   5  31
HETATM   31  C   UNL     1      21.181  46.226  45.736  1.00  0.00     0.255 C 
HETATM   32  N   UNL     1      19.990  46.690  45.275  1.00  0.00    -0.321 N 
HETATM   33  H   UNL     1      19.928  46.525  44.276  1.00  0.00     0.169 HD
HETATM   34  O   UNL     1      22.022  45.949  44.871  1.00  0.00    -0.268 OA
BRANCH  32  35
HETATM   35  C   UNL     1      18.873  47.315  45.850  1.00  0.00     0.068 A 
HETATM   36  C   UNL     1      17.854  46.672  46.560  1.00  0.00     0.095 A 
HETATM   37  C   UNL     1      16.750  47.411  47.016  1.00  0.00     0.039 A 
HETATM   38  C   UNL     1      16.696  48.792  46.832  1.00  0.00     0.003 A 
HETATM   39  C   UNL     1      17.747  49.448  46.201  1.00  0.00     0.002 A 
HETATM   40  C   UNL     1      18.833  48.713  45.724  1.00  0.00     0.032 A 
BRANCH  36  41
HETATM   41  O   UNL     1      17.971  45.338  46.842  1.00  0.00    -0.354 OA
HETATM   42  C   UNL     1      17.323  44.519  45.865  1.00  0.00     0.210 C 
ENDBRANCH  36  41
ENDBRANCH  32  35
ENDBRANCH   5  31
TORSDOF 9
ENDMDL
MODEL 5
REMARK VINA RESULT:      -8.5      2.648      4.439
REMARK  9 active torsions:
REMARK  status: ('A' for Active; 'I' for Inactive)
REMARK    1  A    between atoms: C_2  and  C_3 
REMARK    2  A    between atoms: C_4  and  N_5 
REMARK       I    between atoms: N_5  and  C_6 
REMARK    3  A    between atoms: C_6  and  C_7 
REMARK    4  A    between atoms: C_7  and  S_8 
REMARK    5  A    between atoms: S_8  and  C_9 
REMARK    6  A    between atoms: C_13  and  C_14 
REMARK       I    between atoms: C_14  and  N_15 
REMARK    7  A    between atoms: N_15  and  C_16 
REMARK    8  A    between atoms: C_17  and  O_18 
REMARK    9  A    between atoms: C_25  and  C_26 
ROOT
HETATM    1  C   UNL     1      21.407  47.296  48.380  1.00  0.00     0.088 C 
HETATM    2  N   UNL     1      21.735  48.627  48.587  1.00  0.00    -0.353 N 
HETATM    3  C   UNL     1      20.918  49.513  49.286  1.00  0.00     0.019 C 
HETATM    4  C   UNL     1      21.681  50.591  50.016  1.00  0.00     0.069 C 
HETATM    5  C   UNL     1      19.587  49.268  49.382  1.00  0.00     0.046 C 
HETATM    6  C   UNL     1      19.033  47.938  48.825  1.00  0.00     0.106 C 
HETATM    7  C   UNL     1      20.114  46.910  48.468  1.00  0.00     0.069 C 
HETATM    8  C   UNL     1      19.698  45.548  48.361  1.00  0.00     0.099 C 
HETATM    9  N   UNL     1      19.343  44.447  48.275  1.00  0.00    -0.192 NA
HETATM   10  H   UNL     1      22.735  48.755  48.728  1.00  0.00     0.166 HD
ENDROOT
BRANCH   1  11
HETATM   11  S   UNL     1      22.717  46.142  48.254  1.00  0.00    -0.102 SA
BRANCH  11  12
HETATM   12  C   UNL     1      24.026  46.901  49.265  1.00  0.00     0.184 C 
BRANCH  12  13
HETATM   13  C   UNL     1      24.494  45.859  50.279  1.00  0.00     0.231 C 
HETATM   14  N   UNL     1      25.741  46.154  50.814  1.00  0.00    -0.326 N 
HETATM   15  H   UNL     1      26.257  46.890  50.355  1.00  0.00     0.169 HD
HETATM   16  O   UNL     1      23.805  44.880  50.549  1.00  0.00    -0.272 OA
BRANCH  14  17
HETATM   17  C   UNL     1      26.313  45.641  52.002  1.00  0.00     0.041 A 
HETATM   18  C   UNL     1      27.113  44.478  51.937  1.00  0.00    -0.032 A 
HETATM   19  C   UNL     1      27.778  44.036  53.097  1.00  0.00     0.009 A 
HETATM   20  C   UNL     1      27.646  44.717  54.304  1.00  0.00     0.001 A 
HETATM   21  C   UNL     1      26.841  45.846  54.371  1.00  0.00     0.002 A 
HETATM   22  C   UNL     1      26.178  46.303  53.229  1.00  0.00     0.030 A 
BRANCH  18  23
HETATM   23  C   UNL     1      27.299  43.666  50.673  1.00  0.00     0.036 C 
HETATM   24  C   UNL     1      26.537  42.350  50.711  1.00  0.00     0.010 C 
ENDBRANCH  18  23
ENDBRANCH  14  17
ENDBRANCH  12  13
ENDBRANCH  11  12
ENDBRANCH   1  11
BRANCH   6  25
HETATM   25  C   UNL     1      18.029  48.098  47.686  1.00  0.00    -0.044 A 
HETATM   26  C   UNL     1      16.648  47.990  47.894  1.00  0.00     0.008 A 
HETATM   27  C   UNL     1      15.753  48.217  46.844  1.00  0.00     0.001 A 
HETATM   28  C   UNL     1      16.227  48.556  45.578  1.00  0.00     0.000 A 
HETATM   29  C   UNL     1      17.596  48.670  45.357  1.00  0.00     0.001 A 
HETATM   30  C   UNL     1      18.492  48.442  46.403  1.00  0.00     0.008 A 
ENDBRANCH   6  25
BRANCH   5  31
HETATM   31  C   UNL     1      18.617  49.978  50.281  1.00  0.00     0.255 C 
HETATM   32  N   UNL     1      17.792  50.995  49.918  1.00  0.00    -0.321 N 
HETATM   33  H   UNL     1      17.501  51.504  50.745  1.00  0.00     0.169 HD
HETATM   34  O   UNL     1      18.646  49.714  51.490  1.00  0.00    -0.268 OA
BRANCH  32  35
HETATM   35  C   UNL     1      17.280  51.480  48.705  1.00  0.00     0.068 A 
HETATM   36  C   UNL     1      15.934  51.744  48.433  1.00  0.00     0.095 A 
HETATM   37  C   UNL     1      15.550  52.154  47.146  1.00  0.00     0.039 A 
HETATM   38  C   UNL     1      16.508  52.373  46.156  1.00  0.00     0.003 A 
HETATM   39  C   UNL     1      17.856  52.194  46.447  1.00  0.00     0.002 A 
HETATM   40  C   UNL     1      18.238  51.761  47.717  1.00  0.00     0.032 A 
BRANCH  36  41
HETATM   41  O   UNL     1      15.014  51.643  49.442  1.00  0.00    -0.354 OA
HETATM   42  C   UNL     1      14.702  52.913  50.020  1.00  0.00     0.210 C 
ENDBRANCH  36  41
ENDBRANCH  32  35
ENDBRANCH   5  31
TORSDOF 9
ENDMDL
MODEL 6
REMARK VINA RESULT:      -8.4     10.365     14.909
REMARK  9 active torsions:
REMARK  status: ('A' for Active; 'I' for Inactive)
REMARK    1  A    between atoms: C_2  and  C_3 
REMARK    2  A    between atoms: C_4  and  N_5 
REMARK       I    between atoms: N_5  and  C_6 
REMARK    3  A    between atoms: C_6  and  C_7 
REMARK    4  A    between atoms: C_7  and  S_8 
REMARK    5  A    between atoms: S_8  and  C_9 
REMARK    6  A    between atoms: C_13  and  C_14 
REMARK       I    between atoms: C_14  and  N_15 
REMARK    7  A    between atoms: N_15  and  C_16 
REMARK    8  A    between atoms: C_17  and  O_18 
REMARK    9  A    between atoms: C_25  and  C_26 
ROOT
HETATM    1  C   UNL     1      27.350  49.405  38.679  1.00  0.00     0.088 C 
HETATM    2  N   UNL     1      27.516  50.773  38.833  1.00  0.00    -0.353 N 
HETATM    3  C   UNL     1      28.718  51.429  38.574  1.00  0.00     0.019 C 
HETATM    4  C   UNL     1      28.540  52.847  38.090  1.00  0.00     0.069 C 
HETATM    5  C   UNL     1      29.885  50.739  38.623  1.00  0.00     0.046 C 
HETATM    6  C   UNL     1      29.836  49.209  38.834  1.00  0.00     0.106 C 
HETATM    7  C   UNL     1      28.436  48.601  38.687  1.00  0.00     0.069 C 
HETATM    8  C   UNL     1      28.367  47.195  38.444  1.00  0.00     0.099 C 
HETATM    9  N   UNL     1      28.328  46.052  38.251  1.00  0.00    -0.192 NA
HETATM   10  H   UNL     1      26.676  51.289  38.579  1.00  0.00     0.166 HD
ENDROOT
BRANCH   1  11
HETATM   11  S   UNL     1      25.760  48.819  38.240  1.00  0.00    -0.102 SA
BRANCH  11  12
HETATM   12  C   UNL     1      25.237  47.910  39.726  1.00  0.00     0.184 C 
BRANCH  12  13
HETATM   13  C   UNL     1      23.802  48.325  40.044  1.00  0.00     0.231 C 
HETATM   14  N   UNL     1      23.529  49.636  39.676  1.00  0.00    -0.326 N 
HETATM   15  H   UNL     1      24.327  50.200  39.424  1.00  0.00     0.169 HD
HETATM   16  O   UNL     1      23.017  47.547  40.578  1.00  0.00    -0.272 OA
BRANCH  14  17
HETATM   17  C   UNL     1      22.260  50.232  39.483  1.00  0.00     0.041 A 
HETATM   18  C   UNL     1      21.516  49.909  38.326  1.00  0.00    -0.032 A 
HETATM   19  C   UNL     1      20.205  50.409  38.191  1.00  0.00     0.009 A 
HETATM   20  C   UNL     1      19.644  51.225  39.170  1.00  0.00     0.001 A 
HETATM   21  C   UNL     1      20.387  51.560  40.294  1.00  0.00     0.002 A 
HETATM   22  C   UNL     1      21.685  51.068  40.448  1.00  0.00     0.030 A 
BRANCH  18  23
HETATM   23  C   UNL     1      22.051  49.044  37.206  1.00  0.00     0.036 C 
HETATM   24  C   UNL     1      21.424  47.659  37.191  1.00  0.00     0.010 C 
ENDBRANCH  18  23
ENDBRANCH  14  17
ENDBRANCH  12  13
ENDBRANCH  11  12
ENDBRANCH   1  11
BRANCH   6  25
HETATM   25  C   UNL     1      30.514  48.726  40.114  1.00  0.00    -0.044 A 
HETATM   26  C   UNL     1      31.667  47.930  40.088  1.00  0.00     0.008 A 
HETATM   27  C   UNL     1      32.306  47.568  41.278  1.00  0.00     0.001 A 
HETATM   28  C   UNL     1      31.802  47.997  42.505  1.00  0.00     0.000 A 
HETATM   29  C   UNL     1      30.660  48.792  42.546  1.00  0.00     0.001 A 
HETATM   30  C   UNL     1      30.019  49.152  41.360  1.00  0.00     0.008 A 
ENDBRANCH   6  25
BRANCH   5  31
HETATM   31  C   UNL     1      31.223  51.224  38.147  1.00  0.00     0.255 C 
HETATM   32  N   UNL     1      32.220  51.709  38.932  1.00  0.00    -0.321 N 
HETATM   33  H   UNL     1      32.855  52.262  38.368  1.00  0.00     0.169 HD
HETATM   34  O   UNL     1      31.406  51.317  36.926  1.00  0.00    -0.268 OA
BRANCH  32  35
HETATM   35  C   UNL     1      32.548  51.624  40.294  1.00  0.00     0.068 A 
HETATM   36  C   UNL     1      31.840  52.217  41.344  1.00  0.00     0.095 A 
HETATM   37  C   UNL     1      32.325  52.115  42.657  1.00  0.00     0.039 A 
HETATM   38  C   UNL     1      33.468  51.365  42.935  1.00  0.00     0.003 A 
HETATM   39  C   UNL     1      34.128  50.703  41.906  1.00  0.00     0.002 A 
HETATM   40  C   UNL     1      33.663  50.824  40.596  1.00  0.00     0.032 A 
BRANCH  36  41
HETATM   41  O   UNL     1      30.655  52.850  41.080  1.00  0.00    -0.354 OA
HETATM   42  C   UNL     1      29.661  52.574  42.069  1.00  0.00     0.210 C 
ENDBRANCH  36  41
ENDBRANCH  32  35
ENDBRANCH   5  31
TORSDOF 9
ENDMDL
MODEL 7
REMARK VINA RESULT:      -8.4     10.358     14.869
REMARK  9 active torsions:
REMARK  status: ('A' for Active; 'I' for Inactive)
REMARK    1  A    between atoms: C_2  and  C_3 
REMARK    2  A    between atoms: C_4  and  N_5 
REMARK       I    between atoms: N_5  and  C_6 
REMARK    3  A    between atoms: C_6  and  C_7 
REMARK    4  A    between atoms: C_7  and  S_8 
REMARK    5  A    between atoms: S_8  and  C_9 
REMARK    6  A    between atoms: C_13  and  C_14 
REMARK       I    between atoms: C_14  and  N_15 
REMARK    7  A    between atoms: N_15  and  C_16 
REMARK    8  A    between atoms: C_17  and  O_18 
REMARK    9  A    between atoms: C_25  and  C_26 
ROOT
HETATM    1  C   UNL     1      27.501  49.642  38.377  1.00  0.00     0.088 C 
HETATM    2  N   UNL     1      27.685  51.007  38.533  1.00  0.00    -0.353 N 
HETATM    3  C   UNL     1      28.922  51.632  38.385  1.00  0.00     0.019 C 
HETATM    4  C   UNL     1      28.826  53.049  37.873  1.00  0.00     0.069 C 
HETATM    5  C   UNL     1      30.062  50.916  38.553  1.00  0.00     0.046 C 
HETATM    6  C   UNL     1      29.956  49.391  38.774  1.00  0.00     0.106 C 
HETATM    7  C   UNL     1      28.563  48.813  38.498  1.00  0.00     0.069 C 
HETATM    8  C   UNL     1      28.483  47.407  38.262  1.00  0.00     0.099 C 
HETATM    9  N   UNL     1      28.435  46.262  38.077  1.00  0.00    -0.192 NA
HETATM   10  H   UNL     1      26.887  51.540  38.193  1.00  0.00     0.166 HD
ENDROOT
BRANCH   1  11
HETATM   11  S   UNL     1      25.948  49.088  37.791  1.00  0.00    -0.102 SA
BRANCH  11  12
HETATM   12  C   UNL     1      25.032  48.749  39.326  1.00  0.00     0.184 C 
BRANCH  12  13
HETATM   13  C   UNL     1      23.570  49.121  39.086  1.00  0.00     0.231 C 
HETATM   14  N   UNL     1      22.803  49.056  40.243  1.00  0.00    -0.326 N 
HETATM   15  H   UNL     1      23.238  48.609  41.037  1.00  0.00     0.169 HD
HETATM   16  O   UNL     1      23.166  49.427  37.969  1.00  0.00    -0.272 OA
BRANCH  14  17
HETATM   17  C   UNL     1      21.545  49.657  40.479  1.00  0.00     0.041 A 
HETATM   18  C   UNL     1      20.427  48.836  40.748  1.00  0.00    -0.032 A 
HETATM   19  C   UNL     1      19.202  49.436  41.100  1.00  0.00     0.009 A 
HETATM   20  C   UNL     1      19.075  50.821  41.170  1.00  0.00     0.001 A 
HETATM   21  C   UNL     1      20.170  51.627  40.882  1.00  0.00     0.002 A 
HETATM   22  C   UNL     1      21.394  51.049  40.538  1.00  0.00     0.030 A 
BRANCH  18  23
HETATM   23  C   UNL     1      20.468  47.325  40.679  1.00  0.00     0.036 C 
HETATM   24  C   UNL     1      20.634  46.685  42.049  1.00  0.00     0.010 C 
ENDBRANCH  18  23
ENDBRANCH  14  17
ENDBRANCH  12  13
ENDBRANCH  11  12
ENDBRANCH   1  11
BRANCH   6  25
HETATM   25  C   UNL     1      30.495  48.907  40.118  1.00  0.00    -0.044 A 
HETATM   26  C   UNL     1      31.713  48.223  40.226  1.00  0.00     0.008 A 
HETATM   27  C   UNL     1      32.214  47.861  41.480  1.00  0.00     0.001 A 
HETATM   28  C   UNL     1      31.506  48.179  42.638  1.00  0.00     0.000 A 
HETATM   29  C   UNL     1      30.297  48.861  42.546  1.00  0.00     0.001 A 
HETATM   30  C   UNL     1      29.794  49.222  41.296  1.00  0.00     0.008 A 
ENDBRANCH   6  25
BRANCH   5  31
HETATM   31  C   UNL     1      31.451  51.365  38.205  1.00  0.00     0.255 C 
HETATM   32  N   UNL     1      32.375  51.846  39.077  1.00  0.00    -0.321 N 
HETATM   33  H   UNL     1      33.075  52.374  38.569  1.00  0.00     0.169 HD
HETATM   34  O   UNL     1      31.757  51.428  37.008  1.00  0.00    -0.268 OA
BRANCH  32  35
HETATM   35  C   UNL     1      32.564  51.784  40.466  1.00  0.00     0.068 A 
HETATM   36  C   UNL     1      33.672  51.231  41.116  1.00  0.00     0.095 A 
HETATM   37  C   UNL     1      33.696  51.165  42.518  1.00  0.00     0.039 A 
HETATM   38  C   UNL     1      32.657  51.712  43.273  1.00  0.00     0.003 A 
HETATM   39  C   UNL     1      31.594  52.338  42.633  1.00  0.00     0.002 A 
HETATM   40  C   UNL     1      31.555  52.383  41.239  1.00  0.00     0.032 A 
BRANCH  36  41
HETATM   41  O   UNL     1      34.741  50.805  40.375  1.00  0.00    -0.354 OA
HETATM   42  C   UNL     1      35.892  50.547  41.182  1.00  0.00     0.210 C 
ENDBRANCH  36  41
ENDBRANCH  32  35
ENDBRANCH   5  31
TORSDOF 9
ENDMDL
MODEL 8
REMARK VINA RESULT:      -8.2     10.705     14.061
REMARK  9 active torsions:
REMARK  status: ('A' for Active; 'I' for Inactive)
REMARK    1  A    between atoms: C_2  and  C_3 
REMARK    2  A    between atoms: C_4  and  N_5 
REMARK       I    between atoms: N_5  and  C_6 
REMARK    3  A    between atoms: C_6  and  C_7 
REMARK    4  A    between atoms: C_7  and  S_8 
REMARK    5  A    between atoms: S_8  and  C_9 
REMARK    6  A    between atoms: C_13  and  C_14 
REMARK       I    between atoms: C_14  and  N_15 
REMARK    7  A    between atoms: N_15  and  C_16 
REMARK    8  A    between atoms: C_17  and  O_18 
REMARK    9  A    between atoms: C_25  and  C_26 
ROOT
HETATM    1  C   UNL     1      27.843  49.001  38.407  1.00  0.00     0.088 C 
HETATM    2  N   UNL     1      27.799  50.374  38.596  1.00  0.00    -0.353 N 
HETATM    3  C   UNL     1      28.923  51.193  38.507  1.00  0.00     0.019 C 
HETATM    4  C   UNL     1      28.617  52.587  38.018  1.00  0.00     0.069 C 
HETATM    5  C   UNL     1      30.157  50.665  38.706  1.00  0.00     0.046 C 
HETATM    6  C   UNL     1      30.291  49.138  38.893  1.00  0.00     0.106 C 
HETATM    7  C   UNL     1      29.020  48.350  38.553  1.00  0.00     0.069 C 
HETATM    8  C   UNL     1      29.176  46.956  38.289  1.00  0.00     0.099 C 
HETATM    9  N   UNL     1      29.321  45.824  38.080  1.00  0.00    -0.192 NA
HETATM   10  H   UNL     1      26.937  50.779  38.236  1.00  0.00     0.166 HD
ENDROOT
BRANCH   1  11
HETATM   11  S   UNL     1      26.421  48.219  37.752  1.00  0.00    -0.102 SA
BRANCH  11  12
HETATM   12  C   UNL     1      25.593  47.571  39.238  1.00  0.00     0.184 C 
BRANCH  12  13
HETATM   13  C   UNL     1      25.830  46.063  39.280  1.00  0.00     0.231 C 
HETATM   14  N   UNL     1      26.801  45.698  40.205  1.00  0.00    -0.326 N 
HETATM   15  H   UNL     1      27.348  46.453  40.592  1.00  0.00     0.169 HD
HETATM   16  O   UNL     1      25.208  45.300  38.547  1.00  0.00    -0.272 OA
BRANCH  14  17
HETATM   17  C   UNL     1      27.020  44.419  40.766  1.00  0.00     0.041 A 
HETATM   18  C   UNL     1      26.338  44.059  41.950  1.00  0.00    -0.032 A 
HETATM   19  C   UNL     1      26.464  42.745  42.444  1.00  0.00     0.009 A 
HETATM   20  C   UNL     1      27.261  41.807  41.793  1.00  0.00     0.001 A 
HETATM   21  C   UNL     1      27.949  42.171  40.642  1.00  0.00     0.002 A 
HETATM   22  C   UNL     1      27.831  43.467  40.135  1.00  0.00     0.030 A 
BRANCH  18  23
HETATM   23  C   UNL     1      25.465  45.016  42.732  1.00  0.00     0.036 C 
HETATM   24  C   UNL     1      24.372  44.301  43.512  1.00  0.00     0.010 C 
ENDBRANCH  18  23
ENDBRANCH  14  17
ENDBRANCH  12  13
ENDBRANCH  11  12
ENDBRANCH   1  11
BRANCH   6  25
HETATM   25  C   UNL     1      30.854  48.714  40.248  1.00  0.00    -0.044 A 
HETATM   26  C   UNL     1      32.118  48.122  40.374  1.00  0.00     0.008 A 
HETATM   27  C   UNL     1      32.635  47.815  41.636  1.00  0.00     0.001 A 
HETATM   28  C   UNL     1      31.898  48.098  42.785  1.00  0.00     0.000 A 
HETATM   29  C   UNL     1      30.643  48.689  42.675  1.00  0.00     0.001 A 
HETATM   30  C   UNL     1      30.123  48.994  41.417  1.00  0.00     0.008 A 
ENDBRANCH   6  25
BRANCH   5  31
HETATM   31  C   UNL     1      31.466  51.340  38.419  1.00  0.00     0.255 C 
HETATM   32  N   UNL     1      32.263  51.954  39.332  1.00  0.00    -0.321 N 
HETATM   33  H   UNL     1      32.887  52.596  38.857  1.00  0.00     0.169 HD
HETATM   34  O   UNL     1      31.806  51.468  37.236  1.00  0.00    -0.268 OA
BRANCH  32  35
HETATM   35  C   UNL     1      32.403  51.904  40.728  1.00  0.00     0.068 A 
HETATM   36  C   UNL     1      33.504  51.389  41.420  1.00  0.00     0.095 A 
HETATM   37  C   UNL     1      33.479  51.330  42.823  1.00  0.00     0.039 A 
HETATM   38  C   UNL     1      32.398  51.849  43.536  1.00  0.00     0.003 A 
HETATM   39  C   UNL     1      31.340  52.440  42.855  1.00  0.00     0.002 A 
HETATM   40  C   UNL     1      31.350  52.476  41.459  1.00  0.00     0.032 A 
BRANCH  36  41
HETATM   41  O   UNL     1      34.611  50.991  40.720  1.00  0.00    -0.354 OA
HETATM   42  C   UNL     1      35.596  50.388  41.562  1.00  0.00     0.210 C 
ENDBRANCH  36  41
ENDBRANCH  32  35
ENDBRANCH   5  31
TORSDOF 9
ENDMDL
MODEL 9
REMARK VINA RESULT:      -8.1      1.958      3.325
REMARK  9 active torsions:
REMARK  status: ('A' for Active; 'I' for Inactive)
REMARK    1  A    between atoms: C_2  and  C_3 
REMARK    2  A    between atoms: C_4  and  N_5 
REMARK       I    between atoms: N_5  and  C_6 
REMARK    3  A    between atoms: C_6  and  C_7 
REMARK    4  A    between atoms: C_7  and  S_8 
REMARK    5  A    between atoms: S_8  and  C_9 
REMARK    6  A    between atoms: C_13  and  C_14 
REMARK       I    between atoms: C_14  and  N_15 
REMARK    7  A    between atoms: N_15  and  C_16 
REMARK    8  A    between atoms: C_17  and  O_18 
REMARK    9  A    between atoms: C_25  and  C_26 
ROOT
HETATM    1  C   UNL     1      22.658  47.522  48.892  1.00  0.00     0.088 C 
HETATM    2  N   UNL     1      21.702  46.565  49.192  1.00  0.00    -0.353 N 
HETATM    3  C   UNL     1      20.521  46.413  48.469  1.00  0.00     0.019 C 
HETATM    4  C   UNL     1      20.012  44.993  48.433  1.00  0.00     0.069 C 
HETATM    5  C   UNL     1      20.026  47.460  47.762  1.00  0.00     0.046 C 
HETATM    6  C   UNL     1      20.861  48.757  47.671  1.00  0.00     0.106 C 
HETATM    7  C   UNL     1      22.303  48.610  48.171  1.00  0.00     0.069 C 
HETATM    8  C   UNL     1      23.239  49.597  47.739  1.00  0.00     0.099 C 
HETATM    9  N   UNL     1      23.986  50.410  47.380  1.00  0.00    -0.192 NA
HETATM   10  H   UNL     1      22.122  45.699  49.523  1.00  0.00     0.166 HD
ENDROOT
BRANCH   1  11
HETATM   11  S   UNL     1      24.330  47.150  49.255  1.00  0.00    -0.102 SA
BRANCH  11  12
HETATM   12  C   UNL     1      24.291  45.356  49.553  1.00  0.00     0.184 C 
BRANCH  12  13
HETATM   13  C   UNL     1      24.657  45.121  51.018  1.00  0.00     0.231 C 
HETATM   14  N   UNL     1      25.851  45.731  51.377  1.00  0.00    -0.326 N 
HETATM   15  H   UNL     1      26.412  46.088  50.617  1.00  0.00     0.169 HD
HETATM   16  O   UNL     1      23.940  44.447  51.753  1.00  0.00    -0.272 OA
BRANCH  14  17
HETATM   17  C   UNL     1      26.308  46.033  52.681  1.00  0.00     0.041 A 
HETATM   18  C   UNL     1      27.272  45.194  53.286  1.00  0.00    -0.032 A 
HETATM   19  C   UNL     1      27.814  45.558  54.534  1.00  0.00     0.009 A 
HETATM   20  C   UNL     1      27.402  46.719  55.184  1.00  0.00     0.001 A 
HETATM   21  C   UNL     1      26.438  47.529  54.599  1.00  0.00     0.002 A 
HETATM   22  C   UNL     1      25.894  47.187  53.358  1.00  0.00     0.030 A 
BRANCH  18  23
HETATM   23  C   UNL     1      27.764  43.906  52.661  1.00  0.00     0.036 C 
HETATM   24  C   UNL     1      29.161  43.531  53.130  1.00  0.00     0.010 C 
ENDBRANCH  18  23
ENDBRANCH  14  17
ENDBRANCH  12  13
ENDBRANCH  11  12
ENDBRANCH   1  11
BRANCH   6  25
HETATM   25  C   UNL     1      20.190  49.986  48.280  1.00  0.00    -0.044 A 
HETATM   26  C   UNL     1      19.796  51.080  47.499  1.00  0.00     0.008 A 
HETATM   27  C   UNL     1      19.116  52.156  48.078  1.00  0.00     0.001 A 
HETATM   28  C   UNL     1      18.820  52.150  49.440  1.00  0.00     0.000 A 
HETATM   29  C   UNL     1      19.202  51.068  50.228  1.00  0.00     0.001 A 
HETATM   30  C   UNL     1      19.883  49.994  49.653  1.00  0.00     0.008 A 
ENDBRANCH   6  25
BRANCH   5  31
HETATM   31  C   UNL     1      18.915  47.404  46.755  1.00  0.00     0.255 C 
HETATM   32  N   UNL     1      18.946  46.741  45.569  1.00  0.00    -0.321 N 
HETATM   33  H   UNL     1      18.240  47.123  44.951  1.00  0.00     0.169 HD
HETATM   34  O   UNL     1      17.923  48.120  46.945  1.00  0.00    -0.268 OA
BRANCH  32  35
HETATM   35  C   UNL     1      19.712  45.696  45.031  1.00  0.00     0.068 A 
HETATM   36  C   UNL     1      19.345  44.346  45.001  1.00  0.00     0.095 A 
HETATM   37  C   UNL     1      20.244  43.391  44.500  1.00  0.00     0.039 A 
HETATM   38  C   UNL     1      21.470  43.783  43.963  1.00  0.00     0.003 A 
HETATM   39  C   UNL     1      21.803  45.132  43.913  1.00  0.00     0.002 A 
HETATM   40  C   UNL     1      20.923  46.081  44.434  1.00  0.00     0.032 A 
BRANCH  36  41
HETATM   41  O   UNL     1      18.093  43.982  45.418  1.00  0.00    -0.354 OA
HETATM   42  C   UNL     1      17.236  43.641  44.326  1.00  0.00     0.210 C 
ENDBRANCH  36  41
ENDBRANCH  32  35
ENDBRANCH   5  31
TORSDOF 9
ENDMDL
MODEL 10
REMARK VINA RESULT:      -8.0      4.424      9.870
REMARK  9 active torsions:
REMARK  status: ('A' for Active; 'I' for Inactive)
REMARK    1  A    between atoms: C_2  and  C_3 
REMARK    2  A    between atoms: C_4  and  N_5 
REMARK       I    between atoms: N_5  and  C_6 
REMARK    3  A    between atoms: C_6  and  C_7 
REMARK    4  A    between atoms: C_7  and  S_8 
REMARK    5  A    between atoms: S_8  and  C_9 
REMARK    6  A    between atoms: C_13  and  C_14 
REMARK       I    between atoms: C_14  and  N_15 
REMARK    7  A    between atoms: N_15  and  C_16 
REMARK    8  A    between atoms: C_17  and  O_18 
REMARK    9  A    between atoms: C_25  and  C_26 
ROOT
HETATM    1  C   UNL     1      24.110  44.520  48.809  1.00  0.00     0.088 C 
HETATM    2  N   UNL     1      23.855  44.233  47.477  1.00  0.00    -0.353 N 
HETATM    3  C   UNL     1      23.429  42.982  47.035  1.00  0.00     0.019 C 
HETATM    4  C   UNL     1      22.545  43.041  45.813  1.00  0.00     0.069 C 
HETATM    5  C   UNL     1      23.696  41.879  47.778  1.00  0.00     0.046 C 
HETATM    6  C   UNL     1      24.350  42.059  49.166  1.00  0.00     0.106 C 
HETATM    7  C   UNL     1      24.371  43.508  49.667  1.00  0.00     0.069 C 
HETATM    8  C   UNL     1      24.554  43.703  51.069  1.00  0.00     0.099 C 
HETATM    9  N   UNL     1      24.707  43.845  52.211  1.00  0.00    -0.192 NA
HETATM   10  H   UNL     1      23.447  45.028  46.988  1.00  0.00     0.166 HD
ENDROOT
BRANCH   1  11
HETATM   11  S   UNL     1      23.842  46.161  49.357  1.00  0.00    -0.102 SA
BRANCH  11  12
HETATM   12  C   UNL     1      22.349  46.656  48.443  1.00  0.00     0.184 C 
BRANCH  12  13
HETATM   13  C   UNL     1      22.067  48.121  48.772  1.00  0.00     0.231 C 
HETATM   14  N   UNL     1      20.880  48.577  48.214  1.00  0.00    -0.326 N 
HETATM   15  H   UNL     1      20.451  47.971  47.530  1.00  0.00     0.169 HD
HETATM   16  O   UNL     1      22.846  48.782  49.453  1.00  0.00    -0.272 OA
BRANCH  14  17
HETATM   17  C   UNL     1      20.134  49.720  48.587  1.00  0.00     0.041 A 
HETATM   18  C   UNL     1      19.069  49.578  49.505  1.00  0.00    -0.032 A 
HETATM   19  C   UNL     1      18.403  50.730  49.967  1.00  0.00     0.009 A 
HETATM   20  C   UNL     1      18.768  51.998  49.522  1.00  0.00     0.001 A 
HETATM   21  C   UNL     1      19.800  52.132  48.602  1.00  0.00     0.002 A 
HETATM   22  C   UNL     1      20.476  51.001  48.137  1.00  0.00     0.030 A 
BRANCH  18  23
HETATM   23  C   UNL     1      18.593  48.240  50.029  1.00  0.00     0.036 C 
HETATM   24  C   UNL     1      17.482  47.645  49.177  1.00  0.00     0.010 C 
ENDBRANCH  18  23
ENDBRANCH  14  17
ENDBRANCH  12  13
ENDBRANCH  11  12
ENDBRANCH   1  11
BRANCH   6  25
HETATM   25  C   UNL     1      25.725  41.409  49.307  1.00  0.00    -0.044 A 
HETATM   26  C   UNL     1      25.990  40.437  50.280  1.00  0.00     0.008 A 
HETATM   27  C   UNL     1      27.238  39.808  50.332  1.00  0.00     0.001 A 
HETATM   28  C   UNL     1      28.231  40.140  49.413  1.00  0.00     0.000 A 
HETATM   29  C   UNL     1      27.981  41.101  48.438  1.00  0.00     0.001 A 
HETATM   30  C   UNL     1      26.737  41.732  48.385  1.00  0.00     0.008 A 
ENDBRANCH   6  25
BRANCH   5  31
HETATM   31  C   UNL     1      23.116  40.510  47.574  1.00  0.00     0.255 C 
HETATM   32  N   UNL     1      23.707  39.486  46.906  1.00  0.00    -0.321 N 
HETATM   33  H   UNL     1      23.002  38.813  46.627  1.00  0.00     0.169 HD
HETATM   34  O   UNL     1      21.946  40.317  47.929  1.00  0.00    -0.268 OA
BRANCH  32  35
HETATM   35  C   UNL     1      25.020  39.169  46.526  1.00  0.00     0.068 A 
HETATM   36  C   UNL     1      25.737  39.768  45.485  1.00  0.00     0.095 A 
HETATM   37  C   UNL     1      27.020  39.299  45.161  1.00  0.00     0.039 A 
HETATM   38  C   UNL     1      27.618  38.290  45.916  1.00  0.00     0.003 A 
HETATM   39  C   UNL     1      26.943  37.749  47.005  1.00  0.00     0.002 A 
HETATM   40  C   UNL     1      25.657  38.195  47.313  1.00  0.00     0.032 A 
BRANCH  36  41
HETATM   41  O   UNL     1      25.193  40.838  44.825  1.00  0.00    -0.354 OA
HETATM   42  C   UNL     1      26.102  41.413  43.884  1.00  0.00     0.210 C 
ENDBRANCH  36  41
ENDBRANCH  32  35
ENDBRANCH   5  31
TORSDOF 9
ENDMDL
