MODEL 1
REMARK VINA RESULT:     -10.5      0.000      0.000
REMARK  5 active torsions:
REMARK  status: ('A' for Active; 'I' for Inactive)
REMARK    1  A    between atoms: C_2  and  N_3 
REMARK    2  A    between atoms: C_7  and  N_8 
REMARK       I    between atoms: N_8  and  C_9 
REMARK    3  A    between atoms: C_9  and  C_10 
REMARK    4  A    between atoms: C_13  and  C_14 
REMARK    5  A    between atoms: C_14  and  C_15 
ROOT
HETATM    1  N   UNL     1      24.009  47.206  50.253  1.00  0.00    -0.323 N 
HETATM    2  C   UNL     1      24.321  48.285  49.446  1.00  0.00     0.256 C 
HETATM    3  O   UNL     1      25.423  48.558  48.985  1.00  0.00    -0.267 OA
HETATM    4  H   UNL     1      23.031  46.993  50.387  1.00  0.00     0.169 HD
ENDROOT
BRANCH   1   5
HETATM    5  C   UNL     1      24.916  46.358  50.928  1.00  0.00     0.035 A 
HETATM    6  C   UNL     1      25.662  46.755  52.042  1.00  0.00     0.044 A 
HETATM    7  C   UNL     1      26.482  45.825  52.720  1.00  0.00     0.005 A 
HETATM    8  C   UNL     1      26.536  44.509  52.261  1.00  0.00     0.046 A 
HETATM    9  C   UNL     1      27.330  45.920  53.867  1.00  0.00     0.003 A 
HETATM   10  N   UNL     1      27.369  43.817  53.121  1.00  0.00    -0.346 N 
HETATM   11  C   UNL     1      25.821  44.096  51.126  1.00  0.00     0.033 A 
HETATM   12  C   UNL     1      27.875  44.655  54.097  1.00  0.00     0.046 A 
HETATM   13  C   UNL     1      28.758  44.413  55.162  1.00  0.00     0.030 A 
HETATM   14  C   UNL     1      29.086  45.480  56.005  1.00  0.00     0.002 A 
HETATM   15  C   UNL     1      28.553  46.746  55.796  1.00  0.00     0.001 A 
HETATM   16  C   UNL     1      27.676  46.979  54.733  1.00  0.00     0.014 A 
HETATM   17  C   UNL     1      25.013  45.039  50.477  1.00  0.00     0.032 A 
BRANCH  10  18
HETATM   18  C   UNL     1      27.645  42.391  53.036  1.00  0.00     0.125 C 
HETATM   19  C   UNL     1      28.992  42.100  52.399  1.00  0.00     0.027 C 
ENDBRANCH  10  18
ENDBRANCH   1   5
BRANCH   2  20
HETATM   20  C   UNL     1      23.176  49.186  49.114  1.00  0.00     0.032 A 
HETATM   21  C   UNL     1      21.847  48.748  49.161  1.00  0.00     0.017 A 
HETATM   22  C   UNL     1      20.800  49.645  48.925  1.00  0.00     0.008 A 
HETATM   23  C   UNL     1      21.065  50.997  48.668  1.00  0.00    -0.057 A 
HETATM   24  C   UNL     1      22.398  51.427  48.608  1.00  0.00     0.008 A 
HETATM   25  C   UNL     1      23.444  50.530  48.834  1.00  0.00     0.017 A 
BRANCH  23  26
HETATM   26  C   UNL     1      19.936  51.992  48.508  1.00  0.00     0.053 C 
BRANCH  26  27
HETATM   27  C   UNL     1      18.517  51.408  48.602  1.00  0.00     0.091 C 
HETATM   28  C   UNL     1      17.599  51.994  47.559  1.00  0.00     0.229 C 
HETATM   29  O   UNL     1      17.718  51.858  46.353  1.00  0.00    -0.273 OA
HETATM   30  N   UNL     1      16.645  52.732  48.179  1.00  0.00    -0.297 N 
HETATM   31  C   UNL     1      16.712  52.667  49.532  1.00  0.00     0.225 C 
HETATM   32  H   UNL     1      15.961  53.284  47.687  1.00  0.00     0.171 HD
HETATM   33  O   UNL     1      15.982  53.256  50.310  1.00  0.00    -0.273 OA
HETATM   34  C   UNL     1      17.785  51.690  49.915  1.00  0.00     0.117 C 
ENDBRANCH  26  27
ENDBRANCH  23  26
ENDBRANCH   2  20
TORSDOF 5
ENDMDL
MODEL 2
REMARK VINA RESULT:     -10.4      4.048     11.518
REMARK  5 active torsions:
REMARK  status: ('A' for Active; 'I' for Inactive)
REMARK    1  A    between atoms: C_2  and  N_3 
REMARK    2  A    between atoms: C_7  and  N_8 
REMARK       I    between atoms: N_8  and  C_9 
REMARK    3  A    between atoms: C_9  and  C_10 
REMARK    4  A    between atoms: C_13  and  C_14 
REMARK    5  A    between atoms: C_14  and  C_15 
ROOT
HETATM    1  N   UNL     1      26.029  45.506  50.781  1.00  0.00    -0.323 N 
HETATM    2  C   UNL     1      25.678  44.696  51.846  1.00  0.00     0.256 C 
HETATM    3  O   UNL     1      24.542  44.383  52.181  1.00  0.00    -0.267 OA
HETATM    4  H   UNL     1      27.000  45.511  50.502  1.00  0.00     0.169 HD
ENDROOT
BRANCH   1   5
HETATM    5  C   UNL     1      25.174  46.346  50.032  1.00  0.00     0.035 A 
HETATM    6  C   UNL     1      23.930  45.942  49.542  1.00  0.00     0.044 A 
HETATM    7  C   UNL     1      23.090  46.865  48.879  1.00  0.00     0.005 A 
HETATM    8  C   UNL     1      23.523  48.181  48.720  1.00  0.00     0.046 A 
HETATM    9  C   UNL     1      21.790  46.762  48.294  1.00  0.00     0.003 A 
HETATM   10  N   UNL     1      22.504  48.866  48.084  1.00  0.00    -0.346 N 
HETATM   11  C   UNL     1      24.782  48.601  49.176  1.00  0.00     0.033 A 
HETATM   12  C   UNL     1      21.445  48.023  47.802  1.00  0.00     0.046 A 
HETATM   13  C   UNL     1      20.216  48.257  47.162  1.00  0.00     0.030 A 
HETATM   14  C   UNL     1      19.327  47.186  47.027  1.00  0.00     0.002 A 
HETATM   15  C   UNL     1      19.648  45.923  47.512  1.00  0.00     0.001 A 
HETATM   16  C   UNL     1      20.874  45.699  48.145  1.00  0.00     0.014 A 
HETATM   17  C   UNL     1      25.591  47.665  49.833  1.00  0.00     0.032 A 
BRANCH  10  18
HETATM   18  C   UNL     1      22.523  50.290  47.787  1.00  0.00     0.125 C 
HETATM   19  C   UNL     1      21.925  51.121  48.908  1.00  0.00     0.027 C 
ENDBRANCH  10  18
ENDBRANCH   1   5
BRANCH   2  20
HETATM   20  C   UNL     1      26.821  44.159  52.644  1.00  0.00     0.032 A 
HETATM   21  C   UNL     1      28.096  43.983  52.093  1.00  0.00     0.017 A 
HETATM   22  C   UNL     1      29.159  43.558  52.897  1.00  0.00     0.008 A 
HETATM   23  C   UNL     1      28.971  43.331  54.266  1.00  0.00    -0.057 A 
HETATM   24  C   UNL     1      27.689  43.495  54.810  1.00  0.00     0.008 A 
HETATM   25  C   UNL     1      26.624  43.910  54.007  1.00  0.00     0.017 A 
BRANCH  23  26
HETATM   26  C   UNL     1      30.135  42.965  55.160  1.00  0.00     0.053 C 
BRANCH  26  27
HETATM   27  C   UNL     1      30.921  44.150  55.745  1.00  0.00     0.091 C 
HETATM   28  C   UNL     1      31.461  43.842  57.119  1.00  0.00     0.229 C 
HETATM   29  O   UNL     1      32.296  42.991  57.377  1.00  0.00    -0.273 OA
HETATM   30  N   UNL     1      30.838  44.636  58.024  1.00  0.00    -0.297 N 
HETATM   31  C   UNL     1      29.994  45.533  57.458  1.00  0.00     0.225 C 
HETATM   32  H   UNL     1      30.977  44.561  59.019  1.00  0.00     0.171 HD
HETATM   33  O   UNL     1      29.304  46.339  58.059  1.00  0.00    -0.273 OA
HETATM   34  C   UNL     1      30.103  45.424  55.966  1.00  0.00     0.117 C 
ENDBRANCH  26  27
ENDBRANCH  23  26
ENDBRANCH   2  20
TORSDOF 5
ENDMDL
MODEL 3
REMARK VINA RESULT:     -10.3      1.663      3.048
REMARK  5 active torsions:
REMARK  status: ('A' for Active; 'I' for Inactive)
REMARK    1  A    between atoms: C_2  and  N_3 
REMARK    2  A    between atoms: C_7  and  N_8 
REMARK       I    between atoms: N_8  and  C_9 
REMARK    3  A    between atoms: C_9  and  C_10 
REMARK    4  A    between atoms: C_13  and  C_14 
REMARK    5  A    between atoms: C_14  and  C_15 
ROOT
HETATM    1  N   UNL     1      24.459  47.087  51.141  1.00  0.00    -0.323 N 
HETATM    2  C   UNL     1      24.669  47.843  50.001  1.00  0.00     0.256 C 
HETATM    3  O   UNL     1      25.748  48.087  49.476  1.00  0.00    -0.267 OA
HETATM    4  H   UNL     1      23.511  46.800  51.339  1.00  0.00     0.169 HD
ENDROOT
BRANCH   1   5
HETATM    5  C   UNL     1      25.432  46.670  52.077  1.00  0.00     0.035 A 
HETATM    6  C   UNL     1      26.133  45.465  51.978  1.00  0.00     0.044 A 
HETATM    7  C   UNL     1      27.156  45.157  52.902  1.00  0.00     0.005 A 
HETATM    8  C   UNL     1      27.453  46.071  53.914  1.00  0.00     0.046 A 
HETATM    9  C   UNL     1      28.039  44.043  53.052  1.00  0.00     0.003 A 
HETATM   10  N   UNL     1      28.506  45.542  54.638  1.00  0.00    -0.346 N 
HETATM   11  C   UNL     1      26.741  47.272  54.051  1.00  0.00     0.033 A 
HETATM   12  C   UNL     1      28.871  44.304  54.143  1.00  0.00     0.046 A 
HETATM   13  C   UNL     1      29.859  43.394  54.554  1.00  0.00     0.030 A 
HETATM   14  C   UNL     1      30.000  42.202  53.837  1.00  0.00     0.002 A 
HETATM   15  C   UNL     1      29.184  41.923  52.747  1.00  0.00     0.001 A 
HETATM   16  C   UNL     1      28.202  42.833  52.345  1.00  0.00     0.014 A 
HETATM   17  C   UNL     1      25.735  47.553  53.117  1.00  0.00     0.032 A 
BRANCH  10  18
HETATM   18  C   UNL     1      29.168  46.214  55.746  1.00  0.00     0.125 C 
HETATM   19  C   UNL     1      28.495  45.932  57.077  1.00  0.00     0.027 C 
ENDBRANCH  10  18
ENDBRANCH   1   5
BRANCH   2  20
HETATM   20  C   UNL     1      23.436  48.397  49.365  1.00  0.00     0.032 A 
HETATM   21  C   UNL     1      23.205  49.774  49.265  1.00  0.00     0.017 A 
HETATM   22  C   UNL     1      22.080  50.253  48.587  1.00  0.00     0.008 A 
HETATM   23  C   UNL     1      21.185  49.366  47.975  1.00  0.00    -0.057 A 
HETATM   24  C   UNL     1      21.413  47.987  48.090  1.00  0.00     0.008 A 
HETATM   25  C   UNL     1      22.531  47.507  48.775  1.00  0.00     0.017 A 
BRANCH  23  26
HETATM   26  C   UNL     1      20.020  49.878  47.157  1.00  0.00     0.053 C 
BRANCH  26  27
HETATM   27  C   UNL     1      18.765  50.262  47.958  1.00  0.00     0.091 C 
HETATM   28  C   UNL     1      18.971  51.528  48.752  1.00  0.00     0.229 C 
HETATM   29  O   UNL     1      19.170  52.635  48.282  1.00  0.00    -0.273 OA
HETATM   30  N   UNL     1      18.941  51.226  50.074  1.00  0.00    -0.297 N 
HETATM   31  C   UNL     1      18.645  49.926  50.320  1.00  0.00     0.225 C 
HETATM   32  H   UNL     1      19.130  51.897  50.802  1.00  0.00     0.171 HD
HETATM   33  O   UNL     1      18.579  49.407  51.421  1.00  0.00    -0.273 OA
HETATM   34  C   UNL     1      18.336  49.246  49.019  1.00  0.00     0.117 C 
ENDBRANCH  26  27
ENDBRANCH  23  26
ENDBRANCH   2  20
TORSDOF 5
ENDMDL
MODEL 4
REMARK VINA RESULT:      -9.9      1.557      1.975
REMARK  5 active torsions:
REMARK  status: ('A' for Active; 'I' for Inactive)
REMARK    1  A    between atoms: C_2  and  N_3 
REMARK    2  A    between atoms: C_7  and  N_8 
REMARK       I    between atoms: N_8  and  C_9 
REMARK    3  A    between atoms: C_9  and  C_10 
REMARK    4  A    between atoms: C_13  and  C_14 
REMARK    5  A    between atoms: C_14  and  C_15 
ROOT
HETATM    1  N   UNL     1      23.979  47.252  49.945  1.00  0.00    -0.323 N 
HETATM    2  C   UNL     1      24.147  48.502  49.377  1.00  0.00     0.256 C 
HETATM    3  O   UNL     1      25.207  49.095  49.216  1.00  0.00    -0.267 OA
HETATM    4  H   UNL     1      23.082  46.804  49.826  1.00  0.00     0.169 HD
ENDROOT
BRANCH   1   5
HETATM    5  C   UNL     1      24.931  46.522  50.691  1.00  0.00     0.035 A 
HETATM    6  C   UNL     1      25.450  46.954  51.915  1.00  0.00     0.044 A 
HETATM    7  C   UNL     1      26.331  46.128  52.648  1.00  0.00     0.005 A 
HETATM    8  C   UNL     1      26.676  44.879  52.132  1.00  0.00     0.046 A 
HETATM    9  C   UNL     1      27.000  46.278  53.903  1.00  0.00     0.003 A 
HETATM   10  N   UNL     1      27.505  44.275  53.059  1.00  0.00    -0.346 N 
HETATM   11  C   UNL     1      26.192  44.438  50.890  1.00  0.00     0.033 A 
HETATM   12  C   UNL     1      27.728  45.110  54.138  1.00  0.00     0.046 A 
HETATM   13  C   UNL     1      28.502  44.941  55.299  1.00  0.00     0.030 A 
HETATM   14  C   UNL     1      28.526  45.981  56.234  1.00  0.00     0.002 A 
HETATM   15  C   UNL     1      27.807  47.151  56.021  1.00  0.00     0.001 A 
HETATM   16  C   UNL     1      27.042  47.312  54.862  1.00  0.00     0.014 A 
HETATM   17  C   UNL     1      25.317  45.277  50.188  1.00  0.00     0.032 A 
BRANCH  10  18
HETATM   18  C   UNL     1      28.039  42.927  52.937  1.00  0.00     0.125 C 
HETATM   19  C   UNL     1      29.509  42.920  52.558  1.00  0.00     0.027 C 
ENDBRANCH  10  18
ENDBRANCH   1   5
BRANCH   2  20
HETATM   20  C   UNL     1      22.892  49.168  48.914  1.00  0.00     0.032 A 
HETATM   21  C   UNL     1      22.664  50.537  49.100  1.00  0.00     0.017 A 
HETATM   22  C   UNL     1      21.515  51.137  48.577  1.00  0.00     0.008 A 
HETATM   23  C   UNL     1      20.591  50.387  47.837  1.00  0.00    -0.057 A 
HETATM   24  C   UNL     1      20.817  49.014  47.667  1.00  0.00     0.008 A 
HETATM   25  C   UNL     1      21.960  48.410  48.196  1.00  0.00     0.017 A 
BRANCH  23  26
HETATM   26  C   UNL     1      19.396  51.048  47.187  1.00  0.00     0.053 C 
BRANCH  26  27
HETATM   27  C   UNL     1      18.051  50.839  47.900  1.00  0.00     0.091 C 
HETATM   28  C   UNL     1      18.171  51.033  49.391  1.00  0.00     0.229 C 
HETATM   29  O   UNL     1      18.454  52.080  49.950  1.00  0.00    -0.273 OA
HETATM   30  N   UNL     1      17.953  49.844  50.007  1.00  0.00    -0.297 N 
HETATM   31  C   UNL     1      17.601  48.854  49.151  1.00  0.00     0.225 C 
HETATM   32  H   UNL     1      18.053  49.706  51.000  1.00  0.00     0.171 HD
HETATM   33  O   UNL     1      17.374  47.696  49.456  1.00  0.00    -0.273 OA
HETATM   34  C   UNL     1      17.461  49.434  47.774  1.00  0.00     0.117 C 
ENDBRANCH  26  27
ENDBRANCH  23  26
ENDBRANCH   2  20
TORSDOF 5
ENDMDL
MODEL 5
REMARK VINA RESULT:      -9.8      0.834      2.598
REMARK  5 active torsions:
REMARK  status: ('A' for Active; 'I' for Inactive)
REMARK    1  A    between atoms: C_2  and  N_3 
REMARK    2  A    between atoms: C_7  and  N_8 
REMARK       I    between atoms: N_8  and  C_9 
REMARK    3  A    between atoms: C_9  and  C_10 
REMARK    4  A    between atoms: C_13  and  C_14 
REMARK    5  A    between atoms: C_14  and  C_15 
ROOT
HETATM    1  N   UNL     1      24.292  47.211  50.770  1.00  0.00    -0.323 N 
HETATM    2  C   UNL     1      24.598  48.093  49.750  1.00  0.00     0.256 C 
HETATM    3  O   UNL     1      25.686  48.223  49.200  1.00  0.00    -0.267 OA
HETATM    4  H   UNL     1      23.315  47.069  50.983  1.00  0.00     0.169 HD
ENDROOT
BRANCH   1   5
HETATM    5  C   UNL     1      25.203  46.481  51.566  1.00  0.00     0.035 A 
HETATM    6  C   UNL     1      25.611  45.176  51.274  1.00  0.00     0.044 A 
HETATM    7  C   UNL     1      26.594  44.542  52.067  1.00  0.00     0.005 A 
HETATM    8  C   UNL     1      27.148  45.236  53.143  1.00  0.00     0.046 A 
HETATM    9  C   UNL     1      27.214  43.255  52.015  1.00  0.00     0.003 A 
HETATM   10  N   UNL     1      28.098  44.407  53.710  1.00  0.00    -0.346 N 
HETATM   11  C   UNL     1      26.730  46.534  53.473  1.00  0.00     0.033 A 
HETATM   12  C   UNL     1      28.148  43.192  53.052  1.00  0.00     0.046 A 
HETATM   13  C   UNL     1      28.932  42.047  53.273  1.00  0.00     0.030 A 
HETATM   14  C   UNL     1      28.760  40.954  52.418  1.00  0.00     0.002 A 
HETATM   15  C   UNL     1      27.839  40.996  51.379  1.00  0.00     0.001 A 
HETATM   16  C   UNL     1      27.061  42.138  51.167  1.00  0.00     0.014 A 
HETATM   17  C   UNL     1      25.757  47.139  52.667  1.00  0.00     0.032 A 
BRANCH  10  18
HETATM   18  C   UNL     1      28.959  44.776  54.824  1.00  0.00     0.125 C 
HETATM   19  C   UNL     1      28.263  45.694  55.812  1.00  0.00     0.027 C 
ENDBRANCH  10  18
ENDBRANCH   1   5
BRANCH   2  20
HETATM   20  C   UNL     1      23.468  48.954  49.287  1.00  0.00     0.032 A 
HETATM   21  C   UNL     1      22.162  48.465  49.169  1.00  0.00     0.017 A 
HETATM   22  C   UNL     1      21.117  49.325  48.814  1.00  0.00     0.008 A 
HETATM   23  C   UNL     1      21.357  50.689  48.602  1.00  0.00    -0.057 A 
HETATM   24  C   UNL     1      22.669  51.170  48.709  1.00  0.00     0.008 A 
HETATM   25  C   UNL     1      23.715  50.311  49.053  1.00  0.00     0.017 A 
BRANCH  23  26
HETATM   26  C   UNL     1      20.218  51.642  48.314  1.00  0.00     0.053 C 
BRANCH  26  27
HETATM   27  C   UNL     1      18.807  51.086  48.566  1.00  0.00     0.091 C 
HETATM   28  C   UNL     1      17.812  51.604  47.559  1.00  0.00     0.229 C 
HETATM   29  O   UNL     1      17.831  51.374  46.361  1.00  0.00    -0.273 OA
HETATM   30  N   UNL     1      16.917  52.400  48.195  1.00  0.00    -0.297 N 
HETATM   31  C   UNL     1      17.093  52.437  49.538  1.00  0.00     0.225 C 
HETATM   32  H   UNL     1      16.199  52.922  47.718  1.00  0.00     0.171 HD
HETATM   33  O   UNL     1      16.433  53.094  50.325  1.00  0.00    -0.273 OA
HETATM   34  C   UNL     1      18.186  51.478  49.909  1.00  0.00     0.117 C 
ENDBRANCH  26  27
ENDBRANCH  23  26
ENDBRANCH   2  20
TORSDOF 5
ENDMDL
MODEL 6
REMARK VINA RESULT:      -9.6      8.257     11.865
REMARK  5 active torsions:
REMARK  status: ('A' for Active; 'I' for Inactive)
REMARK    1  A    between atoms: C_2  and  N_3 
REMARK    2  A    between atoms: C_7  and  N_8 
REMARK       I    between atoms: N_8  and  C_9 
REMARK    3  A    between atoms: C_9  and  C_10 
REMARK    4  A    between atoms: C_13  and  C_14 
REMARK    5  A    between atoms: C_14  and  C_15 
ROOT
HETATM    1  N   UNL     1      28.630  42.003  51.251  1.00  0.00    -0.323 N 
HETATM    2  C   UNL     1      27.736  40.996  50.932  1.00  0.00     0.256 C 
HETATM    3  O   UNL     1      26.628  40.821  51.426  1.00  0.00    -0.267 OA
HETATM    4  H   UNL     1      29.410  42.146  50.625  1.00  0.00     0.169 HD
ENDROOT
BRANCH   1   5
HETATM    5  C   UNL     1      28.581  42.861  52.372  1.00  0.00     0.035 A 
HETATM    6  C   UNL     1      29.477  42.788  53.441  1.00  0.00     0.044 A 
HETATM    7  C   UNL     1      29.422  43.739  54.485  1.00  0.00     0.005 A 
HETATM    8  C   UNL     1      28.460  44.748  54.433  1.00  0.00     0.046 A 
HETATM    9  C   UNL     1      30.190  43.933  55.675  1.00  0.00     0.003 A 
HETATM   10  N   UNL     1      28.657  45.549  55.542  1.00  0.00    -0.346 N 
HETATM   11  C   UNL     1      27.530  44.822  53.384  1.00  0.00     0.033 A 
HETATM   12  C   UNL     1      29.693  45.068  56.320  1.00  0.00     0.046 A 
HETATM   13  C   UNL     1      30.239  45.530  57.529  1.00  0.00     0.030 A 
HETATM   14  C   UNL     1      31.310  44.823  58.084  1.00  0.00     0.002 A 
HETATM   15  C   UNL     1      31.822  43.693  57.458  1.00  0.00     0.001 A 
HETATM   16  C   UNL     1      31.272  43.238  56.256  1.00  0.00     0.014 A 
HETATM   17  C   UNL     1      27.611  43.868  52.362  1.00  0.00     0.032 A 
BRANCH  10  18
HETATM   18  C   UNL     1      27.903  46.760  55.832  1.00  0.00     0.125 C 
HETATM   19  C   UNL     1      28.072  47.817  54.755  1.00  0.00     0.027 C 
ENDBRANCH  10  18
ENDBRANCH   1   5
BRANCH   2  20
HETATM   20  C   UNL     1      28.191  40.048  49.871  1.00  0.00     0.032 A 
HETATM   21  C   UNL     1      28.824  38.837  50.178  1.00  0.00     0.017 A 
HETATM   22  C   UNL     1      29.158  37.939  49.158  1.00  0.00     0.008 A 
HETATM   23  C   UNL     1      28.839  38.224  47.824  1.00  0.00    -0.057 A 
HETATM   24  C   UNL     1      28.218  39.444  47.522  1.00  0.00     0.008 A 
HETATM   25  C   UNL     1      27.892  40.346  48.537  1.00  0.00     0.017 A 
BRANCH  23  26
HETATM   26  C   UNL     1      29.109  37.216  46.729  1.00  0.00     0.053 C 
BRANCH  26  27
HETATM   27  C   UNL     1      28.611  37.607  45.329  1.00  0.00     0.091 C 
HETATM   28  C   UNL     1      27.390  36.818  44.927  1.00  0.00     0.229 C 
HETATM   29  O   UNL     1      26.300  36.872  45.473  1.00  0.00    -0.273 OA
HETATM   30  N   UNL     1      27.712  36.010  43.887  1.00  0.00    -0.297 N 
HETATM   31  C   UNL     1      28.978  36.194  43.437  1.00  0.00     0.225 C 
HETATM   32  H   UNL     1      27.079  35.333  43.492  1.00  0.00     0.171 HD
HETATM   33  O   UNL     1      29.508  35.576  42.530  1.00  0.00    -0.273 OA
HETATM   34  C   UNL     1      29.596  37.335  44.190  1.00  0.00     0.117 C 
ENDBRANCH  26  27
ENDBRANCH  23  26
ENDBRANCH   2  20
TORSDOF 5
ENDMDL
MODEL 7
REMARK VINA RESULT:      -9.3      7.286     11.544
REMARK  5 active torsions:
REMARK  status: ('A' for Active; 'I' for Inactive)
REMARK    1  A    between atoms: C_2  and  N_3 
REMARK    2  A    between atoms: C_7  and  N_8 
REMARK       I    between atoms: N_8  and  C_9 
REMARK    3  A    between atoms: C_9  and  C_10 
REMARK    4  A    between atoms: C_13  and  C_14 
REMARK    5  A    between atoms: C_14  and  C_15 
ROOT
HETATM    1  N   UNL     1      15.807  54.060  50.745  1.00  0.00    -0.323 N 
HETATM    2  C   UNL     1      15.191  55.213  50.293  1.00  0.00     0.256 C 
HETATM    3  O   UNL     1      14.739  55.407  49.171  1.00  0.00    -0.267 OA
HETATM    4  H   UNL     1      15.943  53.966  51.742  1.00  0.00     0.169 HD
ENDROOT
BRANCH   1   5
HETATM    5  C   UNL     1      16.282  52.985  49.961  1.00  0.00     0.035 A 
HETATM    6  C   UNL     1      17.637  52.738  49.728  1.00  0.00     0.044 A 
HETATM    7  C   UNL     1      18.040  51.591  49.007  1.00  0.00     0.005 A 
HETATM    8  C   UNL     1      17.066  50.713  48.532  1.00  0.00     0.046 A 
HETATM    9  C   UNL     1      19.316  51.070  48.629  1.00  0.00     0.003 A 
HETATM   10  N   UNL     1      17.732  49.673  47.909  1.00  0.00    -0.346 N 
HETATM   11  C   UNL     1      15.698  50.958  48.726  1.00  0.00     0.033 A 
HETATM   12  C   UNL     1      19.099  49.873  47.942  1.00  0.00     0.046 A 
HETATM   13  C   UNL     1      20.162  49.108  47.434  1.00  0.00     0.030 A 
HETATM   14  C   UNL     1      21.466  49.572  47.635  1.00  0.00     0.002 A 
HETATM   15  C   UNL     1      21.705  50.760  48.317  1.00  0.00     0.001 A 
HETATM   16  C   UNL     1      20.642  51.516  48.818  1.00  0.00     0.014 A 
HETATM   17  C   UNL     1      15.329  52.100  49.448  1.00  0.00     0.032 A 
BRANCH  10  18
HETATM   18  C   UNL     1      17.084  48.505  47.332  1.00  0.00     0.125 C 
HETATM   19  C   UNL     1      16.797  47.433  48.368  1.00  0.00     0.027 C 
ENDBRANCH  10  18
ENDBRANCH   1   5
BRANCH   2  20
HETATM   20  C   UNL     1      15.073  56.311  51.299  1.00  0.00     0.032 A 
HETATM   21  C   UNL     1      15.074  56.061  52.677  1.00  0.00     0.017 A 
HETATM   22  C   UNL     1      15.047  57.123  53.586  1.00  0.00     0.008 A 
HETATM   23  C   UNL     1      15.048  58.449  53.134  1.00  0.00    -0.057 A 
HETATM   24  C   UNL     1      15.034  58.693  51.753  1.00  0.00     0.008 A 
HETATM   25  C   UNL     1      15.051  57.634  50.844  1.00  0.00     0.017 A 
BRANCH  23  26
HETATM   26  C   UNL     1      15.118  59.603  54.110  1.00  0.00     0.053 C 
BRANCH  26  27
HETATM   27  C   UNL     1      15.647  59.256  55.511  1.00  0.00     0.091 C 
HETATM   28  C   UNL     1      14.602  59.476  56.576  1.00  0.00     0.229 C 
HETATM   29  O   UNL     1      13.552  58.862  56.677  1.00  0.00    -0.273 OA
HETATM   30  N   UNL     1      14.999  60.495  57.377  1.00  0.00    -0.297 N 
HETATM   31  C   UNL     1      16.236  60.963  57.076  1.00  0.00     0.225 C 
HETATM   32  H   UNL     1      14.430  60.876  58.117  1.00  0.00     0.171 HD
HETATM   33  O   UNL     1      16.804  61.885  57.635  1.00  0.00    -0.273 OA
HETATM   34  C   UNL     1      16.823  60.110  55.990  1.00  0.00     0.117 C 
ENDBRANCH  26  27
ENDBRANCH  23  26
ENDBRANCH   2  20
TORSDOF 5
ENDMDL
MODEL 8
REMARK VINA RESULT:      -9.1      3.464     11.263
REMARK  5 active torsions:
REMARK  status: ('A' for Active; 'I' for Inactive)
REMARK    1  A    between atoms: C_2  and  N_3 
REMARK    2  A    between atoms: C_7  and  N_8 
REMARK       I    between atoms: N_8  and  C_9 
REMARK    3  A    between atoms: C_9  and  C_10 
REMARK    4  A    between atoms: C_13  and  C_14 
REMARK    5  A    between atoms: C_14  and  C_15 
ROOT
HETATM    1  N   UNL     1      23.445  45.835  48.788  1.00  0.00    -0.323 N 
HETATM    2  C   UNL     1      23.494  44.699  49.576  1.00  0.00     0.256 C 
HETATM    3  O   UNL     1      22.570  43.925  49.799  1.00  0.00    -0.267 OA
HETATM    4  H   UNL     1      24.325  46.259  48.529  1.00  0.00     0.169 HD
ENDROOT
BRANCH   1   5
HETATM    5  C   UNL     1      22.288  46.484  48.301  1.00  0.00     0.035 A 
HETATM    6  C   UNL     1      21.970  47.814  48.588  1.00  0.00     0.044 A 
HETATM    7  C   UNL     1      20.842  48.423  47.992  1.00  0.00     0.005 A 
HETATM    8  C   UNL     1      20.053  47.677  47.117  1.00  0.00     0.046 A 
HETATM    9  C   UNL     1      20.280  49.734  48.073  1.00  0.00     0.003 A 
HETATM   10  N   UNL     1      19.058  48.518  46.656  1.00  0.00    -0.346 N 
HETATM   11  C   UNL     1      20.336  46.330  46.839  1.00  0.00     0.033 A 
HETATM   12  C   UNL     1      19.165  49.770  47.232  1.00  0.00     0.046 A 
HETATM   13  C   UNL     1      18.385  50.930  47.087  1.00  0.00     0.030 A 
HETATM   14  C   UNL     1      18.753  52.069  47.810  1.00  0.00     0.002 A 
HETATM   15  C   UNL     1      19.860  52.056  48.650  1.00  0.00     0.001 A 
HETATM   16  C   UNL     1      20.629  50.898  48.791  1.00  0.00     0.014 A 
HETATM   17  C   UNL     1      21.462  45.755  47.441  1.00  0.00     0.032 A 
BRANCH  10  18
HETATM   18  C   UNL     1      18.057  48.151  45.666  1.00  0.00     0.125 C 
HETATM   19  C   UNL     1      18.598  48.205  44.249  1.00  0.00     0.027 C 
ENDBRANCH  10  18
ENDBRANCH   1   5
BRANCH   2  20
HETATM   20  C   UNL     1      24.821  44.410  50.199  1.00  0.00     0.032 A 
HETATM   21  C   UNL     1      26.008  44.970  49.712  1.00  0.00     0.017 A 
HETATM   22  C   UNL     1      27.218  44.741  50.376  1.00  0.00     0.008 A 
HETATM   23  C   UNL     1      27.255  43.975  51.548  1.00  0.00    -0.057 A 
HETATM   24  C   UNL     1      26.065  43.406  52.023  1.00  0.00     0.008 A 
HETATM   25  C   UNL     1      24.857  43.625  51.357  1.00  0.00     0.017 A 
BRANCH  23  26
HETATM   26  C   UNL     1      28.543  43.805  52.324  1.00  0.00     0.053 C 
BRANCH  26  27
HETATM   27  C   UNL     1      28.383  43.601  53.839  1.00  0.00     0.091 C 
HETATM   28  C   UNL     1      28.421  44.909  54.589  1.00  0.00     0.229 C 
HETATM   29  O   UNL     1      27.600  45.806  54.490  1.00  0.00    -0.273 OA
HETATM   30  N   UNL     1      29.538  44.943  55.357  1.00  0.00    -0.297 N 
HETATM   31  C   UNL     1      30.247  43.788  55.323  1.00  0.00     0.225 C 
HETATM   32  H   UNL     1      29.820  45.748  55.893  1.00  0.00     0.171 HD
HETATM   33  O   UNL     1      31.294  43.577  55.910  1.00  0.00    -0.273 OA
HETATM   34  C   UNL     1      29.492  42.782  54.504  1.00  0.00     0.117 C 
ENDBRANCH  26  27
ENDBRANCH  23  26
ENDBRANCH   2  20
TORSDOF 5
ENDMDL
MODEL 9
REMARK VINA RESULT:      -9.0      2.245      4.088
REMARK  5 active torsions:
REMARK  status: ('A' for Active; 'I' for Inactive)
REMARK    1  A    between atoms: C_2  and  N_3 
REMARK    2  A    between atoms: C_7  and  N_8 
REMARK       I    between atoms: N_8  and  C_9 
REMARK    3  A    between atoms: C_9  and  C_10 
REMARK    4  A    between atoms: C_13  and  C_14 
REMARK    5  A    between atoms: C_14  and  C_15 
ROOT
HETATM    1  N   UNL     1      25.222  45.938  50.308  1.00  0.00    -0.323 N 
HETATM    2  C   UNL     1      25.713  47.036  49.625  1.00  0.00     0.256 C 
HETATM    3  O   UNL     1      26.879  47.237  49.307  1.00  0.00    -0.267 OA
HETATM    4  H   UNL     1      24.221  45.808  50.320  1.00  0.00     0.169 HD
ENDROOT
BRANCH   1   5
HETATM    5  C   UNL     1      25.973  44.965  51.007  1.00  0.00     0.035 A 
HETATM    6  C   UNL     1      26.362  43.744  50.451  1.00  0.00     0.044 A 
HETATM    7  C   UNL     1      27.188  42.859  51.181  1.00  0.00     0.005 A 
HETATM    8  C   UNL     1      27.607  43.223  52.461  1.00  0.00     0.046 A 
HETATM    9  C   UNL     1      27.752  41.579  50.888  1.00  0.00     0.003 A 
HETATM   10  N   UNL     1      28.425  42.208  52.920  1.00  0.00    -0.346 N 
HETATM   11  C   UNL     1      27.202  44.431  53.050  1.00  0.00     0.033 A 
HETATM   12  C   UNL     1      28.519  41.191  51.989  1.00  0.00     0.046 A 
HETATM   13  C   UNL     1      29.211  39.968  52.015  1.00  0.00     0.030 A 
HETATM   14  C   UNL     1      29.119  39.133  50.897  1.00  0.00     0.002 A 
HETATM   15  C   UNL     1      28.364  39.500  49.790  1.00  0.00     0.001 A 
HETATM   16  C   UNL     1      27.677  40.718  49.773  1.00  0.00     0.014 A 
HETATM   17  C   UNL     1      26.386  45.289  52.302  1.00  0.00     0.032 A 
BRANCH  10  18
HETATM   18  C   UNL     1      29.127  42.225  54.195  1.00  0.00     0.125 C 
HETATM   19  C   UNL     1      30.406  43.040  54.139  1.00  0.00     0.027 C 
ENDBRANCH  10  18
ENDBRANCH   1   5
BRANCH   2  20
HETATM   20  C   UNL     1      24.694  48.060  49.245  1.00  0.00     0.032 A 
HETATM   21  C   UNL     1      25.051  49.360  48.866  1.00  0.00     0.017 A 
HETATM   22  C   UNL     1      24.073  50.262  48.435  1.00  0.00     0.008 A 
HETATM   23  C   UNL     1      22.730  49.872  48.349  1.00  0.00    -0.057 A 
HETATM   24  C   UNL     1      22.377  48.573  48.743  1.00  0.00     0.008 A 
HETATM   25  C   UNL     1      23.350  47.674  49.182  1.00  0.00     0.017 A 
BRANCH  23  26
HETATM   26  C   UNL     1      21.683  50.810  47.792  1.00  0.00     0.053 C 
BRANCH  26  27
HETATM   27  C   UNL     1      20.675  51.362  48.814  1.00  0.00     0.091 C 
HETATM   28  C   UNL     1      21.012  50.937  50.221  1.00  0.00     0.229 C 
HETATM   29  O   UNL     1      22.014  51.260  50.838  1.00  0.00    -0.273 OA
HETATM   30  N   UNL     1      20.042  50.104  50.673  1.00  0.00    -0.297 N 
HETATM   31  C   UNL     1      19.012  49.960  49.803  1.00  0.00     0.225 C 
HETATM   32  H   UNL     1      20.085  49.631  51.561  1.00  0.00     0.171 HD
HETATM   33  O   UNL     1      18.034  49.251  49.969  1.00  0.00    -0.273 OA
HETATM   34  C   UNL     1      19.236  50.873  48.634  1.00  0.00     0.117 C 
ENDBRANCH  26  27
ENDBRANCH  23  26
ENDBRANCH   2  20
TORSDOF 5
ENDMDL
MODEL 10
REMARK VINA RESULT:      -8.8      8.928     11.752
REMARK  5 active torsions:
REMARK  status: ('A' for Active; 'I' for Inactive)
REMARK    1  A    between atoms: C_2  and  N_3 
REMARK    2  A    between atoms: C_7  and  N_8 
REMARK       I    between atoms: N_8  and  C_9 
REMARK    3  A    between atoms: C_9  and  C_10 
REMARK    4  A    between atoms: C_13  and  C_14 
REMARK    5  A    between atoms: C_14  and  C_15 
ROOT
HETATM    1  N   UNL     1      28.236  40.434  51.016  1.00  0.00    -0.323 N 
HETATM    2  C   UNL     1      27.573  41.518  51.563  1.00  0.00     0.256 C 
HETATM    3  O   UNL     1      26.467  41.936  51.241  1.00  0.00    -0.267 OA
HETATM    4  H   UNL     1      29.041  40.082  51.515  1.00  0.00     0.169 HD
ENDROOT
BRANCH   1   5
HETATM    5  C   UNL     1      27.917  39.758  49.817  1.00  0.00     0.035 A 
HETATM    6  C   UNL     1      28.118  40.302  48.546  1.00  0.00     0.044 A 
HETATM    7  C   UNL     1      27.859  39.531  47.391  1.00  0.00     0.005 A 
HETATM    8  C   UNL     1      27.398  38.223  47.538  1.00  0.00     0.046 A 
HETATM    9  C   UNL     1      27.978  39.793  45.991  1.00  0.00     0.003 A 
HETATM   10  N   UNL     1      27.269  37.695  46.267  1.00  0.00    -0.346 N 
HETATM   11  C   UNL     1      27.158  37.667  48.805  1.00  0.00     0.033 A 
HETATM   12  C   UNL     1      27.602  38.634  45.308  1.00  0.00     0.046 A 
HETATM   13  C   UNL     1      27.610  38.566  43.905  1.00  0.00     0.030 A 
HETATM   14  C   UNL     1      28.011  39.699  43.190  1.00  0.00     0.002 A 
HETATM   15  C   UNL     1      28.391  40.863  43.849  1.00  0.00     0.001 A 
HETATM   16  C   UNL     1      28.379  40.923  45.245  1.00  0.00     0.014 A 
HETATM   17  C   UNL     1      27.428  38.453  49.932  1.00  0.00     0.032 A 
BRANCH  10  18
HETATM   18  C   UNL     1      26.876  36.325  45.976  1.00  0.00     0.125 C 
HETATM   19  C   UNL     1      25.371  36.171  45.851  1.00  0.00     0.027 C 
ENDBRANCH  10  18
ENDBRANCH   1   5
BRANCH   2  20
HETATM   20  C   UNL     1      28.299  42.224  52.662  1.00  0.00     0.032 A 
HETATM   21  C   UNL     1      27.641  42.702  53.801  1.00  0.00     0.017 A 
HETATM   22  C   UNL     1      28.369  43.281  54.845  1.00  0.00     0.008 A 
HETATM   23  C   UNL     1      29.766  43.365  54.779  1.00  0.00    -0.057 A 
HETATM   24  C   UNL     1      30.419  42.898  53.630  1.00  0.00     0.008 A 
HETATM   25  C   UNL     1      29.692  42.328  52.582  1.00  0.00     0.017 A 
BRANCH  23  26
HETATM   26  C   UNL     1      30.568  43.901  55.945  1.00  0.00     0.053 C 
BRANCH  26  27
HETATM   27  C   UNL     1      30.436  45.411  56.203  1.00  0.00     0.091 C 
HETATM   28  C   UNL     1      29.866  45.698  57.569  1.00  0.00     0.229 C 
HETATM   29  O   UNL     1      30.401  45.430  58.632  1.00  0.00    -0.273 OA
HETATM   30  N   UNL     1      28.643  46.266  57.424  1.00  0.00    -0.297 N 
HETATM   31  C   UNL     1      28.314  46.505  56.130  1.00  0.00     0.225 C 
HETATM   32  H   UNL     1      28.033  46.479  58.197  1.00  0.00     0.171 HD
HETATM   33  O   UNL     1      27.264  46.987  55.740  1.00  0.00    -0.273 OA
HETATM   34  C   UNL     1      29.484  46.149  55.261  1.00  0.00     0.117 C 
ENDBRANCH  26  27
ENDBRANCH  23  26
ENDBRANCH   2  20
TORSDOF 5
ENDMDL
