MODEL 1
REMARK VINA RESULT:      -9.1      0.000      0.000
REMARK  3 active torsions:
REMARK  status: ('A' for Active; 'I' for Inactive)
REMARK    1  A    between atoms: C_8  and  C_9 
REMARK    2  A    between atoms: C_14  and  C_15 
REMARK    3  A    between atoms: C_16  and  O_17 
ROOT
HETATM    1  C   UNL     1      27.500  40.500  50.296  1.00  0.00     0.143 A 
HETATM    2  N   UNL     1      26.248  40.825  50.543  1.00  0.00    -0.223 NA
HETATM    3  C   UNL     1      26.268  42.089  51.098  1.00  0.00     0.149 A 
HETATM    4  C   UNL     1      27.576  42.533  51.190  1.00  0.00     0.046 A 
HETATM    5  C   UNL     1      28.115  43.857  51.597  1.00  0.00     0.070 C 
HETATM    6  C   UNL     1      27.619  44.360  52.968  1.00  0.00     0.045 C 
HETATM    7  C   UNL     1      26.273  43.780  53.457  1.00  0.00     0.132 C 
HETATM    8  N   UNL     1      25.213  43.801  52.465  1.00  0.00    -0.355 N 
HETATM    9  C   UNL     1      25.067  42.837  51.483  1.00  0.00     0.272 C 
HETATM   10  O   UNL     1      23.959  42.655  50.984  1.00  0.00    -0.266 OA
HETATM   11  N   UNL     1      28.340  41.506  50.701  1.00  0.00    -0.341 N 
HETATM   12  H   UNL     1      29.343  41.506  50.597  1.00  0.00     0.167 HD
HETATM   13  H   UNL     1      24.319  44.197  52.729  1.00  0.00     0.162 HD
ENDROOT
BRANCH   1  14
HETATM   14  C   UNL     1      27.912  39.224  49.651  1.00  0.00     0.059 A 
HETATM   15  C   UNL     1      28.887  38.335  50.063  1.00  0.00     0.040 A 
HETATM   16  C   UNL     1      29.824  38.296  51.208  1.00  0.00     0.071 C 
HETATM   17  N   UNL     1      28.878  37.338  49.123  1.00  0.00    -0.281 N 
HETATM   18  H   UNL     1      29.461  36.508  49.086  1.00  0.00     0.189 HD
HETATM   19  N   UNL     1      27.980  37.510  48.146  1.00  0.00    -0.179 NA
HETATM   20  C   UNL     1      27.382  38.670  48.456  1.00  0.00     0.067 A 
HETATM   21  C   UNL     1      26.315  39.216  47.578  1.00  0.00     0.073 C 
ENDBRANCH   1  14
BRANCH   6  22
HETATM   22  C   UNL     1      28.723  44.218  54.021  1.00  0.00    -0.019 A 
HETATM   23  C   UNL     1      28.986  45.261  54.937  1.00  0.00     0.074 A 
HETATM   24  C   UNL     1      29.995  45.106  55.895  1.00  0.00     0.037 A 
HETATM   25  C   UNL     1      30.755  43.937  55.942  1.00  0.00     0.003 A 
HETATM   26  C   UNL     1      30.525  42.919  55.024  1.00  0.00     0.001 A 
HETATM   27  C   UNL     1      29.523  43.061  54.065  1.00  0.00     0.010 A 
BRANCH  23  28
HETATM   28  O   UNL     1      28.214  46.386  54.809  1.00  0.00    -0.355 OA
HETATM   29  C   UNL     1      27.769  47.025  55.999  1.00  0.00     0.210 C 
ENDBRANCH  23  28
ENDBRANCH   6  22
TORSDOF 3
ENDMDL
MODEL 2
REMARK VINA RESULT:      -9.0      2.781      5.151
REMARK  3 active torsions:
REMARK  status: ('A' for Active; 'I' for Inactive)
REMARK    1  A    between atoms: C_8  and  C_9 
REMARK    2  A    between atoms: C_14  and  C_15 
REMARK    3  A    between atoms: C_16  and  O_17 
ROOT
HETATM    1  C   UNL     1      25.525  43.738  51.035  1.00  0.00     0.143 A 
HETATM    2  N   UNL     1      26.380  42.924  50.451  1.00  0.00    -0.223 NA
HETATM    3  C   UNL     1      27.219  42.453  51.441  1.00  0.00     0.149 A 
HETATM    4  C   UNL     1      26.855  43.007  52.657  1.00  0.00     0.046 A 
HETATM    5  C   UNL     1      27.358  42.730  54.029  1.00  0.00     0.070 C 
HETATM    6  C   UNL     1      28.889  42.845  54.187  1.00  0.00     0.045 C 
HETATM    7  C   UNL     1      29.720  42.653  52.899  1.00  0.00     0.132 C 
HETATM    8  N   UNL     1      29.350  41.492  52.110  1.00  0.00    -0.355 N 
HETATM    9  C   UNL     1      28.293  41.482  51.216  1.00  0.00     0.272 C 
HETATM   10  O   UNL     1      28.302  40.673  50.290  1.00  0.00    -0.266 OA
HETATM   11  N   UNL     1      25.799  43.834  52.375  1.00  0.00    -0.341 N 
HETATM   12  H   UNL     1      25.272  44.376  53.041  1.00  0.00     0.167 HD
HETATM   13  H   UNL     1      30.084  40.856  51.822  1.00  0.00     0.162 HD
ENDROOT
BRANCH   1  14
HETATM   14  C   UNL     1      24.417  44.426  50.318  1.00  0.00     0.059 A 
HETATM   15  C   UNL     1      24.204  45.785  50.180  1.00  0.00     0.040 A 
HETATM   16  C   UNL     1      24.927  46.990  50.642  1.00  0.00     0.071 C 
HETATM   17  N   UNL     1      23.050  45.891  49.448  1.00  0.00    -0.281 N 
HETATM   18  H   UNL     1      22.575  46.735  49.148  1.00  0.00     0.189 HD
HETATM   19  N   UNL     1      22.508  44.717  49.103  1.00  0.00    -0.179 NA
HETATM   20  C   UNL     1      23.336  43.807  49.637  1.00  0.00     0.067 A 
HETATM   21  C   UNL     1      23.052  42.357  49.479  1.00  0.00     0.073 C 
ENDBRANCH   1  14
BRANCH   6  22
HETATM   22  C   UNL     1      29.256  44.137  54.923  1.00  0.00    -0.019 A 
HETATM   23  C   UNL     1      30.313  44.160  55.859  1.00  0.00     0.074 A 
HETATM   24  C   UNL     1      30.636  45.355  56.514  1.00  0.00     0.037 A 
HETATM   25  C   UNL     1      29.909  46.520  56.263  1.00  0.00     0.003 A 
HETATM   26  C   UNL     1      28.846  46.498  55.367  1.00  0.00     0.001 A 
HETATM   27  C   UNL     1      28.515  45.315  54.709  1.00  0.00     0.010 A 
BRANCH  23  28
HETATM   28  O   UNL     1      30.961  42.971  56.068  1.00  0.00    -0.355 OA
HETATM   29  C   UNL     1      31.879  42.896  57.152  1.00  0.00     0.210 C 
ENDBRANCH  23  28
ENDBRANCH   6  22
TORSDOF 3
ENDMDL
MODEL 3
REMARK VINA RESULT:      -8.9      4.099      6.772
REMARK  3 active torsions:
REMARK  status: ('A' for Active; 'I' for Inactive)
REMARK    1  A    between atoms: C_8  and  C_9 
REMARK    2  A    between atoms: C_14  and  C_15 
REMARK    3  A    between atoms: C_16  and  O_17 
ROOT
HETATM    1  C   UNL     1      25.211  47.343  50.064  1.00  0.00     0.143 A 
HETATM    2  N   UNL     1      24.874  46.137  49.653  1.00  0.00    -0.223 NA
HETATM    3  C   UNL     1      24.875  45.324  50.768  1.00  0.00     0.149 A 
HETATM    4  C   UNL     1      25.228  46.067  51.882  1.00  0.00     0.046 A 
HETATM    5  C   UNL     1      25.254  45.690  53.321  1.00  0.00     0.070 C 
HETATM    6  C   UNL     1      26.073  44.422  53.638  1.00  0.00     0.045 C 
HETATM    7  C   UNL     1      26.258  43.424  52.472  1.00  0.00     0.132 C 
HETATM    8  N   UNL     1      25.038  43.106  51.753  1.00  0.00    -0.355 N 
HETATM    9  C   UNL     1      24.512  43.904  50.751  1.00  0.00     0.272 C 
HETATM   10  O   UNL     1      23.777  43.396  49.907  1.00  0.00    -0.266 OA
HETATM   11  N   UNL     1      25.459  47.333  51.413  1.00  0.00    -0.341 N 
HETATM   12  H   UNL     1      25.710  48.138  51.965  1.00  0.00     0.167 HD
HETATM   13  H   UNL     1      24.811  42.130  51.605  1.00  0.00     0.162 HD
ENDROOT
BRANCH   1  14
HETATM   14  C   UNL     1      25.283  48.531  49.171  1.00  0.00     0.059 A 
HETATM   15  C   UNL     1      26.404  49.244  48.788  1.00  0.00     0.040 A 
HETATM   16  C   UNL     1      27.849  49.122  49.082  1.00  0.00     0.071 C 
HETATM   17  N   UNL     1      25.930  50.241  47.976  1.00  0.00    -0.281 N 
HETATM   18  H   UNL     1      26.458  50.968  47.506  1.00  0.00     0.189 HD
HETATM   19  N   UNL     1      24.602  50.227  47.804  1.00  0.00    -0.179 NA
HETATM   20  C   UNL     1      24.191  49.183  48.538  1.00  0.00     0.067 A 
HETATM   21  C   UNL     1      22.746  48.847  48.613  1.00  0.00     0.073 C 
ENDBRANCH   1  14
BRANCH   6  22
HETATM   22  C   UNL     1      27.407  44.795  54.292  1.00  0.00    -0.019 A 
HETATM   23  C   UNL     1      28.375  43.807  54.575  1.00  0.00     0.074 A 
HETATM   24  C   UNL     1      29.590  44.172  55.168  1.00  0.00     0.037 A 
HETATM   25  C   UNL     1      29.845  45.504  55.498  1.00  0.00     0.003 A 
HETATM   26  C   UNL     1      28.885  46.479  55.252  1.00  0.00     0.001 A 
HETATM   27  C   UNL     1      27.671  46.127  54.663  1.00  0.00     0.010 A 
BRANCH  23  28
HETATM   28  O   UNL     1      28.038  42.520  54.245  1.00  0.00    -0.355 OA
HETATM   29  C   UNL     1      29.032  41.710  53.629  1.00  0.00     0.210 C 
ENDBRANCH  23  28
ENDBRANCH   6  22
TORSDOF 3
ENDMDL
MODEL 4
REMARK VINA RESULT:      -8.8      4.041      6.843
REMARK  3 active torsions:
REMARK  status: ('A' for Active; 'I' for Inactive)
REMARK    1  A    between atoms: C_8  and  C_9 
REMARK    2  A    between atoms: C_14  and  C_15 
REMARK    3  A    between atoms: C_16  and  O_17 
ROOT
HETATM    1  C   UNL     1      25.309  47.268  50.099  1.00  0.00     0.143 A 
HETATM    2  N   UNL     1      24.988  46.067  49.665  1.00  0.00    -0.223 NA
HETATM    3  C   UNL     1      24.992  45.233  50.765  1.00  0.00     0.149 A 
HETATM    4  C   UNL     1      25.331  45.959  51.894  1.00  0.00     0.046 A 
HETATM    5  C   UNL     1      25.355  45.557  53.325  1.00  0.00     0.070 C 
HETATM    6  C   UNL     1      26.186  44.291  53.623  1.00  0.00     0.045 C 
HETATM    7  C   UNL     1      26.387  43.317  52.440  1.00  0.00     0.132 C 
HETATM    8  N   UNL     1      25.173  43.000  51.709  1.00  0.00    -0.355 N 
HETATM    9  C   UNL     1      24.644  43.810  50.720  1.00  0.00     0.272 C 
HETATM   10  O   UNL     1      23.918  43.310  49.863  1.00  0.00    -0.266 OA
HETATM   11  N   UNL     1      25.551  47.237  51.449  1.00  0.00    -0.341 N 
HETATM   12  H   UNL     1      25.791  48.033  52.017  1.00  0.00     0.167 HD
HETATM   13  H   UNL     1      24.957  42.025  51.542  1.00  0.00     0.162 HD
ENDROOT
BRANCH   1  14
HETATM   14  C   UNL     1      25.373  48.473  49.228  1.00  0.00     0.059 A 
HETATM   15  C   UNL     1      24.325  49.166  48.652  1.00  0.00     0.040 A 
HETATM   16  C   UNL     1      22.854  49.007  48.672  1.00  0.00     0.071 C 
HETATM   17  N   UNL     1      24.916  50.179  47.943  1.00  0.00    -0.281 N 
HETATM   18  H   UNL     1      24.467  50.896  47.384  1.00  0.00     0.189 HD
HETATM   19  N   UNL     1      26.253  50.196  48.017  1.00  0.00    -0.179 NA
HETATM   20  C   UNL     1      26.547  49.148  48.800  1.00  0.00     0.067 A 
HETATM   21  C   UNL     1      27.964  48.823  49.108  1.00  0.00     0.073 C 
ENDBRANCH   1  14
BRANCH   6  22
HETATM   22  C   UNL     1      27.512  44.666  54.291  1.00  0.00    -0.019 A 
HETATM   23  C   UNL     1      28.497  43.687  54.542  1.00  0.00     0.074 A 
HETATM   24  C   UNL     1      29.705  44.054  55.148  1.00  0.00     0.037 A 
HETATM   25  C   UNL     1      29.936  45.379  55.522  1.00  0.00     0.003 A 
HETATM   26  C   UNL     1      28.959  46.344  55.308  1.00  0.00     0.001 A 
HETATM   27  C   UNL     1      27.752  45.990  54.706  1.00  0.00     0.010 A 
BRANCH  23  28
HETATM   28  O   UNL     1      28.184  42.406  54.170  1.00  0.00    -0.355 OA
HETATM   29  C   UNL     1      29.149  41.677  53.421  1.00  0.00     0.210 C 
ENDBRANCH  23  28
ENDBRANCH   6  22
TORSDOF 3
ENDMDL
MODEL 5
REMARK VINA RESULT:      -8.7      3.957      6.483
REMARK  3 active torsions:
REMARK  status: ('A' for Active; 'I' for Inactive)
REMARK    1  A    between atoms: C_8  and  C_9 
REMARK    2  A    between atoms: C_14  and  C_15 
REMARK    3  A    between atoms: C_16  and  O_17 
ROOT
HETATM    1  C   UNL     1      25.270  47.214  50.078  1.00  0.00     0.143 A 
HETATM    2  N   UNL     1      24.989  45.988  49.686  1.00  0.00    -0.223 NA
HETATM    3  C   UNL     1      24.977  45.202  50.820  1.00  0.00     0.149 A 
HETATM    4  C   UNL     1      25.265  45.982  51.927  1.00  0.00     0.046 A 
HETATM    5  C   UNL     1      25.253  45.640  53.374  1.00  0.00     0.070 C 
HETATM    6  C   UNL     1      26.102  44.408  53.751  1.00  0.00     0.045 C 
HETATM    7  C   UNL     1      26.361  43.391  52.617  1.00  0.00     0.132 C 
HETATM    8  N   UNL     1      25.179  43.014  51.863  1.00  0.00    -0.355 N 
HETATM    9  C   UNL     1      24.663  43.770  50.825  1.00  0.00     0.272 C 
HETATM   10  O   UNL     1      23.976  43.218  49.968  1.00  0.00    -0.266 OA
HETATM   11  N   UNL     1      25.470  47.245  51.435  1.00  0.00    -0.341 N 
HETATM   12  H   UNL     1      25.674  48.070  51.976  1.00  0.00     0.167 HD
HETATM   13  H   UNL     1      24.990  42.028  51.731  1.00  0.00     0.162 HD
ENDROOT
BRANCH   1  14
HETATM   14  C   UNL     1      25.334  48.383  49.159  1.00  0.00     0.059 A 
HETATM   15  C   UNL     1      26.442  49.128  48.803  1.00  0.00     0.040 A 
HETATM   16  C   UNL     1      27.878  49.067  49.155  1.00  0.00     0.071 C 
HETATM   17  N   UNL     1      25.965  50.087  47.948  1.00  0.00    -0.281 N 
HETATM   18  H   UNL     1      26.484  50.823  47.481  1.00  0.00     0.189 HD
HETATM   19  N   UNL     1      24.647  50.019  47.725  1.00  0.00    -0.179 NA
HETATM   20  C   UNL     1      24.246  48.978  48.469  1.00  0.00     0.067 A 
HETATM   21  C   UNL     1      22.811  48.591  48.496  1.00  0.00     0.073 C 
ENDBRANCH   1  14
BRANCH   6  22
HETATM   22  C   UNL     1      27.398  44.842  54.442  1.00  0.00    -0.019 A 
HETATM   23  C   UNL     1      27.493  46.102  55.075  1.00  0.00     0.074 A 
HETATM   24  C   UNL     1      28.685  46.474  55.706  1.00  0.00     0.037 A 
HETATM   25  C   UNL     1      29.788  45.619  55.701  1.00  0.00     0.003 A 
HETATM   26  C   UNL     1      29.714  44.391  55.053  1.00  0.00     0.001 A 
HETATM   27  C   UNL     1      28.532  44.009  54.420  1.00  0.00     0.010 A 
BRANCH  23  28
HETATM   28  O   UNL     1      26.376  46.894  55.013  1.00  0.00    -0.355 OA
HETATM   29  C   UNL     1      26.491  48.239  55.460  1.00  0.00     0.210 C 
ENDBRANCH  23  28
ENDBRANCH   6  22
TORSDOF 3
ENDMDL
MODEL 6
REMARK VINA RESULT:      -8.5     12.290     14.762
REMARK  3 active torsions:
REMARK  status: ('A' for Active; 'I' for Inactive)
REMARK    1  A    between atoms: C_8  and  C_9 
REMARK    2  A    between atoms: C_14  and  C_15 
REMARK    3  A    between atoms: C_16  and  O_17 
ROOT
HETATM    1  C   UNL     1      31.344  51.012  42.018  1.00  0.00     0.143 A 
HETATM    2  N   UNL     1      30.404  51.840  41.611  1.00  0.00    -0.223 NA
HETATM    3  C   UNL     1      29.233  51.111  41.550  1.00  0.00     0.149 A 
HETATM    4  C   UNL     1      29.483  49.803  41.929  1.00  0.00     0.046 A 
HETATM    5  C   UNL     1      28.545  48.669  42.147  1.00  0.00     0.070 C 
HETATM    6  C   UNL     1      27.606  48.375  40.958  1.00  0.00     0.045 C 
HETATM    7  C   UNL     1      27.339  49.555  39.996  1.00  0.00     0.132 C 
HETATM    8  N   UNL     1      26.994  50.802  40.654  1.00  0.00    -0.355 N 
HETATM    9  C   UNL     1      27.932  51.674  41.178  1.00  0.00     0.272 C 
HETATM   10  O   UNL     1      27.639  52.861  41.306  1.00  0.00    -0.266 OA
HETATM   11  N   UNL     1      30.826  49.755  42.198  1.00  0.00    -0.341 N 
HETATM   12  H   UNL     1      31.340  48.954  42.528  1.00  0.00     0.167 HD
HETATM   13  H   UNL     1      26.167  51.295  40.340  1.00  0.00     0.162 HD
ENDROOT
BRANCH   1  14
HETATM   14  C   UNL     1      32.756  51.418  42.259  1.00  0.00     0.059 A 
HETATM   15  C   UNL     1      33.784  51.515  41.341  1.00  0.00     0.040 A 
HETATM   16  C   UNL     1      33.886  51.281  39.883  1.00  0.00     0.071 C 
HETATM   17  N   UNL     1      34.874  51.915  42.069  1.00  0.00    -0.281 N 
HETATM   18  H   UNL     1      35.817  52.090  41.739  1.00  0.00     0.189 HD
HETATM   19  N   UNL     1      34.631  52.084  43.375  1.00  0.00    -0.179 NA
HETATM   20  C   UNL     1      33.333  51.777  43.506  1.00  0.00     0.067 A 
HETATM   21  C   UNL     1      32.686  51.832  44.842  1.00  0.00     0.073 C 
ENDBRANCH   1  14
BRANCH   6  22
HETATM   22  C   UNL     1      28.063  47.117  40.214  1.00  0.00    -0.019 A 
HETATM   23  C   UNL     1      27.507  45.855  40.518  1.00  0.00     0.074 A 
HETATM   24  C   UNL     1      27.935  44.720  39.819  1.00  0.00     0.037 A 
HETATM   25  C   UNL     1      28.921  44.823  38.836  1.00  0.00     0.003 A 
HETATM   26  C   UNL     1      29.496  46.055  38.552  1.00  0.00     0.001 A 
HETATM   27  C   UNL     1      29.079  47.193  39.241  1.00  0.00     0.010 A 
BRANCH  23  28
HETATM   28  O   UNL     1      26.565  45.835  41.513  1.00  0.00    -0.355 OA
HETATM   29  C   UNL     1      26.289  44.589  42.140  1.00  0.00     0.210 C 
ENDBRANCH  23  28
ENDBRANCH   6  22
TORSDOF 3
ENDMDL
MODEL 7
REMARK VINA RESULT:      -8.4     12.269     14.704
REMARK  3 active torsions:
REMARK  status: ('A' for Active; 'I' for Inactive)
REMARK    1  A    between atoms: C_8  and  C_9 
REMARK    2  A    between atoms: C_14  and  C_15 
REMARK    3  A    between atoms: C_16  and  O_17 
ROOT
HETATM    1  C   UNL     1      31.204  50.985  42.074  1.00  0.00     0.143 A 
HETATM    2  N   UNL     1      30.271  51.818  41.659  1.00  0.00    -0.223 NA
HETATM    3  C   UNL     1      29.102  51.090  41.568  1.00  0.00     0.149 A 
HETATM    4  C   UNL     1      29.344  49.778  41.936  1.00  0.00     0.046 A 
HETATM    5  C   UNL     1      28.402  48.642  42.122  1.00  0.00     0.070 C 
HETATM    6  C   UNL     1      27.485  48.362  40.913  1.00  0.00     0.045 C 
HETATM    7  C   UNL     1      27.236  49.554  39.961  1.00  0.00     0.132 C 
HETATM    8  N   UNL     1      26.879  50.793  40.627  1.00  0.00    -0.355 N 
HETATM    9  C   UNL     1      27.808  51.659  41.178  1.00  0.00     0.272 C 
HETATM   10  O   UNL     1      27.512  52.844  41.316  1.00  0.00    -0.266 OA
HETATM   11  N   UNL     1      30.682  49.726  42.229  1.00  0.00    -0.341 N 
HETATM   12  H   UNL     1      31.189  48.921  42.559  1.00  0.00     0.167 HD
HETATM   13  H   UNL     1      26.058  51.290  40.304  1.00  0.00     0.162 HD
ENDROOT
BRANCH   1  14
HETATM   14  C   UNL     1      32.610  51.387  42.345  1.00  0.00     0.059 A 
HETATM   15  C   UNL     1      33.174  51.756  43.552  1.00  0.00     0.040 A 
HETATM   16  C   UNL     1      32.656  51.884  44.932  1.00  0.00     0.071 C 
HETATM   17  N   UNL     1      34.483  52.039  43.261  1.00  0.00    -0.281 N 
HETATM   18  H   UNL     1      35.212  52.347  43.894  1.00  0.00     0.189 HD
HETATM   19  N   UNL     1      34.806  51.881  41.971  1.00  0.00    -0.179 NA
HETATM   20  C   UNL     1      33.662  51.485  41.396  1.00  0.00     0.067 A 
HETATM   21  C   UNL     1      33.616  51.218  39.935  1.00  0.00     0.073 C 
ENDBRANCH   1  14
BRANCH   6  22
HETATM   22  C   UNL     1      27.955  47.114  40.162  1.00  0.00    -0.019 A 
HETATM   23  C   UNL     1      27.288  45.879  40.322  1.00  0.00     0.074 A 
HETATM   24  C   UNL     1      27.731  44.752  39.620  1.00  0.00     0.037 A 
HETATM   25  C   UNL     1      28.839  44.834  38.776  1.00  0.00     0.003 A 
HETATM   26  C   UNL     1      29.522  46.037  38.636  1.00  0.00     0.001 A 
HETATM   27  C   UNL     1      29.090  47.166  39.331  1.00  0.00     0.010 A 
BRANCH  23  28
HETATM   28  O   UNL     1      26.226  45.876  41.189  1.00  0.00    -0.355 OA
HETATM   29  C   UNL     1      26.240  44.932  42.252  1.00  0.00     0.210 C 
ENDBRANCH  23  28
ENDBRANCH   6  22
TORSDOF 3
ENDMDL
MODEL 8
REMARK VINA RESULT:      -8.4      3.628      6.450
REMARK  3 active torsions:
REMARK  status: ('A' for Active; 'I' for Inactive)
REMARK    1  A    between atoms: C_8  and  C_9 
REMARK    2  A    between atoms: C_14  and  C_15 
REMARK    3  A    between atoms: C_16  and  O_17 
ROOT
HETATM    1  C   UNL     1      24.273  45.766  49.663  1.00  0.00     0.143 A 
HETATM    2  N   UNL     1      25.088  44.937  49.043  1.00  0.00    -0.223 NA
HETATM    3  C   UNL     1      25.713  44.189  50.020  1.00  0.00     0.149 A 
HETATM    4  C   UNL     1      25.260  44.586  51.267  1.00  0.00     0.046 A 
HETATM    5  C   UNL     1      25.528  44.016  52.614  1.00  0.00     0.070 C 
HETATM    6  C   UNL     1      27.023  43.869  52.964  1.00  0.00     0.045 C 
HETATM    7  C   UNL     1      27.993  43.766  51.765  1.00  0.00     0.132 C 
HETATM    8  N   UNL     1      27.587  42.819  50.742  1.00  0.00    -0.355 N 
HETATM    9  C   UNL     1      26.673  43.115  49.747  1.00  0.00     0.272 C 
HETATM   10  O   UNL     1      26.704  42.477  48.697  1.00  0.00    -0.266 OA
HETATM   11  N   UNL     1      24.370  45.599  51.021  1.00  0.00    -0.341 N 
HETATM   12  H   UNL     1      23.830  46.099  51.710  1.00  0.00     0.167 HD
HETATM   13  H   UNL     1      28.265  42.134  50.428  1.00  0.00     0.162 HD
ENDROOT
BRANCH   1  14
HETATM   14  C   UNL     1      23.374  46.721  48.962  1.00  0.00     0.059 A 
HETATM   15  C   UNL     1      22.123  46.479  48.425  1.00  0.00     0.040 A 
HETATM   16  C   UNL     1      21.254  45.285  48.344  1.00  0.00     0.071 C 
HETATM   17  N   UNL     1      21.730  47.677  47.887  1.00  0.00    -0.281 N 
HETATM   18  H   UNL     1      20.865  47.891  47.403  1.00  0.00     0.189 HD
HETATM   19  N   UNL     1      22.620  48.666  48.035  1.00  0.00    -0.179 NA
HETATM   20  C   UNL     1      23.639  48.090  48.690  1.00  0.00     0.067 A 
HETATM   21  C   UNL     1      24.849  48.882  49.029  1.00  0.00     0.073 C 
ENDBRANCH   1  14
BRANCH   6  22
HETATM   22  C   UNL     1      27.450  44.953  53.958  1.00  0.00    -0.019 A 
HETATM   23  C   UNL     1      28.552  44.752  54.817  1.00  0.00     0.074 A 
HETATM   24  C   UNL     1      28.929  45.760  55.713  1.00  0.00     0.037 A 
HETATM   25  C   UNL     1      28.212  46.955  55.777  1.00  0.00     0.003 A 
HETATM   26  C   UNL     1      27.106  47.149  54.957  1.00  0.00     0.001 A 
HETATM   27  C   UNL     1      26.721  46.153  54.061  1.00  0.00     0.010 A 
BRANCH  23  28
HETATM   28  O   UNL     1      29.187  43.542  54.712  1.00  0.00    -0.355 OA
HETATM   29  C   UNL     1      30.463  43.405  55.324  1.00  0.00     0.210 C 
ENDBRANCH  23  28
ENDBRANCH   6  22
TORSDOF 3
ENDMDL
MODEL 9
REMARK VINA RESULT:      -7.8     12.498     14.086
REMARK  3 active torsions:
REMARK  status: ('A' for Active; 'I' for Inactive)
REMARK    1  A    between atoms: C_8  and  C_9 
REMARK    2  A    between atoms: C_14  and  C_15 
REMARK    3  A    between atoms: C_16  and  O_17 
ROOT
HETATM    1  C   UNL     1      26.077  47.648  40.686  1.00  0.00     0.143 A 
HETATM    2  N   UNL     1      26.918  46.839  40.075  1.00  0.00    -0.223 NA
HETATM    3  C   UNL     1      28.189  47.284  40.379  1.00  0.00     0.149 A 
HETATM    4  C   UNL     1      28.105  48.398  41.197  1.00  0.00     0.046 A 
HETATM    5  C   UNL     1      29.174  49.164  41.891  1.00  0.00     0.070 C 
HETATM    6  C   UNL     1      30.313  49.654  40.973  1.00  0.00     0.045 C 
HETATM    7  C   UNL     1      30.521  48.857  39.665  1.00  0.00     0.132 C 
HETATM    8  N   UNL     1      30.556  47.416  39.837  1.00  0.00    -0.355 N 
HETATM    9  C   UNL     1      29.420  46.630  39.925  1.00  0.00     0.272 C 
HETATM   10  O   UNL     1      29.492  45.440  39.626  1.00  0.00    -0.266 OA
HETATM   11  N   UNL     1      26.764  48.626  41.359  1.00  0.00    -0.341 N 
HETATM   12  H   UNL     1      26.346  49.349  41.923  1.00  0.00     0.167 HD
HETATM   13  H   UNL     1      31.328  46.904  39.428  1.00  0.00     0.162 HD
ENDROOT
BRANCH   1  14
HETATM   14  C   UNL     1      24.599  47.485  40.650  1.00  0.00     0.059 A 
HETATM   15  C   UNL     1      23.828  46.544  41.306  1.00  0.00     0.040 A 
HETATM   16  C   UNL     1      24.133  45.426  42.227  1.00  0.00     0.071 C 
HETATM   17  N   UNL     1      22.538  46.818  40.932  1.00  0.00    -0.281 N 
HETATM   18  H   UNL     1      21.690  46.336  41.210  1.00  0.00     0.189 HD
HETATM   19  N   UNL     1      22.417  47.856  40.095  1.00  0.00    -0.179 NA
HETATM   20  C   UNL     1      23.678  48.272  39.909  1.00  0.00     0.067 A 
HETATM   21  C   UNL     1      23.958  49.420  39.009  1.00  0.00     0.073 C 
ENDBRANCH   1  14
BRANCH   6  22
HETATM   22  C   UNL     1      30.185  51.158  40.716  1.00  0.00    -0.019 A 
HETATM   23  C   UNL     1      31.106  52.069  41.277  1.00  0.00     0.074 A 
HETATM   24  C   UNL     1      30.973  53.440  41.022  1.00  0.00     0.037 A 
HETATM   25  C   UNL     1      29.925  53.915  40.233  1.00  0.00     0.003 A 
HETATM   26  C   UNL     1      28.995  53.029  39.702  1.00  0.00     0.001 A 
HETATM   27  C   UNL     1      29.116  51.662  39.949  1.00  0.00     0.010 A 
BRANCH  23  28
HETATM   28  O   UNL     1      32.090  51.526  42.061  1.00  0.00    -0.355 OA
HETATM   29  C   UNL     1      32.051  51.797  43.457  1.00  0.00     0.210 C 
ENDBRANCH  23  28
ENDBRANCH   6  22
TORSDOF 3
ENDMDL
MODEL 10
REMARK VINA RESULT:      -7.8     15.429     16.762
REMARK  3 active torsions:
REMARK  status: ('A' for Active; 'I' for Inactive)
REMARK    1  A    between atoms: C_8  and  C_9 
REMARK    2  A    between atoms: C_14  and  C_15 
REMARK    3  A    between atoms: C_16  and  O_17 
ROOT
HETATM    1  C   UNL     1      38.696  40.830  64.333  1.00  0.00     0.143 A 
HETATM    2  N   UNL     1      37.562  40.698  64.989  1.00  0.00    -0.223 NA
HETATM    3  C   UNL     1      36.863  41.876  64.813  1.00  0.00     0.149 A 
HETATM    4  C   UNL     1      37.606  42.742  64.029  1.00  0.00     0.046 A 
HETATM    5  C   UNL     1      37.250  44.068  63.459  1.00  0.00     0.070 C 
HETATM    6  C   UNL     1      36.737  45.095  64.490  1.00  0.00     0.045 C 
HETATM    7  C   UNL     1      36.126  44.510  65.783  1.00  0.00     0.132 C 
HETATM    8  N   UNL     1      35.164  43.444  65.566  1.00  0.00    -0.355 N 
HETATM    9  C   UNL     1      35.523  42.125  65.352  1.00  0.00     0.272 C 
HETATM   10  O   UNL     1      34.716  41.236  65.616  1.00  0.00    -0.266 OA
HETATM   11  N   UNL     1      38.770  42.072  63.756  1.00  0.00    -0.341 N 
HETATM   12  H   UNL     1      39.529  42.405  63.182  1.00  0.00     0.167 HD
HETATM   13  H   UNL     1      34.264  43.512  66.025  1.00  0.00     0.162 HD
ENDROOT
BRANCH   1  14
HETATM   14  C   UNL     1      39.723  39.758  64.232  1.00  0.00     0.059 A 
HETATM   15  C   UNL     1      40.035  38.975  63.137  1.00  0.00     0.040 A 
HETATM   16  C   UNL     1      39.524  38.898  61.750  1.00  0.00     0.071 C 
HETATM   17  N   UNL     1      41.034  38.142  63.568  1.00  0.00    -0.281 N 
HETATM   18  H   UNL     1      41.519  37.422  63.043  1.00  0.00     0.189 HD
HETATM   19  N   UNL     1      41.391  38.326  64.845  1.00  0.00    -0.179 NA
HETATM   20  C   UNL     1      40.588  39.314  65.267  1.00  0.00     0.067 A 
HETATM   21  C   UNL     1      40.676  39.797  66.669  1.00  0.00     0.073 C 
ENDBRANCH   1  14
BRANCH   6  22
HETATM   22  C   UNL     1      37.815  46.142  64.785  1.00  0.00    -0.019 A 
HETATM   23  C   UNL     1      37.463  47.454  65.170  1.00  0.00     0.074 A 
HETATM   24  C   UNL     1      38.465  48.393  65.442  1.00  0.00     0.037 A 
HETATM   25  C   UNL     1      39.812  48.047  65.318  1.00  0.00     0.003 A 
HETATM   26  C   UNL     1      40.168  46.767  64.909  1.00  0.00     0.001 A 
HETATM   27  C   UNL     1      39.179  45.824  64.635  1.00  0.00     0.010 A 
BRANCH  23  28
HETATM   28  O   UNL     1      36.120  47.721  65.243  1.00  0.00    -0.355 OA
HETATM   29  C   UNL     1      35.535  47.834  66.534  1.00  0.00     0.210 C 
ENDBRANCH  23  28
ENDBRANCH   6  22
TORSDOF 3
ENDMDL
