MODEL 1
REMARK VINA RESULT:      -8.9      0.000      0.000
REMARK  3 active torsions:
REMARK  status: ('A' for Active; 'I' for Inactive)
REMARK    1  A    between atoms: C_6  and  N_7 
REMARK       I    between atoms: N_7  and  C_8 
REMARK    2  A    between atoms: C_8  and  C_9 
REMARK    3  A    between atoms: C_9  and  C_10 
ROOT
HETATM    1  C   UNL     1      24.854  43.912  51.176  1.00  0.00     0.286 C 
HETATM    2  N   UNL     1      25.619  42.710  51.752  1.00  0.00    -0.056 N 
HETATM    3  H   UNL     1      26.050  42.996  52.653  1.00  0.00     0.278 HD
HETATM    4  H   UNL     1      24.960  41.952  51.970  1.00  0.00     0.278 HD
HETATM    5  C   UNL     1      26.757  42.204  50.902  1.00  0.00     0.209 C 
HETATM    6  C   UNL     1      26.283  42.060  49.443  1.00  0.00     0.115 C 
HETATM    7  N   UNL     1      25.810  43.338  48.939  1.00  0.00    -0.353 N 
HETATM    8  C   UNL     1      25.125  44.251  49.694  1.00  0.00     0.249 C 
HETATM    9  O   UNL     1      24.734  45.299  49.190  1.00  0.00    -0.271 OA
HETATM   10  C   UNL     1      27.265  40.885  51.471  1.00  0.00     0.035 C 
HETATM   11  C   UNL     1      28.395  40.333  50.602  1.00  0.00     0.002 C 
HETATM   12  C   UNL     1      27.974  40.202  49.139  1.00  0.00     0.002 C 
HETATM   13  C   UNL     1      27.418  41.510  48.576  1.00  0.00     0.027 C 
HETATM   14  H   UNL     1      25.889  43.565  47.949  1.00  0.00     0.163 HD
ENDROOT
BRANCH   1  15
HETATM   15  C   UNL     1      25.029  45.161  52.049  1.00  0.00     0.146 C 
BRANCH  15  16
HETATM   16  C   UNL     1      25.835  44.775  53.262  1.00  0.00     0.224 C 
HETATM   17  N   UNL     1      27.172  45.077  53.180  1.00  0.00    -0.327 N 
HETATM   18  H   UNL     1      27.467  45.703  52.436  1.00  0.00     0.169 HD
HETATM   19  O   UNL     1      25.255  44.136  54.141  1.00  0.00    -0.273 OA
BRANCH  17  20
HETATM   20  C   UNL     1      28.209  44.644  54.045  1.00  0.00     0.040 A 
HETATM   21  C   UNL     1      28.659  45.518  55.059  1.00  0.00    -0.035 A 
HETATM   22  C   UNL     1      29.712  45.113  55.904  1.00  0.00     0.015 A 
HETATM   23  C   UNL     1      28.047  46.875  55.293  1.00  0.00     0.050 C 
HETATM   24  C   UNL     1      30.330  43.869  55.752  1.00  0.00    -0.061 A 
HETATM   25  C   UNL     1      31.427  43.434  56.679  1.00  0.00     0.048 C 
HETATM   26  C   UNL     1      29.871  43.010  54.755  1.00  0.00     0.009 A 
HETATM   27  C   UNL     1      28.824  43.394  53.911  1.00  0.00     0.030 A 
ENDBRANCH  17  20
ENDBRANCH  15  16
ENDBRANCH   1  15
TORSDOF 3
ENDMDL
MODEL 2
REMARK VINA RESULT:      -8.6      1.071      1.775
REMARK  3 active torsions:
REMARK  status: ('A' for Active; 'I' for Inactive)
REMARK    1  A    between atoms: C_6  and  N_7 
REMARK       I    between atoms: N_7  and  C_8 
REMARK    2  A    between atoms: C_8  and  C_9 
REMARK    3  A    between atoms: C_9  and  C_10 
ROOT
HETATM    1  C   UNL     1      25.045  44.102  51.980  1.00  0.00     0.286 C 
HETATM    2  N   UNL     1      25.886  42.826  52.134  1.00  0.00    -0.056 N 
HETATM    3  H   UNL     1      26.776  43.074  52.609  1.00  0.00     0.278 HD
HETATM    4  H   UNL     1      25.400  42.163  52.751  1.00  0.00     0.278 HD
HETATM    5  C   UNL     1      26.288  42.160  50.842  1.00  0.00     0.209 C 
HETATM    6  C   UNL     1      25.060  42.045  49.919  1.00  0.00     0.115 C 
HETATM    7  N   UNL     1      24.506  43.362  49.654  1.00  0.00    -0.353 N 
HETATM    8  C   UNL     1      24.458  44.371  50.577  1.00  0.00     0.249 C 
HETATM    9  O   UNL     1      23.948  45.450  50.286  1.00  0.00    -0.271 OA
HETATM   10  C   UNL     1      26.904  40.800  51.145  1.00  0.00     0.035 C 
HETATM   11  C   UNL     1      27.286  40.089  49.847  1.00  0.00     0.002 C 
HETATM   12  C   UNL     1      26.099  39.981  48.889  1.00  0.00     0.002 C 
HETATM   13  C   UNL     1      25.446  41.336  48.619  1.00  0.00     0.027 C 
HETATM   14  H   UNL     1      24.030  43.555  48.774  1.00  0.00     0.163 HD
ENDROOT
BRANCH   1  15
HETATM   15  C   UNL     1      25.798  45.337  52.487  1.00  0.00     0.146 C 
BRANCH  15  16
HETATM   16  C   UNL     1      26.577  44.939  53.714  1.00  0.00     0.224 C 
HETATM   17  N   UNL     1      27.915  45.244  53.665  1.00  0.00    -0.327 N 
HETATM   18  H   UNL     1      28.226  45.878  52.936  1.00  0.00     0.169 HD
HETATM   19  O   UNL     1      25.978  44.289  54.572  1.00  0.00    -0.273 OA
BRANCH  17  20
HETATM   20  C   UNL     1      28.933  44.803  54.550  1.00  0.00     0.040 A 
HETATM   21  C   UNL     1      29.653  43.632  54.230  1.00  0.00    -0.035 A 
HETATM   22  C   UNL     1      30.644  43.165  55.117  1.00  0.00     0.015 A 
HETATM   23  C   UNL     1      29.421  42.857  52.959  1.00  0.00     0.050 C 
HETATM   24  C   UNL     1      30.920  43.829  56.315  1.00  0.00    -0.061 A 
HETATM   25  C   UNL     1      32.000  43.343  57.236  1.00  0.00     0.048 C 
HETATM   26  C   UNL     1      30.210  44.990  56.617  1.00  0.00     0.009 A 
HETATM   27  C   UNL     1      29.227  45.470  55.745  1.00  0.00     0.030 A 
ENDBRANCH  17  20
ENDBRANCH  15  16
ENDBRANCH   1  15
TORSDOF 3
ENDMDL
MODEL 3
REMARK VINA RESULT:      -8.4      1.579      6.419
REMARK  3 active torsions:
REMARK  status: ('A' for Active; 'I' for Inactive)
REMARK    1  A    between atoms: C_6  and  N_7 
REMARK       I    between atoms: N_7  and  C_8 
REMARK    2  A    between atoms: C_8  and  C_9 
REMARK    3  A    between atoms: C_9  and  C_10 
ROOT
HETATM    1  C   UNL     1      27.191  45.037  53.235  1.00  0.00     0.286 C 
HETATM    2  N   UNL     1      28.453  44.170  53.359  1.00  0.00    -0.056 N 
HETATM    3  H   UNL     1      28.214  43.200  53.077  1.00  0.00     0.278 HD
HETATM    4  H   UNL     1      29.167  44.500  52.697  1.00  0.00     0.278 HD
HETATM    5  C   UNL     1      29.023  44.059  54.751  1.00  0.00     0.209 C 
HETATM    6  C   UNL     1      29.108  45.460  55.385  1.00  0.00     0.115 C 
HETATM    7  N   UNL     1      27.791  46.073  55.429  1.00  0.00    -0.353 N 
HETATM    8  C   UNL     1      26.846  45.924  54.451  1.00  0.00     0.249 C 
HETATM    9  O   UNL     1      25.764  46.496  54.548  1.00  0.00    -0.271 OA
HETATM   10  C   UNL     1      30.385  43.377  54.686  1.00  0.00     0.035 C 
HETATM   11  C   UNL     1      30.999  43.287  56.082  1.00  0.00     0.002 C 
HETATM   12  C   UNL     1      31.075  44.655  56.759  1.00  0.00     0.002 C 
HETATM   13  C   UNL     1      29.721  45.365  56.784  1.00  0.00     0.027 C 
HETATM   14  H   UNL     1      27.553  46.734  56.167  1.00  0.00     0.163 HD
ENDROOT
BRANCH   1  15
HETATM   15  C   UNL     1      25.973  44.202  52.823  1.00  0.00     0.146 C 
BRANCH  15  16
HETATM   16  C   UNL     1      26.345  43.406  51.599  1.00  0.00     0.224 C 
HETATM   17  N   UNL     1      26.243  42.045  51.751  1.00  0.00    -0.327 N 
HETATM   18  H   UNL     1      25.742  41.699  52.564  1.00  0.00     0.169 HD
HETATM   19  O   UNL     1      26.805  44.029  50.642  1.00  0.00    -0.273 OA
BRANCH  17  20
HETATM   20  C   UNL     1      26.727  41.040  50.875  1.00  0.00     0.040 A 
HETATM   21  C   UNL     1      27.990  40.464  51.131  1.00  0.00    -0.035 A 
HETATM   22  C   UNL     1      28.498  39.489  50.248  1.00  0.00     0.015 A 
HETATM   23  C   UNL     1      28.825  40.835  52.329  1.00  0.00     0.050 C 
HETATM   24  C   UNL     1      27.783  39.089  49.116  1.00  0.00    -0.061 A 
HETATM   25  C   UNL     1      28.317  38.026  48.202  1.00  0.00     0.048 C 
HETATM   26  C   UNL     1      26.533  39.657  48.878  1.00  0.00     0.009 A 
HETATM   27  C   UNL     1      26.012  40.622  49.746  1.00  0.00     0.030 A 
ENDBRANCH  17  20
ENDBRANCH  15  16
ENDBRANCH   1  15
TORSDOF 3
ENDMDL
MODEL 4
REMARK VINA RESULT:      -8.3      4.186      7.401
REMARK  3 active torsions:
REMARK  status: ('A' for Active; 'I' for Inactive)
REMARK    1  A    between atoms: C_6  and  N_7 
REMARK       I    between atoms: N_7  and  C_8 
REMARK    2  A    between atoms: C_8  and  C_9 
REMARK    3  A    between atoms: C_9  and  C_10 
ROOT
HETATM    1  C   UNL     1      26.207  45.036  50.930  1.00  0.00     0.286 C 
HETATM    2  N   UNL     1      26.687  45.381  52.349  1.00  0.00    -0.056 N 
HETATM    3  H   UNL     1      26.948  46.385  52.372  1.00  0.00     0.278 HD
HETATM    4  H   UNL     1      25.912  45.264  53.015  1.00  0.00     0.278 HD
HETATM    5  C   UNL     1      27.911  44.632  52.813  1.00  0.00     0.209 C 
HETATM    6  C   UNL     1      27.741  43.131  52.509  1.00  0.00     0.115 C 
HETATM    7  N   UNL     1      27.538  42.927  51.085  1.00  0.00    -0.353 N 
HETATM    8  C   UNL     1      26.822  43.775  50.286  1.00  0.00     0.249 C 
HETATM    9  O   UNL     1      26.671  43.520  49.094  1.00  0.00    -0.271 OA
HETATM   10  C   UNL     1      28.129  44.893  54.299  1.00  0.00     0.035 C 
HETATM   11  C   UNL     1      29.344  44.114  54.801  1.00  0.00     0.002 C 
HETATM   12  C   UNL     1      29.228  42.621  54.492  1.00  0.00     0.002 C 
HETATM   13  C   UNL     1      28.961  42.355  53.011  1.00  0.00     0.027 C 
HETATM   14  H   UNL     1      27.850  42.066  50.637  1.00  0.00     0.163 HD
ENDROOT
BRANCH   1  15
HETATM   15  C   UNL     1      26.339  46.236  49.985  1.00  0.00     0.146 C 
BRANCH  15  16
HETATM   16  C   UNL     1      25.140  47.126  50.188  1.00  0.00     0.224 C 
HETATM   17  N   UNL     1      24.507  47.504  49.029  1.00  0.00    -0.327 N 
HETATM   18  H   UNL     1      24.750  47.006  48.177  1.00  0.00     0.169 HD
HETATM   19  O   UNL     1      24.918  47.514  51.335  1.00  0.00    -0.273 OA
BRANCH  17  20
HETATM   20  C   UNL     1      23.508  48.499  48.878  1.00  0.00     0.040 A 
HETATM   21  C   UNL     1      23.887  49.782  48.429  1.00  0.00    -0.035 A 
HETATM   22  C   UNL     1      22.909  50.790  48.307  1.00  0.00     0.015 A 
HETATM   23  C   UNL     1      25.305  50.126  48.053  1.00  0.00     0.050 C 
HETATM   24  C   UNL     1      21.572  50.549  48.632  1.00  0.00    -0.061 A 
HETATM   25  C   UNL     1      20.532  51.618  48.466  1.00  0.00     0.048 C 
HETATM   26  C   UNL     1      21.206  49.275  49.065  1.00  0.00     0.009 A 
HETATM   27  C   UNL     1      22.163  48.263  49.188  1.00  0.00     0.030 A 
ENDBRANCH  17  20
ENDBRANCH  15  16
ENDBRANCH   1  15
TORSDOF 3
ENDMDL
MODEL 5
REMARK VINA RESULT:      -8.2      5.711      8.161
REMARK  3 active torsions:
REMARK  status: ('A' for Active; 'I' for Inactive)
REMARK    1  A    between atoms: C_6  and  N_7 
REMARK       I    between atoms: N_7  and  C_8 
REMARK    2  A    between atoms: C_8  and  C_9 
REMARK    3  A    between atoms: C_9  and  C_10 
ROOT
HETATM    1  C   UNL     1      22.805  49.232  49.250  1.00  0.00     0.286 C 
HETATM    2  N   UNL     1      21.511  49.221  50.079  1.00  0.00    -0.056 N 
HETATM    3  H   UNL     1      21.211  48.234  50.205  1.00  0.00     0.278 HD
HETATM    4  H   UNL     1      21.698  49.592  51.019  1.00  0.00     0.278 HD
HETATM    5  C   UNL     1      20.336  49.924  49.448  1.00  0.00     0.209 C 
HETATM    6  C   UNL     1      20.784  51.303  48.924  1.00  0.00     0.115 C 
HETATM    7  N   UNL     1      21.856  51.148  47.956  1.00  0.00    -0.353 N 
HETATM    8  C   UNL     1      22.843  50.205  48.052  1.00  0.00     0.249 C 
HETATM    9  O   UNL     1      23.732  50.154  47.206  1.00  0.00    -0.271 OA
HETATM   10  C   UNL     1      19.209  50.039  50.467  1.00  0.00     0.035 C 
HETATM   11  C   UNL     1      18.020  50.784  49.860  1.00  0.00     0.002 C 
HETATM   12  C   UNL     1      18.429  52.146  49.301  1.00  0.00     0.002 C 
HETATM   13  C   UNL     1      19.592  52.044  48.315  1.00  0.00     0.027 C 
HETATM   14  H   UNL     1      21.971  51.821  47.199  1.00  0.00     0.163 HD
ENDROOT
BRANCH   1  15
HETATM   15  C   UNL     1      23.199  47.820  48.803  1.00  0.00     0.146 C 
BRANCH  15  16
HETATM   16  C   UNL     1      24.414  47.402  49.590  1.00  0.00     0.224 C 
HETATM   17  N   UNL     1      24.158  46.522  50.612  1.00  0.00    -0.327 N 
HETATM   18  H   UNL     1      23.248  46.071  50.627  1.00  0.00     0.169 HD
HETATM   19  O   UNL     1      25.477  47.965  49.322  1.00  0.00    -0.273 OA
BRANCH  17  20
HETATM   20  C   UNL     1      25.039  46.128  51.652  1.00  0.00     0.040 A 
HETATM   21  C   UNL     1      25.332  44.756  51.814  1.00  0.00    -0.035 A 
HETATM   22  C   UNL     1      26.178  44.348  52.864  1.00  0.00     0.015 A 
HETATM   23  C   UNL     1      24.786  43.695  50.893  1.00  0.00     0.050 C 
HETATM   24  C   UNL     1      26.726  45.272  53.758  1.00  0.00    -0.061 A 
HETATM   25  C   UNL     1      27.654  44.830  54.851  1.00  0.00     0.048 C 
HETATM   26  C   UNL     1      26.439  46.625  53.583  1.00  0.00     0.009 A 
HETATM   27  C   UNL     1      25.605  47.047  52.544  1.00  0.00     0.030 A 
ENDBRANCH  17  20
ENDBRANCH  15  16
ENDBRANCH   1  15
TORSDOF 3
ENDMDL
MODEL 6
REMARK VINA RESULT:      -8.1      2.753      4.729
REMARK  3 active torsions:
REMARK  status: ('A' for Active; 'I' for Inactive)
REMARK    1  A    between atoms: C_6  and  N_7 
REMARK       I    between atoms: N_7  and  C_8 
REMARK    2  A    between atoms: C_8  and  C_9 
REMARK    3  A    between atoms: C_9  and  C_10 
ROOT
HETATM    1  C   UNL     1      24.619  44.639  50.598  1.00  0.00     0.286 C 
HETATM    2  N   UNL     1      25.085  46.079  50.334  1.00  0.00    -0.056 N 
HETATM    3  H   UNL     1      25.471  46.467  51.218  1.00  0.00     0.278 HD
HETATM    4  H   UNL     1      25.856  46.075  49.655  1.00  0.00     0.278 HD
HETATM    5  C   UNL     1      24.001  47.039  49.911  1.00  0.00     0.209 C 
HETATM    6  C   UNL     1      23.152  46.395  48.798  1.00  0.00     0.115 C 
HETATM    7  N   UNL     1      22.566  45.152  49.269  1.00  0.00    -0.353 N 
HETATM    8  C   UNL     1      23.201  44.276  50.107  1.00  0.00     0.249 C 
HETATM    9  O   UNL     1      22.650  43.231  50.440  1.00  0.00    -0.271 OA
HETATM   10  C   UNL     1      24.635  48.349  49.460  1.00  0.00     0.035 C 
HETATM   11  C   UNL     1      23.557  49.325  48.990  1.00  0.00     0.002 C 
HETATM   12  C   UNL     1      22.672  48.713  47.904  1.00  0.00     0.002 C 
HETATM   13  C   UNL     1      22.072  47.374  48.332  1.00  0.00     0.027 C 
HETATM   14  H   UNL     1      21.671  44.831  48.903  1.00  0.00     0.163 HD
ENDROOT
BRANCH   1  15
HETATM   15  C   UNL     1      24.787  44.255  52.073  1.00  0.00     0.146 C 
BRANCH  15  16
HETATM   16  C   UNL     1      26.261  44.147  52.364  1.00  0.00     0.224 C 
HETATM   17  N   UNL     1      26.565  43.846  53.669  1.00  0.00    -0.327 N 
HETATM   18  H   UNL     1      25.810  43.521  54.264  1.00  0.00     0.169 HD
HETATM   19  O   UNL     1      27.035  44.447  51.455  1.00  0.00    -0.273 OA
BRANCH  17  20
HETATM   20  C   UNL     1      27.838  43.899  54.292  1.00  0.00     0.040 A 
HETATM   21  C   UNL     1      28.679  42.768  54.220  1.00  0.00    -0.035 A 
HETATM   22  C   UNL     1      29.933  42.794  54.864  1.00  0.00     0.015 A 
HETATM   23  C   UNL     1      28.302  41.521  53.463  1.00  0.00     0.050 C 
HETATM   24  C   UNL     1      30.357  43.914  55.584  1.00  0.00    -0.061 A 
HETATM   25  C   UNL     1      31.708  43.946  56.237  1.00  0.00     0.048 C 
HETATM   26  C   UNL     1      29.523  45.031  55.640  1.00  0.00     0.009 A 
HETATM   27  C   UNL     1      28.279  45.022  55.003  1.00  0.00     0.030 A 
ENDBRANCH  17  20
ENDBRANCH  15  16
ENDBRANCH   1  15
TORSDOF 3
ENDMDL
MODEL 7
REMARK VINA RESULT:      -8.0      2.555      7.644
REMARK  3 active torsions:
REMARK  status: ('A' for Active; 'I' for Inactive)
REMARK    1  A    between atoms: C_6  and  N_7 
REMARK       I    between atoms: N_7  and  C_8 
REMARK    2  A    between atoms: C_8  and  C_9 
REMARK    3  A    between atoms: C_9  and  C_10 
ROOT
HETATM    1  C   UNL     1      28.979  43.007  53.588  1.00  0.00     0.286 C 
HETATM    2  N   UNL     1      30.213  42.983  54.504  1.00  0.00    -0.056 N 
HETATM    3  H   UNL     1      30.434  41.994  54.730  1.00  0.00     0.278 HD
HETATM    4  H   UNL     1      31.027  43.357  53.999  1.00  0.00     0.278 HD
HETATM    5  C   UNL     1      30.041  43.674  55.833  1.00  0.00     0.209 C 
HETATM    6  C   UNL     1      29.397  45.057  55.613  1.00  0.00     0.115 C 
HETATM    7  N   UNL     1      28.111  44.913  54.953  1.00  0.00    -0.353 N 
HETATM    8  C   UNL     1      27.848  43.979  53.987  1.00  0.00     0.249 C 
HETATM    9  O   UNL     1      26.742  43.937  53.455  1.00  0.00    -0.271 OA
HETATM   10  C   UNL     1      31.394  43.778  56.527  1.00  0.00     0.035 C 
HETATM   11  C   UNL     1      31.250  44.510  57.861  1.00  0.00     0.002 C 
HETATM   12  C   UNL     1      30.587  45.876  57.690  1.00  0.00     0.002 C 
HETATM   13  C   UNL     1      29.252  45.785  56.952  1.00  0.00     0.027 C 
HETATM   14  H   UNL     1      27.365  45.586  55.121  1.00  0.00     0.163 HD
ENDROOT
BRANCH   1  15
HETATM   15  C   UNL     1      28.417  41.599  53.364  1.00  0.00     0.146 C 
BRANCH  15  16
HETATM   16  C   UNL     1      28.316  41.366  51.879  1.00  0.00     0.224 C 
HETATM   17  N   UNL     1      28.110  40.057  51.518  1.00  0.00    -0.327 N 
HETATM   18  H   UNL     1      27.837  39.406  52.249  1.00  0.00     0.169 HD
HETATM   19  O   UNL     1      28.538  42.329  51.144  1.00  0.00    -0.273 OA
BRANCH  17  20
HETATM   20  C   UNL     1      28.195  39.497  50.218  1.00  0.00     0.040 A 
HETATM   21  C   UNL     1      29.152  38.490  49.971  1.00  0.00    -0.035 A 
HETATM   22  C   UNL     1      29.270  37.949  48.675  1.00  0.00     0.015 A 
HETATM   23  C   UNL     1      30.056  37.946  51.048  1.00  0.00     0.050 C 
HETATM   24  C   UNL     1      28.467  38.398  47.624  1.00  0.00    -0.061 A 
HETATM   25  C   UNL     1      28.576  37.791  46.256  1.00  0.00     0.048 C 
HETATM   26  C   UNL     1      27.517  39.386  47.880  1.00  0.00     0.009 A 
HETATM   27  C   UNL     1      27.384  39.929  49.162  1.00  0.00     0.030 A 
ENDBRANCH  17  20
ENDBRANCH  15  16
ENDBRANCH   1  15
TORSDOF 3
ENDMDL
MODEL 8
REMARK VINA RESULT:      -7.9      1.623      2.076
REMARK  3 active torsions:
REMARK  status: ('A' for Active; 'I' for Inactive)
REMARK    1  A    between atoms: C_6  and  N_7 
REMARK       I    between atoms: N_7  and  C_8 
REMARK    2  A    between atoms: C_8  and  C_9 
REMARK    3  A    between atoms: C_9  and  C_10 
ROOT
HETATM    1  C   UNL     1      26.235  42.588  51.187  1.00  0.00     0.286 C 
HETATM    2  N   UNL     1      27.316  42.049  50.237  1.00  0.00    -0.056 N 
HETATM    3  H   UNL     1      28.070  42.760  50.161  1.00  0.00     0.278 HD
HETATM    4  H   UNL     1      27.746  41.208  50.643  1.00  0.00     0.278 HD
HETATM    5  C   UNL     1      26.859  41.790  48.824  1.00  0.00     0.209 C 
HETATM    6  C   UNL     1      25.535  41.002  48.848  1.00  0.00     0.115 C 
HETATM    7  N   UNL     1      24.520  41.746  49.575  1.00  0.00    -0.353 N 
HETATM    8  C   UNL     1      24.777  42.502  50.686  1.00  0.00     0.249 C 
HETATM    9  O   UNL     1      23.860  43.082  51.262  1.00  0.00    -0.271 OA
HETATM   10  C   UNL     1      27.953  41.046  48.068  1.00  0.00     0.035 C 
HETATM   11  C   UNL     1      27.497  40.739  46.642  1.00  0.00     0.002 C 
HETATM   12  C   UNL     1      26.170  39.982  46.621  1.00  0.00     0.002 C 
HETATM   13  C   UNL     1      25.080  40.699  47.418  1.00  0.00     0.027 C 
HETATM   14  H   UNL     1      23.535  41.648  49.333  1.00  0.00     0.163 HD
ENDROOT
BRANCH   1  15
HETATM   15  C   UNL     1      26.555  44.013  51.654  1.00  0.00     0.146 C 
BRANCH  15  16
HETATM   16  C   UNL     1      27.071  43.938  53.067  1.00  0.00     0.224 C 
HETATM   17  N   UNL     1      28.312  44.495  53.253  1.00  0.00    -0.327 N 
HETATM   18  H   UNL     1      28.680  45.080  52.508  1.00  0.00     0.169 HD
HETATM   19  O   UNL     1      26.399  43.297  53.876  1.00  0.00    -0.273 OA
BRANCH  17  20
HETATM   20  C   UNL     1      29.146  44.383  54.394  1.00  0.00     0.040 A 
HETATM   21  C   UNL     1      29.203  45.460  55.305  1.00  0.00    -0.035 A 
HETATM   22  C   UNL     1      30.054  45.375  56.425  1.00  0.00     0.015 A 
HETATM   23  C   UNL     1      28.373  46.707  55.141  1.00  0.00     0.050 C 
HETATM   24  C   UNL     1      30.853  44.251  56.648  1.00  0.00    -0.061 A 
HETATM   25  C   UNL     1      31.730  44.156  57.863  1.00  0.00     0.048 C 
HETATM   26  C   UNL     1      30.782  43.188  55.749  1.00  0.00     0.009 A 
HETATM   27  C   UNL     1      29.939  43.255  54.635  1.00  0.00     0.030 A 
ENDBRANCH  17  20
ENDBRANCH  15  16
ENDBRANCH   1  15
TORSDOF 3
ENDMDL
MODEL 9
REMARK VINA RESULT:      -7.9      2.622      6.458
REMARK  3 active torsions:
REMARK  status: ('A' for Active; 'I' for Inactive)
REMARK    1  A    between atoms: C_6  and  N_7 
REMARK       I    between atoms: N_7  and  C_8 
REMARK    2  A    between atoms: C_8  and  C_9 
REMARK    3  A    between atoms: C_9  and  C_10 
ROOT
HETATM    1  C   UNL     1      26.735  41.209  51.178  1.00  0.00     0.286 C 
HETATM    2  N   UNL     1      26.555  42.254  52.290  1.00  0.00    -0.056 N 
HETATM    3  H   UNL     1      25.920  42.999  51.941  1.00  0.00     0.278 HD
HETATM    4  H   UNL     1      26.086  41.824  53.098  1.00  0.00     0.278 HD
HETATM    5  C   UNL     1      27.815  42.963  52.717  1.00  0.00     0.209 C 
HETATM    6  C   UNL     1      28.935  41.929  52.945  1.00  0.00     0.115 C 
HETATM    7  N   UNL     1      29.173  41.171  51.729  1.00  0.00    -0.353 N 
HETATM    8  C   UNL     1      28.187  40.791  50.860  1.00  0.00     0.249 C 
HETATM    9  O   UNL     1      28.465  40.126  49.865  1.00  0.00    -0.271 OA
HETATM   10  C   UNL     1      27.533  43.785  53.969  1.00  0.00     0.035 C 
HETATM   11  C   UNL     1      28.807  44.484  54.443  1.00  0.00     0.002 C 
HETATM   12  C   UNL     1      29.953  43.495  54.653  1.00  0.00     0.002 C 
HETATM   13  C   UNL     1      30.209  42.633  53.417  1.00  0.00     0.027 C 
HETATM   14  H   UNL     1      30.100  40.799  51.525  1.00  0.00     0.163 HD
ENDROOT
BRANCH   1  15
HETATM   15  C   UNL     1      26.006  41.622  49.895  1.00  0.00     0.146 C 
BRANCH  15  16
HETATM   16  C   UNL     1      25.981  43.126  49.834  1.00  0.00     0.224 C 
HETATM   17  N   UNL     1      24.766  43.691  50.133  1.00  0.00    -0.327 N 
HETATM   18  H   UNL     1      24.064  43.095  50.563  1.00  0.00     0.169 HD
HETATM   19  O   UNL     1      26.996  43.688  49.418  1.00  0.00    -0.273 OA
BRANCH  17  20
HETATM   20  C   UNL     1      24.372  45.040  49.947  1.00  0.00     0.040 A 
HETATM   21  C   UNL     1      23.376  45.334  48.990  1.00  0.00    -0.035 A 
HETATM   22  C   UNL     1      23.000  46.674  48.771  1.00  0.00     0.015 A 
HETATM   23  C   UNL     1      22.675  44.265  48.192  1.00  0.00     0.050 C 
HETATM   24  C   UNL     1      23.601  47.722  49.472  1.00  0.00    -0.061 A 
HETATM   25  C   UNL     1      23.169  49.143  49.257  1.00  0.00     0.048 C 
HETATM   26  C   UNL     1      24.576  47.422  50.422  1.00  0.00     0.009 A 
HETATM   27  C   UNL     1      24.957  46.096  50.655  1.00  0.00     0.030 A 
ENDBRANCH  17  20
ENDBRANCH  15  16
ENDBRANCH   1  15
TORSDOF 3
ENDMDL
MODEL 10
REMARK VINA RESULT:      -7.6      7.456     10.234
REMARK  3 active torsions:
REMARK  status: ('A' for Active; 'I' for Inactive)
REMARK    1  A    between atoms: C_6  and  N_7 
REMARK       I    between atoms: N_7  and  C_8 
REMARK    2  A    between atoms: C_8  and  C_9 
REMARK    3  A    between atoms: C_9  and  C_10 
ROOT
HETATM    1  C   UNL     1      19.436  48.275  47.830  1.00  0.00     0.286 C 
HETATM    2  N   UNL     1      19.699  49.705  48.327  1.00  0.00    -0.056 N 
HETATM    3  H   UNL     1      20.408  49.665  49.085  1.00  0.00     0.278 HD
HETATM    4  H   UNL     1      20.111  50.265  47.570  1.00  0.00     0.278 HD
HETATM    5  C   UNL     1      18.506  50.408  48.925  1.00  0.00     0.209 C 
HETATM    6  C   UNL     1      17.289  50.234  47.997  1.00  0.00     0.115 C 
HETATM    7  N   UNL     1      16.997  48.823  47.808  1.00  0.00    -0.353 N 
HETATM    8  C   UNL     1      17.956  47.852  47.712  1.00  0.00     0.249 C 
HETATM    9  O   UNL     1      17.632  46.682  47.526  1.00  0.00    -0.271 OA
HETATM   10  C   UNL     1      18.846  51.876  49.153  1.00  0.00     0.035 C 
HETATM   11  C   UNL     1      17.638  52.617  49.724  1.00  0.00     0.002 C 
HETATM   12  C   UNL     1      16.399  52.446  48.846  1.00  0.00     0.002 C 
HETATM   13  C   UNL     1      16.080  50.976  48.574  1.00  0.00     0.027 C 
HETATM   14  H   UNL     1      16.043  48.511  47.638  1.00  0.00     0.163 HD
ENDROOT
BRANCH   1  15
HETATM   15  C   UNL     1      20.222  47.243  48.646  1.00  0.00     0.146 C 
BRANCH  15  16
HETATM   16  C   UNL     1      21.678  47.365  48.278  1.00  0.00     0.224 C 
HETATM   17  N   UNL     1      22.501  47.728  49.315  1.00  0.00    -0.327 N 
HETATM   18  H   UNL     1      22.121  47.678  50.256  1.00  0.00     0.169 HD
HETATM   19  O   UNL     1      21.967  47.246  47.087  1.00  0.00    -0.273 OA
BRANCH  17  20
HETATM   20  C   UNL     1      23.857  48.136  49.238  1.00  0.00     0.040 A 
HETATM   21  C   UNL     1      24.845  47.341  49.860  1.00  0.00    -0.035 A 
HETATM   22  C   UNL     1      26.192  47.754  49.820  1.00  0.00     0.015 A 
HETATM   23  C   UNL     1      24.524  46.046  50.560  1.00  0.00     0.050 C 
HETATM   24  C   UNL     1      26.571  48.941  49.188  1.00  0.00    -0.061 A 
HETATM   25  C   UNL     1      28.012  49.354  49.121  1.00  0.00     0.048 C 
HETATM   26  C   UNL     1      25.590  49.714  48.569  1.00  0.00     0.009 A 
HETATM   27  C   UNL     1      24.249  49.316  48.595  1.00  0.00     0.030 A 
ENDBRANCH  17  20
ENDBRANCH  15  16
ENDBRANCH   1  15
TORSDOF 3
ENDMDL
