MODEL 1
REMARK VINA RESULT:      -9.7      0.000      0.000
REMARK  6 active torsions:
REMARK  status: ('A' for Active; 'I' for Inactive)
REMARK    1  A    between atoms: C_5  and  N_6 
REMARK    2  A    between atoms: C_8  and  C_9 
REMARK    3  A    between atoms: C_16  and  C_17 
REMARK    4  A    between atoms: C_17  and  N_18 
REMARK    5  A    between atoms: C_22  and  N_23 
REMARK    6  A    between atoms: C_26  and  O_27 
ROOT
HETATM    1  N   UNL     1      22.685  47.923  49.178  1.00  0.00    -0.244 N 
HETATM    2  N   UNL     1      22.388  46.701  48.684  1.00  0.00    -0.167 NA
HETATM    3  C   UNL     1      23.386  45.892  49.043  1.00  0.00     0.097 A 
HETATM    4  C   UNL     1      24.434  46.623  49.666  1.00  0.00     0.016 A 
HETATM    5  C   UNL     1      23.928  47.905  49.782  1.00  0.00     0.130 A 
ENDROOT
BRANCH   4   6
HETATM    6  C   UNL     1      25.763  46.141  50.109  1.00  0.00     0.277 C 
BRANCH   6   7
HETATM    7  N   UNL     1      25.722  44.921  51.057  1.00  0.00    -0.067 N 
HETATM    8  H   UNL     1      24.881  44.402  50.747  1.00  0.00     0.280 HD
HETATM    9  C   UNL     1      26.908  44.014  50.867  1.00  0.00     0.237 C 
HETATM   10  C   UNL     1      26.868  42.867  51.853  1.00  0.00     0.061 C 
HETATM   11  C   UNL     1      26.795  43.309  53.314  1.00  0.00     0.191 C 
HETATM   12  C   UNL     1      25.616  44.270  53.503  1.00  0.00     0.061 C 
HETATM   13  C   UNL     1      25.499  45.391  52.470  1.00  0.00     0.237 C 
BRANCH  11  14
HETATM   14  N   UNL     1      28.127  43.795  53.931  1.00  0.00    -0.064 N 
HETATM   15  H   UNL     1      28.572  44.326  53.163  1.00  0.00     0.280 HD
HETATM   16  C   UNL     1      27.928  44.857  55.020  1.00  0.00     0.266 C 
HETATM   17  C   UNL     1      29.242  45.517  55.462  1.00  0.00     0.144 C 
HETATM   18  C   UNL     1      30.280  44.471  55.844  1.00  0.00     0.035 C 
HETATM   19  C   UNL     1      30.479  43.473  54.716  1.00  0.00     0.030 C 
HETATM   20  C   UNL     1      29.177  42.783  54.333  1.00  0.00     0.235 C 
BRANCH  17  21
HETATM   21  O   UNL     1      28.959  46.321  56.597  1.00  0.00    -0.394 OA
HETATM   22  H   UNL     1      29.164  47.254  56.392  1.00  0.00     0.210 HD
ENDBRANCH  17  21
ENDBRANCH  11  14
ENDBRANCH   6   7
ENDBRANCH   4   6
BRANCH   3  23
HETATM   23  C   UNL     1      23.330  44.466  48.742  1.00  0.00    -0.005 A 
HETATM   24  C   UNL     1      23.505  44.016  47.426  1.00  0.00     0.017 A 
HETATM   25  C   UNL     1      23.462  42.651  47.139  1.00  0.00     0.043 A 
HETATM   26  C   UNL     1      23.236  41.741  48.165  1.00  0.00     0.116 A 
HETATM   27  F   UNL     1      23.202  40.431  47.891  1.00  0.00    -0.206 F 
HETATM   28  C   UNL     1      23.036  42.170  49.472  1.00  0.00     0.043 A 
HETATM   29  C   UNL     1      23.076  43.536  49.763  1.00  0.00     0.017 A 
ENDBRANCH   3  23
BRANCH   1  30
HETATM   30  C   UNL     1      21.813  49.031  49.004  1.00  0.00     0.058 A 
HETATM   31  C   UNL     1      22.343  50.271  48.628  1.00  0.00     0.032 A 
HETATM   32  C   UNL     1      21.505  51.378  48.463  1.00  0.00     0.009 A 
HETATM   33  C   UNL     1      20.128  51.264  48.678  1.00  0.00    -0.062 A 
HETATM   34  C   UNL     1      19.216  52.442  48.484  1.00  0.00     0.048 C 
HETATM   35  C   UNL     1      19.598  50.022  49.044  1.00  0.00     0.009 A 
HETATM   36  C   UNL     1      20.430  48.909  49.208  1.00  0.00     0.032 A 
ENDBRANCH   1  30
TORSDOF 6
ENDMDL
MODEL 2
REMARK VINA RESULT:      -9.6      3.627      5.265
REMARK  6 active torsions:
REMARK  status: ('A' for Active; 'I' for Inactive)
REMARK    1  A    between atoms: C_5  and  N_6 
REMARK    2  A    between atoms: C_8  and  C_9 
REMARK    3  A    between atoms: C_16  and  C_17 
REMARK    4  A    between atoms: C_17  and  N_18 
REMARK    5  A    between atoms: C_22  and  N_23 
REMARK    6  A    between atoms: C_26  and  O_27 
ROOT
HETATM    1  N   UNL     1      21.039  49.378  48.933  1.00  0.00    -0.244 N 
HETATM    2  N   UNL     1      22.297  49.795  49.195  1.00  0.00    -0.167 NA
HETATM    3  C   UNL     1      23.111  48.799  48.839  1.00  0.00     0.097 A 
HETATM    4  C   UNL     1      22.369  47.645  48.467  1.00  0.00     0.016 A 
HETATM    5  C   UNL     1      21.052  48.069  48.489  1.00  0.00     0.130 A 
ENDROOT
BRANCH   4   6
HETATM    6  C   UNL     1      22.870  46.295  48.120  1.00  0.00     0.277 C 
BRANCH   6   7
HETATM    7  N   UNL     1      22.922  45.303  49.304  1.00  0.00    -0.067 N 
HETATM    8  H   UNL     1      22.142  45.611  49.911  1.00  0.00     0.280 HD
HETATM    9  C   UNL     1      22.628  43.890  48.874  1.00  0.00     0.237 C 
HETATM   10  C   UNL     1      22.751  42.939  50.044  1.00  0.00     0.061 C 
HETATM   11  C   UNL     1      24.110  42.987  50.741  1.00  0.00     0.191 C 
HETATM   12  C   UNL     1      24.434  44.431  51.139  1.00  0.00     0.061 C 
HETATM   13  C   UNL     1      24.214  45.485  50.055  1.00  0.00     0.237 C 
BRANCH  11  14
HETATM   14  N   UNL     1      25.257  42.245  50.018  1.00  0.00    -0.064 N 
HETATM   15  H   UNL     1      25.639  42.959  49.372  1.00  0.00     0.280 HD
HETATM   16  C   UNL     1      26.444  41.938  50.940  1.00  0.00     0.266 C 
HETATM   17  C   UNL     1      27.677  41.426  50.181  1.00  0.00     0.144 C 
HETATM   18  C   UNL     1      27.318  40.257  49.274  1.00  0.00     0.035 C 
HETATM   19  C   UNL     1      26.174  40.627  48.346  1.00  0.00     0.030 C 
HETATM   20  C   UNL     1      24.938  41.072  49.117  1.00  0.00     0.235 C 
BRANCH  17  21
HETATM   21  O   UNL     1      28.624  40.988  51.144  1.00  0.00    -0.394 OA
HETATM   22  H   UNL     1      29.038  40.159  50.837  1.00  0.00     0.210 HD
ENDBRANCH  17  21
ENDBRANCH  11  14
ENDBRANCH   6   7
ENDBRANCH   4   6
BRANCH   3  23
HETATM   23  C   UNL     1      24.558  48.962  48.908  1.00  0.00    -0.005 A 
HETATM   24  C   UNL     1      25.198  49.917  48.104  1.00  0.00     0.017 A 
HETATM   25  C   UNL     1      26.583  50.081  48.177  1.00  0.00     0.043 A 
HETATM   26  C   UNL     1      27.323  49.286  49.045  1.00  0.00     0.116 A 
HETATM   27  F   UNL     1      28.649  49.449  49.120  1.00  0.00    -0.206 F 
HETATM   28  C   UNL     1      26.709  48.319  49.831  1.00  0.00     0.043 A 
HETATM   29  C   UNL     1      25.324  48.150  49.759  1.00  0.00     0.017 A 
ENDBRANCH   3  23
BRANCH   1  30
HETATM   30  C   UNL     1      19.913  50.210  49.168  1.00  0.00     0.058 A 
HETATM   31  C   UNL     1      19.949  51.549  48.759  1.00  0.00     0.032 A 
HETATM   32  C   UNL     1      18.855  52.389  48.991  1.00  0.00     0.009 A 
HETATM   33  C   UNL     1      17.716  51.909  49.642  1.00  0.00    -0.062 A 
HETATM   34  C   UNL     1      16.528  52.797  49.880  1.00  0.00     0.048 C 
HETATM   35  C   UNL     1      17.677  50.568  50.043  1.00  0.00     0.009 A 
HETATM   36  C   UNL     1      18.766  49.720  49.811  1.00  0.00     0.032 A 
ENDBRANCH   1  30
TORSDOF 6
ENDMDL
MODEL 3
REMARK VINA RESULT:      -9.6      3.848      8.411
REMARK  6 active torsions:
REMARK  status: ('A' for Active; 'I' for Inactive)
REMARK    1  A    between atoms: C_5  and  N_6 
REMARK    2  A    between atoms: C_8  and  C_9 
REMARK    3  A    between atoms: C_16  and  C_17 
REMARK    4  A    between atoms: C_17  and  N_18 
REMARK    5  A    between atoms: C_22  and  N_23 
REMARK    6  A    between atoms: C_26  and  O_27 
ROOT
HETATM    1  N   UNL     1      27.583  43.986  53.046  1.00  0.00    -0.244 N 
HETATM    2  N   UNL     1      27.269  45.123  52.387  1.00  0.00    -0.167 NA
HETATM    3  C   UNL     1      26.253  44.825  51.575  1.00  0.00     0.097 A 
HETATM    4  C   UNL     1      25.980  43.430  51.593  1.00  0.00     0.016 A 
HETATM    5  C   UNL     1      26.813  42.937  52.582  1.00  0.00     0.130 A 
ENDROOT
BRANCH   4   6
HETATM    6  C   UNL     1      25.022  42.664  50.763  1.00  0.00     0.277 C 
BRANCH   6   7
HETATM    7  N   UNL     1      25.575  42.209  49.394  1.00  0.00    -0.067 N 
HETATM    8  H   UNL     1      25.287  42.969  48.753  1.00  0.00     0.280 HD
HETATM    9  C   UNL     1      27.079  42.153  49.380  1.00  0.00     0.237 C 
HETATM   10  C   UNL     1      27.583  41.644  48.047  1.00  0.00     0.061 C 
HETATM   11  C   UNL     1      27.019  40.280  47.652  1.00  0.00     0.191 C 
HETATM   12  C   UNL     1      25.488  40.319  47.710  1.00  0.00     0.061 C 
HETATM   13  C   UNL     1      24.886  40.939  48.970  1.00  0.00     0.237 C 
BRANCH  11  14
HETATM   14  N   UNL     1      27.659  39.063  48.359  1.00  0.00    -0.064 N 
HETATM   15  H   UNL     1      27.671  38.333  47.625  1.00  0.00     0.280 HD
HETATM   16  C   UNL     1      29.147  39.269  48.671  1.00  0.00     0.266 C 
HETATM   17  C   UNL     1      29.844  37.985  49.147  1.00  0.00     0.144 C 
HETATM   18  C   UNL     1      29.084  37.342  50.299  1.00  0.00     0.035 C 
HETATM   19  C   UNL     1      27.630  37.112  49.924  1.00  0.00     0.030 C 
HETATM   20  C   UNL     1      26.938  38.406  49.515  1.00  0.00     0.235 C 
BRANCH  17  21
HETATM   21  O   UNL     1      31.143  38.342  49.593  1.00  0.00    -0.394 OA
HETATM   22  H   UNL     1      31.273  39.303  49.475  1.00  0.00     0.210 HD
ENDBRANCH  17  21
ENDBRANCH  11  14
ENDBRANCH   6   7
ENDBRANCH   4   6
BRANCH   3  23
HETATM   23  C   UNL     1      25.608  45.864  50.781  1.00  0.00    -0.005 A 
HETATM   24  C   UNL     1      26.292  47.053  50.489  1.00  0.00     0.017 A 
HETATM   25  C   UNL     1      25.680  48.045  49.720  1.00  0.00     0.043 A 
HETATM   26  C   UNL     1      24.385  47.849  49.253  1.00  0.00     0.116 A 
HETATM   27  F   UNL     1      23.801  48.795  48.509  1.00  0.00    -0.206 F 
HETATM   28  C   UNL     1      23.683  46.687  49.553  1.00  0.00     0.043 A 
HETATM   29  C   UNL     1      24.292  45.694  50.324  1.00  0.00     0.017 A 
ENDBRANCH   3  23
BRANCH   1  30
HETATM   30  C   UNL     1      28.615  43.949  54.021  1.00  0.00     0.058 A 
HETATM   31  C   UNL     1      28.711  44.984  54.960  1.00  0.00     0.032 A 
HETATM   32  C   UNL     1      29.726  44.974  55.922  1.00  0.00     0.009 A 
HETATM   33  C   UNL     1      30.663  43.937  55.954  1.00  0.00    -0.062 A 
HETATM   34  C   UNL     1      31.746  43.906  56.995  1.00  0.00     0.048 C 
HETATM   35  C   UNL     1      30.560  42.898  55.022  1.00  0.00     0.009 A 
HETATM   36  C   UNL     1      29.545  42.900  54.059  1.00  0.00     0.032 A 
ENDBRANCH   1  30
TORSDOF 6
ENDMDL
MODEL 4
REMARK VINA RESULT:      -9.5      4.158      6.415
REMARK  6 active torsions:
REMARK  status: ('A' for Active; 'I' for Inactive)
REMARK    1  A    between atoms: C_5  and  N_6 
REMARK    2  A    between atoms: C_8  and  C_9 
REMARK    3  A    between atoms: C_16  and  C_17 
REMARK    4  A    between atoms: C_17  and  N_18 
REMARK    5  A    between atoms: C_22  and  N_23 
REMARK    6  A    between atoms: C_26  and  O_27 
ROOT
HETATM    1  N   UNL     1      25.277  46.286  50.120  1.00  0.00    -0.244 N 
HETATM    2  N   UNL     1      26.153  46.217  51.145  1.00  0.00    -0.167 NA
HETATM    3  C   UNL     1      26.406  44.922  51.344  1.00  0.00     0.097 A 
HETATM    4  C   UNL     1      25.573  44.110  50.526  1.00  0.00     0.016 A 
HETATM    5  C   UNL     1      24.905  45.015  49.722  1.00  0.00     0.130 A 
ENDROOT
BRANCH   4   6
HETATM    6  C   UNL     1      25.446  42.634  50.513  1.00  0.00     0.277 C 
BRANCH   6   7
HETATM    7  N   UNL     1      25.833  41.966  49.175  1.00  0.00    -0.067 N 
HETATM    8  H   UNL     1      25.469  42.623  48.463  1.00  0.00     0.280 HD
HETATM    9  C   UNL     1      27.325  41.883  48.992  1.00  0.00     0.237 C 
HETATM   10  C   UNL     1      27.667  41.167  47.704  1.00  0.00     0.061 C 
HETATM   11  C   UNL     1      27.062  39.768  47.594  1.00  0.00     0.191 C 
HETATM   12  C   UNL     1      25.549  39.841  47.825  1.00  0.00     0.061 C 
HETATM   13  C   UNL     1      25.100  40.658  49.037  1.00  0.00     0.237 C 
BRANCH  11  14
HETATM   14  N   UNL     1      27.784  38.664  48.400  1.00  0.00    -0.064 N 
HETATM   15  H   UNL     1      27.900  37.898  47.713  1.00  0.00     0.280 HD
HETATM   16  C   UNL     1      29.229  39.034  48.758  1.00  0.00     0.266 C 
HETATM   17  C   UNL     1      30.024  37.856  49.339  1.00  0.00     0.144 C 
HETATM   18  C   UNL     1      29.278  37.208  50.498  1.00  0.00     0.035 C 
HETATM   19  C   UNL     1      27.872  36.813  50.079  1.00  0.00     0.030 C 
HETATM   20  C   UNL     1      27.077  38.005  49.564  1.00  0.00     0.235 C 
BRANCH  17  21
HETATM   21  O   UNL     1      31.261  38.365  49.815  1.00  0.00    -0.394 OA
HETATM   22  H   UNL     1      31.222  39.341  49.836  1.00  0.00     0.210 HD
ENDBRANCH  17  21
ENDBRANCH  11  14
ENDBRANCH   6   7
ENDBRANCH   4   6
BRANCH   3  23
HETATM   23  C   UNL     1      27.395  44.502  52.330  1.00  0.00    -0.005 A 
HETATM   24  C   UNL     1      27.272  44.908  53.667  1.00  0.00     0.017 A 
HETATM   25  C   UNL     1      28.212  44.498  54.614  1.00  0.00     0.043 A 
HETATM   26  C   UNL     1      29.274  43.692  54.222  1.00  0.00     0.116 A 
HETATM   27  F   UNL     1      30.171  43.292  55.132  1.00  0.00    -0.206 F 
HETATM   28  C   UNL     1      29.426  43.300  52.898  1.00  0.00     0.043 A 
HETATM   29  C   UNL     1      28.489  43.710  51.946  1.00  0.00     0.017 A 
ENDBRANCH   3  23
BRANCH   1  30
HETATM   30  C   UNL     1      24.807  47.530  49.621  1.00  0.00     0.058 A 
HETATM   31  C   UNL     1      23.429  47.760  49.533  1.00  0.00     0.032 A 
HETATM   32  C   UNL     1      22.945  48.974  49.034  1.00  0.00     0.009 A 
HETATM   33  C   UNL     1      23.829  49.970  48.608  1.00  0.00    -0.062 A 
HETATM   34  C   UNL     1      23.321  51.284  48.088  1.00  0.00     0.048 C 
HETATM   35  C   UNL     1      25.206  49.742  48.706  1.00  0.00     0.009 A 
HETATM   36  C   UNL     1      25.698  48.532  49.207  1.00  0.00     0.032 A 
ENDBRANCH   1  30
TORSDOF 6
ENDMDL
MODEL 5
REMARK VINA RESULT:      -9.4      2.651      9.001
REMARK  6 active torsions:
REMARK  status: ('A' for Active; 'I' for Inactive)
REMARK    1  A    between atoms: C_5  and  N_6 
REMARK    2  A    between atoms: C_8  and  C_9 
REMARK    3  A    between atoms: C_16  and  C_17 
REMARK    4  A    between atoms: C_17  and  N_18 
REMARK    5  A    between atoms: C_22  and  N_23 
REMARK    6  A    between atoms: C_26  and  O_27 
ROOT
HETATM    1  N   UNL     1      27.870  43.935  53.677  1.00  0.00    -0.244 N 
HETATM    2  N   UNL     1      27.908  42.961  52.743  1.00  0.00    -0.167 NA
HETATM    3  C   UNL     1      26.826  43.122  51.979  1.00  0.00     0.097 A 
HETATM    4  C   UNL     1      25.980  44.137  52.504  1.00  0.00     0.016 A 
HETATM    5  C   UNL     1      26.704  44.668  53.556  1.00  0.00     0.130 A 
ENDROOT
BRANCH   4   6
HETATM    6  C   UNL     1      24.637  44.554  52.040  1.00  0.00     0.277 C 
BRANCH   6   7
HETATM    7  N   UNL     1      24.634  45.372  50.728  1.00  0.00    -0.067 N 
HETATM    8  H   UNL     1      25.518  45.093  50.268  1.00  0.00     0.280 HD
HETATM    9  C   UNL     1      23.505  44.976  49.815  1.00  0.00     0.237 C 
HETATM   10  C   UNL     1      23.495  45.839  48.572  1.00  0.00     0.061 C 
HETATM   11  C   UNL     1      23.415  47.338  48.860  1.00  0.00     0.191 C 
HETATM   12  C   UNL     1      24.535  47.737  49.827  1.00  0.00     0.061 C 
HETATM   13  C   UNL     1      24.706  46.841  51.053  1.00  0.00     0.237 C 
BRANCH  11  14
HETATM   14  N   UNL     1      22.015  47.870  49.242  1.00  0.00    -0.064 N 
HETATM   15  H   UNL     1      21.944  47.665  50.254  1.00  0.00     0.280 HD
HETATM   16  C   UNL     1      21.923  49.401  49.188  1.00  0.00     0.266 C 
HETATM   17  C   UNL     1      20.622  49.946  49.796  1.00  0.00     0.144 C 
HETATM   18  C   UNL     1      19.404  49.261  49.191  1.00  0.00     0.035 C 
HETATM   19  C   UNL     1      19.518  47.752  49.314  1.00  0.00     0.030 C 
HETATM   20  C   UNL     1      20.782  47.222  48.651  1.00  0.00     0.235 C 
BRANCH  17  21
HETATM   21  O   UNL     1      20.562  51.334  49.508  1.00  0.00    -0.394 OA
HETATM   22  H   UNL     1      21.451  51.725  49.611  1.00  0.00     0.210 HD
ENDBRANCH  17  21
ENDBRANCH  11  14
ENDBRANCH   6   7
ENDBRANCH   4   6
BRANCH   3  23
HETATM   23  C   UNL     1      26.612  42.281  50.807  1.00  0.00    -0.005 A 
HETATM   24  C   UNL     1      26.309  40.921  50.963  1.00  0.00     0.017 A 
HETATM   25  C   UNL     1      26.094  40.116  49.842  1.00  0.00     0.043 A 
HETATM   26  C   UNL     1      26.190  40.671  48.571  1.00  0.00     0.116 A 
HETATM   27  F   UNL     1      25.977  39.902  47.497  1.00  0.00    -0.206 F 
HETATM   28  C   UNL     1      26.514  42.011  48.397  1.00  0.00     0.043 A 
HETATM   29  C   UNL     1      26.732  42.818  49.516  1.00  0.00     0.017 A 
ENDBRANCH   3  23
BRANCH   1  30
HETATM   30  C   UNL     1      28.896  44.078  54.649  1.00  0.00     0.058 A 
HETATM   31  C   UNL     1      29.842  43.057  54.806  1.00  0.00     0.032 A 
HETATM   32  C   UNL     1      30.853  43.171  55.765  1.00  0.00     0.009 A 
HETATM   33  C   UNL     1      30.929  44.300  56.586  1.00  0.00    -0.062 A 
HETATM   34  C   UNL     1      32.022  44.442  57.606  1.00  0.00     0.048 C 
HETATM   35  C   UNL     1      29.989  45.324  56.422  1.00  0.00     0.009 A 
HETATM   36  C   UNL     1      28.976  45.218  55.462  1.00  0.00     0.032 A 
ENDBRANCH   1  30
TORSDOF 6
ENDMDL
MODEL 6
REMARK VINA RESULT:      -9.3      3.962      6.058
REMARK  6 active torsions:
REMARK  status: ('A' for Active; 'I' for Inactive)
REMARK    1  A    between atoms: C_5  and  N_6 
REMARK    2  A    between atoms: C_8  and  C_9 
REMARK    3  A    between atoms: C_16  and  C_17 
REMARK    4  A    between atoms: C_17  and  N_18 
REMARK    5  A    between atoms: C_22  and  N_23 
REMARK    6  A    between atoms: C_26  and  O_27 
ROOT
HETATM    1  N   UNL     1      24.754  47.407  50.126  1.00  0.00    -0.244 N 
HETATM    2  N   UNL     1      25.018  47.499  51.448  1.00  0.00    -0.167 NA
HETATM    3  C   UNL     1      26.005  46.636  51.700  1.00  0.00     0.097 A 
HETATM    4  C   UNL     1      26.304  45.856  50.550  1.00  0.00     0.016 A 
HETATM    5  C   UNL     1      25.523  46.413  49.553  1.00  0.00     0.130 A 
ENDROOT
BRANCH   4   6
HETATM    6  C   UNL     1      27.241  44.716  50.423  1.00  0.00     0.277 C 
BRANCH   6   7
HETATM    7  N   UNL     1      26.653  43.350  50.846  1.00  0.00    -0.067 N 
HETATM    8  H   UNL     1      25.935  43.602  51.546  1.00  0.00     0.280 HD
HETATM    9  C   UNL     1      25.951  42.658  49.708  1.00  0.00     0.237 C 
HETATM   10  C   UNL     1      25.445  41.298  50.140  1.00  0.00     0.061 C 
HETATM   11  C   UNL     1      26.533  40.382  50.699  1.00  0.00     0.191 C 
HETATM   12  C   UNL     1      27.282  41.100  51.826  1.00  0.00     0.061 C 
HETATM   13  C   UNL     1      27.720  42.534  51.527  1.00  0.00     0.237 C 
BRANCH  11  14
HETATM   14  N   UNL     1      27.445  39.710  49.647  1.00  0.00    -0.064 N 
HETATM   15  H   UNL     1      27.741  40.496  49.043  1.00  0.00     0.280 HD
HETATM   16  C   UNL     1      28.768  39.206  50.238  1.00  0.00     0.266 C 
HETATM   17  C   UNL     1      29.774  38.762  49.166  1.00  0.00     0.144 C 
HETATM   18  C   UNL     1      29.144  37.767  48.200  1.00  0.00     0.035 C 
HETATM   19  C   UNL     1      27.866  38.331  47.603  1.00  0.00     0.030 C 
HETATM   20  C   UNL     1      26.855  38.708  48.678  1.00  0.00     0.235 C 
BRANCH  17  21
HETATM   21  O   UNL     1      30.861  38.135  49.830  1.00  0.00    -0.394 OA
HETATM   22  H   UNL     1      31.578  38.785  49.961  1.00  0.00     0.210 HD
ENDBRANCH  17  21
ENDBRANCH  11  14
ENDBRANCH   6   7
ENDBRANCH   4   6
BRANCH   3  23
HETATM   23  C   UNL     1      26.596  46.552  53.031  1.00  0.00    -0.005 A 
HETATM   24  C   UNL     1      26.833  45.301  53.618  1.00  0.00     0.017 A 
HETATM   25  C   UNL     1      27.407  45.219  54.888  1.00  0.00     0.043 A 
HETATM   26  C   UNL     1      27.735  46.386  55.569  1.00  0.00     0.116 A 
HETATM   27  F   UNL     1      28.293  46.308  56.783  1.00  0.00    -0.206 F 
HETATM   28  C   UNL     1      27.485  47.635  55.013  1.00  0.00     0.043 A 
HETATM   29  C   UNL     1      26.907  47.721  53.743  1.00  0.00     0.017 A 
ENDBRANCH   3  23
BRANCH   1  30
HETATM   30  C   UNL     1      23.766  48.216  49.505  1.00  0.00     0.058 A 
HETATM   31  C   UNL     1      24.061  49.551  49.199  1.00  0.00     0.032 A 
HETATM   32  C   UNL     1      23.099  50.368  48.598  1.00  0.00     0.009 A 
HETATM   33  C   UNL     1      21.827  49.869  48.304  1.00  0.00    -0.062 A 
HETATM   34  C   UNL     1      20.792  50.733  47.641  1.00  0.00     0.048 C 
HETATM   35  C   UNL     1      21.536  48.533  48.601  1.00  0.00     0.009 A 
HETATM   36  C   UNL     1      22.495  47.708  49.199  1.00  0.00     0.032 A 
ENDBRANCH   1  30
TORSDOF 6
ENDMDL
MODEL 7
REMARK VINA RESULT:      -9.1      4.875      7.495
REMARK  6 active torsions:
REMARK  status: ('A' for Active; 'I' for Inactive)
REMARK    1  A    between atoms: C_5  and  N_6 
REMARK    2  A    between atoms: C_8  and  C_9 
REMARK    3  A    between atoms: C_16  and  C_17 
REMARK    4  A    between atoms: C_17  and  N_18 
REMARK    5  A    between atoms: C_22  and  N_23 
REMARK    6  A    between atoms: C_26  and  O_27 
ROOT
HETATM    1  N   UNL     1      25.764  45.876  50.227  1.00  0.00    -0.244 N 
HETATM    2  N   UNL     1      26.589  45.830  51.296  1.00  0.00    -0.167 NA
HETATM    3  C   UNL     1      26.882  44.543  51.496  1.00  0.00     0.097 A 
HETATM    4  C   UNL     1      26.123  43.709  50.630  1.00  0.00     0.016 A 
HETATM    5  C   UNL     1      25.462  44.596  49.800  1.00  0.00     0.130 A 
ENDROOT
BRANCH   4   6
HETATM    6  C   UNL     1      26.053  42.230  50.599  1.00  0.00     0.277 C 
BRANCH   6   7
HETATM    7  N   UNL     1      27.320  41.536  50.047  1.00  0.00    -0.067 N 
HETATM    8  H   UNL     1      28.087  42.164  50.343  1.00  0.00     0.280 HD
HETATM    9  C   UNL     1      27.559  40.197  50.690  1.00  0.00     0.237 C 
HETATM   10  C   UNL     1      28.768  39.520  50.082  1.00  0.00     0.061 C 
HETATM   11  C   UNL     1      28.684  39.349  48.566  1.00  0.00     0.191 C 
HETATM   12  C   UNL     1      28.394  40.703  47.910  1.00  0.00     0.061 C 
HETATM   13  C   UNL     1      27.268  41.521  48.542  1.00  0.00     0.237 C 
BRANCH  11  14
HETATM   14  N   UNL     1      27.787  38.190  48.074  1.00  0.00    -0.064 N 
HETATM   15  H   UNL     1      26.935  38.668  47.733  1.00  0.00     0.280 HD
HETATM   16  C   UNL     1      28.331  37.507  46.813  1.00  0.00     0.266 C 
HETATM   17  C   UNL     1      27.333  36.526  46.182  1.00  0.00     0.144 C 
HETATM   18  C   UNL     1      26.814  35.532  47.212  1.00  0.00     0.035 C 
HETATM   19  C   UNL     1      26.240  36.255  48.417  1.00  0.00     0.030 C 
HETATM   20  C   UNL     1      27.263  37.176  49.068  1.00  0.00     0.235 C 
BRANCH  17  21
HETATM   21  O   UNL     1      28.014  35.817  45.159  1.00  0.00    -0.394 OA
HETATM   22  H   UNL     1      27.370  35.294  44.642  1.00  0.00     0.210 HD
ENDBRANCH  17  21
ENDBRANCH  11  14
ENDBRANCH   6   7
ENDBRANCH   4   6
BRANCH   3  23
HETATM   23  C   UNL     1      27.834  44.151  52.528  1.00  0.00    -0.005 A 
HETATM   24  C   UNL     1      27.637  44.554  53.857  1.00  0.00     0.017 A 
HETATM   25  C   UNL     1      28.543  44.171  54.848  1.00  0.00     0.043 A 
HETATM   26  C   UNL     1      29.645  43.394  54.507  1.00  0.00     0.116 A 
HETATM   27  F   UNL     1      30.509  43.020  55.458  1.00  0.00    -0.206 F 
HETATM   28  C   UNL     1      29.868  43.006  53.192  1.00  0.00     0.043 A 
HETATM   29  C   UNL     1      28.966  43.390  52.197  1.00  0.00     0.017 A 
ENDBRANCH   3  23
BRANCH   1  30
HETATM   30  C   UNL     1      25.273  47.107  49.715  1.00  0.00     0.058 A 
HETATM   31  C   UNL     1      23.892  47.292  49.575  1.00  0.00     0.032 A 
HETATM   32  C   UNL     1      23.388  48.491  49.062  1.00  0.00     0.009 A 
HETATM   33  C   UNL     1      24.254  49.517  48.674  1.00  0.00    -0.062 A 
HETATM   34  C   UNL     1      23.722  50.817  48.140  1.00  0.00     0.048 C 
HETATM   35  C   UNL     1      25.633  49.335  48.824  1.00  0.00     0.009 A 
HETATM   36  C   UNL     1      26.145  48.139  49.340  1.00  0.00     0.032 A 
ENDBRANCH   1  30
TORSDOF 6
ENDMDL
MODEL 8
REMARK VINA RESULT:      -9.1      5.423      8.890
REMARK  6 active torsions:
REMARK  status: ('A' for Active; 'I' for Inactive)
REMARK    1  A    between atoms: C_5  and  N_6 
REMARK    2  A    between atoms: C_8  and  C_9 
REMARK    3  A    between atoms: C_16  and  C_17 
REMARK    4  A    between atoms: C_17  and  N_18 
REMARK    5  A    between atoms: C_22  and  N_23 
REMARK    6  A    between atoms: C_26  and  O_27 
ROOT
HETATM    1  N   UNL     1      20.914  49.513  48.984  1.00  0.00    -0.244 N 
HETATM    2  N   UNL     1      22.199  49.861  49.208  1.00  0.00    -0.167 NA
HETATM    3  C   UNL     1      22.938  48.781  48.946  1.00  0.00     0.097 A 
HETATM    4  C   UNL     1      22.113  47.654  48.680  1.00  0.00     0.016 A 
HETATM    5  C   UNL     1      20.831  48.172  48.660  1.00  0.00     0.130 A 
ENDROOT
BRANCH   4   6
HETATM    6  C   UNL     1      22.514  46.245  48.457  1.00  0.00     0.277 C 
BRANCH   6   7
HETATM    7  N   UNL     1      21.583  45.451  47.513  1.00  0.00    -0.067 N 
HETATM    8  H   UNL     1      22.007  44.507  47.494  1.00  0.00     0.280 HD
HETATM    9  C   UNL     1      20.193  45.311  48.073  1.00  0.00     0.237 C 
HETATM   10  C   UNL     1      19.294  44.585  47.096  1.00  0.00     0.061 C 
HETATM   11  C   UNL     1      19.223  45.240  45.717  1.00  0.00     0.191 C 
HETATM   12  C   UNL     1      20.639  45.427  45.163  1.00  0.00     0.061 C 
HETATM   13  C   UNL     1      21.656  46.037  46.128  1.00  0.00     0.237 C 
BRANCH  11  14
HETATM   14  N   UNL     1      18.322  46.492  45.618  1.00  0.00    -0.064 N 
HETATM   15  H   UNL     1      17.788  46.339  44.745  1.00  0.00     0.280 HD
HETATM   16  C   UNL     1      17.228  46.526  46.694  1.00  0.00     0.266 C 
HETATM   17  C   UNL     1      16.186  47.629  46.455  1.00  0.00     0.144 C 
HETATM   18  C   UNL     1      16.855  48.982  46.252  1.00  0.00     0.035 C 
HETATM   19  C   UNL     1      17.892  48.910  45.145  1.00  0.00     0.030 C 
HETATM   20  C   UNL     1      18.952  47.853  45.428  1.00  0.00     0.235 C 
BRANCH  17  21
HETATM   21  O   UNL     1      15.357  47.693  47.605  1.00  0.00    -0.394 OA
HETATM   22  H   UNL     1      15.289  48.621  47.904  1.00  0.00     0.210 HD
ENDBRANCH  17  21
ENDBRANCH  11  14
ENDBRANCH   6   7
ENDBRANCH   4   6
BRANCH   3  23
HETATM   23  C   UNL     1      24.394  48.845  49.002  1.00  0.00    -0.005 A 
HETATM   24  C   UNL     1      25.107  47.955  49.817  1.00  0.00     0.017 A 
HETATM   25  C   UNL     1      26.501  48.010  49.864  1.00  0.00     0.043 A 
HETATM   26  C   UNL     1      27.177  48.957  49.104  1.00  0.00     0.116 A 
HETATM   27  F   UNL     1      28.514  49.005  49.142  1.00  0.00    -0.206 F 
HETATM   28  C   UNL     1      26.485  49.864  48.309  1.00  0.00     0.043 A 
HETATM   29  C   UNL     1      25.090  49.814  48.262  1.00  0.00     0.017 A 
ENDBRANCH   3  23
BRANCH   1  30
HETATM   30  C   UNL     1      19.851  50.442  49.140  1.00  0.00     0.058 A 
HETATM   31  C   UNL     1      18.733  50.086  49.906  1.00  0.00     0.032 A 
HETATM   32  C   UNL     1      17.670  50.981  50.064  1.00  0.00     0.009 A 
HETATM   33  C   UNL     1      17.703  52.238  49.453  1.00  0.00    -0.062 A 
HETATM   34  C   UNL     1      16.576  53.214  49.631  1.00  0.00     0.048 C 
HETATM   35  C   UNL     1      18.825  52.596  48.696  1.00  0.00     0.009 A 
HETATM   36  C   UNL     1      19.894  51.707  48.536  1.00  0.00     0.032 A 
ENDBRANCH   1  30
TORSDOF 6
ENDMDL
MODEL 9
REMARK VINA RESULT:      -8.9      3.211      7.837
REMARK  6 active torsions:
REMARK  status: ('A' for Active; 'I' for Inactive)
REMARK    1  A    between atoms: C_5  and  N_6 
REMARK    2  A    between atoms: C_8  and  C_9 
REMARK    3  A    between atoms: C_16  and  C_17 
REMARK    4  A    between atoms: C_17  and  N_18 
REMARK    5  A    between atoms: C_22  and  N_23 
REMARK    6  A    between atoms: C_26  and  O_27 
ROOT
HETATM    1  N   UNL     1      26.248  44.912  51.935  1.00  0.00    -0.244 N 
HETATM    2  N   UNL     1      26.304  46.055  51.217  1.00  0.00    -0.167 NA
HETATM    3  C   UNL     1      25.117  46.191  50.624  1.00  0.00     0.097 A 
HETATM    4  C   UNL     1      24.305  45.044  50.840  1.00  0.00     0.016 A 
HETATM    5  C   UNL     1      25.040  44.274  51.724  1.00  0.00     0.130 A 
ENDROOT
BRANCH   4   6
HETATM    6  C   UNL     1      22.974  44.732  50.272  1.00  0.00     0.277 C 
BRANCH   6   7
HETATM    7  N   UNL     1      22.996  43.741  49.086  1.00  0.00    -0.067 N 
HETATM    8  H   UNL     1      22.048  43.829  48.680  1.00  0.00     0.280 HD
HETATM    9  C   UNL     1      23.981  44.149  48.023  1.00  0.00     0.237 C 
HETATM   10  C   UNL     1      24.022  43.125  46.910  1.00  0.00     0.061 C 
HETATM   11  C   UNL     1      24.343  41.709  47.385  1.00  0.00     0.191 C 
HETATM   12  C   UNL     1      23.372  41.306  48.499  1.00  0.00     0.061 C 
HETATM   13  C   UNL     1      23.166  42.338  49.607  1.00  0.00     0.237 C 
BRANCH  11  14
HETATM   14  N   UNL     1      25.832  41.431  47.696  1.00  0.00    -0.064 N 
HETATM   15  H   UNL     1      26.235  42.376  47.822  1.00  0.00     0.280 HD
HETATM   16  C   UNL     1      26.043  40.777  49.068  1.00  0.00     0.266 C 
HETATM   17  C   UNL     1      27.519  40.722  49.487  1.00  0.00     0.144 C 
HETATM   18  C   UNL     1      28.376  40.092  48.397  1.00  0.00     0.035 C 
HETATM   19  C   UNL     1      28.172  40.806  47.071  1.00  0.00     0.030 C 
HETATM   20  C   UNL     1      26.711  40.796  46.641  1.00  0.00     0.235 C 
BRANCH  17  21
HETATM   21  O   UNL     1      27.605  39.925  50.658  1.00  0.00    -0.394 OA
HETATM   22  H   UNL     1      27.284  40.440  51.424  1.00  0.00     0.210 HD
ENDBRANCH  17  21
ENDBRANCH  11  14
ENDBRANCH   6   7
ENDBRANCH   4   6
BRANCH   3  23
HETATM   23  C   UNL     1      24.812  47.382  49.839  1.00  0.00    -0.005 A 
HETATM   24  C   UNL     1      25.834  48.275  49.489  1.00  0.00     0.017 A 
HETATM   25  C   UNL     1      25.545  49.410  48.728  1.00  0.00     0.043 A 
HETATM   26  C   UNL     1      24.236  49.652  48.328  1.00  0.00     0.116 A 
HETATM   27  F   UNL     1      23.960  50.736  47.592  1.00  0.00    -0.206 F 
HETATM   28  C   UNL     1      23.206  48.790  48.686  1.00  0.00     0.043 A 
HETATM   29  C   UNL     1      23.491  47.656  49.449  1.00  0.00     0.017 A 
ENDBRANCH   3  23
BRANCH   1  30
HETATM   30  C   UNL     1      27.344  44.471  52.723  1.00  0.00     0.058 A 
HETATM   31  C   UNL     1      27.536  45.012  54.000  1.00  0.00     0.032 A 
HETATM   32  C   UNL     1      28.615  44.601  54.788  1.00  0.00     0.009 A 
HETATM   33  C   UNL     1      29.523  43.651  54.309  1.00  0.00    -0.062 A 
HETATM   34  C   UNL     1      30.675  43.188  55.154  1.00  0.00     0.048 C 
HETATM   35  C   UNL     1      29.325  43.103  53.037  1.00  0.00     0.009 A 
HETATM   36  C   UNL     1      28.245  43.508  52.244  1.00  0.00     0.032 A 
ENDBRANCH   1  30
TORSDOF 6
ENDMDL
MODEL 10
REMARK VINA RESULT:      -8.9      3.933      9.712
REMARK  6 active torsions:
REMARK  status: ('A' for Active; 'I' for Inactive)
REMARK    1  A    between atoms: C_5  and  N_6 
REMARK    2  A    between atoms: C_8  and  C_9 
REMARK    3  A    between atoms: C_16  and  C_17 
REMARK    4  A    between atoms: C_17  and  N_18 
REMARK    5  A    between atoms: C_22  and  N_23 
REMARK    6  A    between atoms: C_26  and  O_27 
ROOT
HETATM    1  N   UNL     1      27.042  42.254  50.574  1.00  0.00    -0.244 N 
HETATM    2  N   UNL     1      27.760  42.829  51.563  1.00  0.00    -0.167 NA
HETATM    3  C   UNL     1      26.998  43.797  52.075  1.00  0.00     0.097 A 
HETATM    4  C   UNL     1      25.806  43.960  51.317  1.00  0.00     0.016 A 
HETATM    5  C   UNL     1      25.845  42.924  50.402  1.00  0.00     0.130 A 
ENDROOT
BRANCH   4   6
HETATM    6  C   UNL     1      24.749  44.986  51.466  1.00  0.00     0.277 C 
BRANCH   6   7
HETATM    7  N   UNL     1      24.441  45.786  50.179  1.00  0.00    -0.067 N 
HETATM    8  H   UNL     1      25.226  45.542  49.550  1.00  0.00     0.280 HD
HETATM    9  C   UNL     1      23.171  45.326  49.515  1.00  0.00     0.237 C 
HETATM   10  C   UNL     1      22.869  46.171  48.296  1.00  0.00     0.061 C 
HETATM   11  C   UNL     1      22.777  47.668  48.589  1.00  0.00     0.191 C 
HETATM   12  C   UNL     1      24.048  48.131  49.307  1.00  0.00     0.061 C 
HETATM   13  C   UNL     1      24.507  47.261  50.477  1.00  0.00     0.237 C 
BRANCH  11  14
HETATM   14  N   UNL     1      21.459  48.140  49.245  1.00  0.00    -0.064 N 
HETATM   15  H   UNL     1      21.577  47.885  50.241  1.00  0.00     0.280 HD
HETATM   16  C   UNL     1      21.328  49.668  49.289  1.00  0.00     0.266 C 
HETATM   17  C   UNL     1      20.149  50.145  50.150  1.00  0.00     0.144 C 
HETATM   18  C   UNL     1      18.855  49.455  49.739  1.00  0.00     0.035 C 
HETATM   19  C   UNL     1      19.019  47.945  49.760  1.00  0.00     0.030 C 
HETATM   20  C   UNL     1      20.153  47.485  48.852  1.00  0.00     0.235 C 
BRANCH  17  21
HETATM   21  O   UNL     1      20.009  51.543  49.951  1.00  0.00    -0.394 OA
HETATM   22  H   UNL     1      19.374  51.901  50.601  1.00  0.00     0.210 HD
ENDBRANCH  17  21
ENDBRANCH  11  14
ENDBRANCH   6   7
ENDBRANCH   4   6
BRANCH   3  23
HETATM   23  C   UNL     1      27.447  44.561  53.234  1.00  0.00    -0.005 A 
HETATM   24  C   UNL     1      28.496  44.081  54.030  1.00  0.00     0.017 A 
HETATM   25  C   UNL     1      28.933  44.816  55.134  1.00  0.00     0.043 A 
HETATM   26  C   UNL     1      28.316  46.022  55.442  1.00  0.00     0.116 A 
HETATM   27  F   UNL     1      28.739  46.731  56.496  1.00  0.00    -0.206 F 
HETATM   28  C   UNL     1      27.258  46.502  54.679  1.00  0.00     0.043 A 
HETATM   29  C   UNL     1      26.816  45.768  53.576  1.00  0.00     0.017 A 
ENDBRANCH   3  23
BRANCH   1  30
HETATM   30  C   UNL     1      27.545  41.157  49.826  1.00  0.00     0.058 A 
HETATM   31  C   UNL     1      28.082  40.053  50.500  1.00  0.00     0.032 A 
HETATM   32  C   UNL     1      28.595  38.967  49.784  1.00  0.00     0.009 A 
HETATM   33  C   UNL     1      28.587  38.972  48.386  1.00  0.00    -0.062 A 
HETATM   34  C   UNL     1      29.117  37.803  47.606  1.00  0.00     0.048 C 
HETATM   35  C   UNL     1      28.041  40.071  47.713  1.00  0.00     0.009 A 
HETATM   36  C   UNL     1      27.523  41.160  48.423  1.00  0.00     0.032 A 
ENDBRANCH   1  30
TORSDOF 6
ENDMDL
