MODEL 1
REMARK VINA RESULT:      -9.0      0.000      0.000
REMARK  6 active torsions:
REMARK  status: ('A' for Active; 'I' for Inactive)
REMARK    1  A    between atoms: C_7  and  S_8 
REMARK    2  A    between atoms: S_8  and  C_9 
REMARK    3  A    between atoms: C_9  and  C_10 
REMARK    4  A    between atoms: C_18  and  C_19 
REMARK    5  A    between atoms: C_29  and  C_30 
REMARK    6  A    between atoms: C_30  and  O_31 
ROOT
HETATM    1  C   UNL     1      26.842  49.652  48.412  1.00  0.00     0.070 C 
HETATM    2  C   UNL     1      26.015  48.615  49.129  1.00  0.00     0.037 C 
HETATM    3  N   UNL     1      26.735  47.634  49.804  1.00  0.00    -0.192 N 
HETATM    4  C   UNL     1      26.153  46.764  50.652  1.00  0.00     0.726 A 
HETATM    5  N   UNL     1      24.789  46.664  50.681  1.00  0.00    -0.082 N 
HETATM    6  N   UNL     1      24.377  45.860  51.682  1.00  0.00    -0.128 NA
HETATM    7  C   UNL     1      25.554  45.447  52.171  1.00  0.00     0.226 A 
HETATM    8  N   UNL     1      26.664  45.980  51.562  1.00  0.00    -0.035 NA
HETATM    9  C   UNL     1      23.896  47.430  49.802  1.00  0.00     0.204 C 
HETATM   10  C   UNL     1      24.658  48.579  49.139  1.00  0.00     0.070 C 
HETATM   11  H   UNL     1      27.742  47.763  49.875  1.00  0.00     0.184 HD
ENDROOT
BRANCH   9  12
HETATM   12  C   UNL     1      23.223  46.464  48.815  1.00  0.00    -0.017 A 
HETATM   13  C   UNL     1      21.869  46.636  48.382  1.00  0.00    -0.017 A 
HETATM   14  C   UNL     1      21.331  45.708  47.450  1.00  0.00    -0.025 A 
HETATM   15  C   UNL     1      21.004  47.668  48.825  1.00  0.00     0.013 A 
HETATM   16  C   UNL     1      20.012  45.847  46.985  1.00  0.00     0.012 A 
HETATM   17  C   UNL     1      22.107  44.638  46.988  1.00  0.00     0.012 A 
HETATM   18  C   UNL     1      19.198  46.884  47.433  1.00  0.00     0.001 A 
HETATM   19  C   UNL     1      19.692  47.791  48.357  1.00  0.00     0.001 A 
HETATM   20  C   UNL     1      23.408  44.453  47.438  1.00  0.00     0.002 A 
HETATM   21  C   UNL     1      23.958  45.351  48.345  1.00  0.00     0.010 A 
ENDBRANCH   9  12
BRANCH  10  22
HETATM   22  C   UNL     1      23.795  49.650  48.598  1.00  0.00     0.293 C 
HETATM   23  O   UNL     1      23.418  49.700  47.439  1.00  0.00    -0.259 OA
BRANCH  22  24
HETATM   24  O   UNL     1      23.405  50.483  49.595  1.00  0.00    -0.323 OA
HETATM   25  C   UNL     1      22.003  50.758  49.626  1.00  0.00     0.213 C 
ENDBRANCH  22  24
ENDBRANCH  10  22
BRANCH   7  26
HETATM   26  S   UNL     1      25.702  44.368  53.528  1.00  0.00    -0.083 SA
BRANCH  26  27
HETATM   27  C   UNL     1      27.361  43.686  53.264  1.00  0.00     0.123 C 
BRANCH  27  28
HETATM   28  C   UNL     1      28.336  44.231  54.284  1.00  0.00    -0.027 A 
HETATM   29  C   UNL     1      29.645  43.740  54.425  1.00  0.00     0.041 A 
HETATM   30 CL   UNL     1      30.274  42.492  53.409  1.00  0.00    -0.084 Cl
HETATM   31  C   UNL     1      30.494  44.253  55.413  1.00  0.00     0.024 A 
HETATM   32  C   UNL     1      30.047  45.253  56.275  1.00  0.00     0.002 A 
HETATM   33  C   UNL     1      28.751  45.744  56.153  1.00  0.00     0.001 A 
HETATM   34  C   UNL     1      27.902  45.237  55.168  1.00  0.00     0.009 A 
ENDBRANCH  27  28
ENDBRANCH  26  27
ENDBRANCH   7  26
TORSDOF 6
ENDMDL
MODEL 2
REMARK VINA RESULT:      -8.7      2.389      4.389
REMARK  6 active torsions:
REMARK  status: ('A' for Active; 'I' for Inactive)
REMARK    1  A    between atoms: C_7  and  S_8 
REMARK    2  A    between atoms: S_8  and  C_9 
REMARK    3  A    between atoms: C_9  and  C_10 
REMARK    4  A    between atoms: C_18  and  C_19 
REMARK    5  A    between atoms: C_29  and  C_30 
REMARK    6  A    between atoms: C_30  and  O_31 
ROOT
HETATM    1  C   UNL     1      21.403  42.619  46.507  1.00  0.00     0.070 C 
HETATM    2  C   UNL     1      21.962  43.762  47.316  1.00  0.00     0.037 C 
HETATM    3  N   UNL     1      22.435  43.428  48.583  1.00  0.00    -0.192 N 
HETATM    4  C   UNL     1      23.143  44.287  49.340  1.00  0.00     0.726 A 
HETATM    5  N   UNL     1      23.202  45.607  48.983  1.00  0.00    -0.082 N 
HETATM    6  N   UNL     1      24.065  46.288  49.764  1.00  0.00    -0.128 NA
HETATM    7  C   UNL     1      24.435  45.328  50.622  1.00  0.00     0.226 A 
HETATM    8  N   UNL     1      23.887  44.090  50.394  1.00  0.00    -0.035 NA
HETATM    9  C   UNL     1      22.498  46.171  47.824  1.00  0.00     0.204 C 
HETATM   10  C   UNL     1      22.014  45.053  46.899  1.00  0.00     0.070 C 
HETATM   11  H   UNL     1      22.490  42.438  48.810  1.00  0.00     0.184 HD
ENDROOT
BRANCH   9  12
HETATM   12  C   UNL     1      21.385  47.104  48.326  1.00  0.00    -0.017 A 
HETATM   13  C   UNL     1      21.558  48.522  48.407  1.00  0.00    -0.017 A 
HETATM   14  C   UNL     1      20.470  49.315  48.862  1.00  0.00    -0.025 A 
HETATM   15  C   UNL     1      22.752  49.211  48.075  1.00  0.00     0.013 A 
HETATM   16  C   UNL     1      20.590  50.713  48.942  1.00  0.00     0.012 A 
HETATM   17  C   UNL     1      19.266  48.711  49.244  1.00  0.00     0.012 A 
HETATM   18  C   UNL     1      21.775  51.354  48.593  1.00  0.00     0.001 A 
HETATM   19  C   UNL     1      22.858  50.603  48.164  1.00  0.00     0.001 A 
HETATM   20  C   UNL     1      19.114  47.332  49.199  1.00  0.00     0.002 A 
HETATM   21  C   UNL     1      20.162  46.537  48.751  1.00  0.00     0.010 A 
ENDBRANCH   9  12
BRANCH  10  22
HETATM   22  C   UNL     1      21.693  45.494  45.526  1.00  0.00     0.293 C 
HETATM   23  O   UNL     1      20.645  46.032  45.211  1.00  0.00    -0.259 OA
BRANCH  22  24
HETATM   24  O   UNL     1      22.768  45.317  44.717  1.00  0.00    -0.323 OA
HETATM   25  C   UNL     1      22.457  45.231  43.325  1.00  0.00     0.213 C 
ENDBRANCH  22  24
ENDBRANCH  10  22
BRANCH   7  26
HETATM   26  S   UNL     1      25.583  45.583  51.906  1.00  0.00    -0.083 SA
BRANCH  26  27
HETATM   27  C   UNL     1      25.924  43.879  52.424  1.00  0.00     0.123 C 
BRANCH  27  28
HETATM   28  C   UNL     1      27.204  43.805  53.225  1.00  0.00    -0.027 A 
HETATM   29  C   UNL     1      28.024  42.664  53.249  1.00  0.00     0.041 A 
HETATM   30 CL   UNL     1      27.660  41.250  52.324  1.00  0.00    -0.084 Cl
HETATM   31  C   UNL     1      29.179  42.634  54.040  1.00  0.00     0.024 A 
HETATM   32  C   UNL     1      29.525  43.736  54.821  1.00  0.00     0.002 A 
HETATM   33  C   UNL     1      28.720  44.870  54.814  1.00  0.00     0.001 A 
HETATM   34  C   UNL     1      27.569  44.905  54.025  1.00  0.00     0.009 A 
ENDBRANCH  27  28
ENDBRANCH  26  27
ENDBRANCH   7  26
TORSDOF 6
ENDMDL
MODEL 3
REMARK VINA RESULT:      -8.6      4.703      6.563
REMARK  6 active torsions:
REMARK  status: ('A' for Active; 'I' for Inactive)
REMARK    1  A    between atoms: C_7  and  S_8 
REMARK    2  A    between atoms: S_8  and  C_9 
REMARK    3  A    between atoms: C_9  and  C_10 
REMARK    4  A    between atoms: C_18  and  C_19 
REMARK    5  A    between atoms: C_29  and  C_30 
REMARK    6  A    between atoms: C_30  and  O_31 
ROOT
HETATM    1  C   UNL     1      28.565  38.135  47.266  1.00  0.00     0.070 C 
HETATM    2  C   UNL     1      28.244  39.266  48.210  1.00  0.00     0.037 C 
HETATM    3  N   UNL     1      28.306  38.953  49.566  1.00  0.00    -0.192 N 
HETATM    4  C   UNL     1      28.247  39.894  50.528  1.00  0.00     0.726 A 
HETATM    5  N   UNL     1      27.873  41.169  50.201  1.00  0.00    -0.082 N 
HETATM    6  N   UNL     1      28.010  42.005  51.250  1.00  0.00    -0.128 NA
HETATM    7  C   UNL     1      28.401  41.148  52.202  1.00  0.00     0.226 A 
HETATM    8  N   UNL     1      28.555  39.845  51.796  1.00  0.00    -0.035 NA
HETATM    9  C   UNL     1      27.484  41.582  48.846  1.00  0.00     0.204 C 
HETATM   10  C   UNL     1      27.898  40.522  47.826  1.00  0.00     0.070 C 
HETATM   11  H   UNL     1      28.685  38.043  49.815  1.00  0.00     0.184 HD
ENDROOT
BRANCH   9  12
HETATM   12  C   UNL     1      25.984  41.914  48.841  1.00  0.00    -0.017 A 
HETATM   13  C   UNL     1      25.489  43.215  49.177  1.00  0.00    -0.017 A 
HETATM   14  C   UNL     1      24.087  43.443  49.126  1.00  0.00    -0.025 A 
HETATM   15  C   UNL     1      26.298  44.309  49.574  1.00  0.00     0.013 A 
HETATM   16  C   UNL     1      23.559  44.708  49.431  1.00  0.00     0.012 A 
HETATM   17  C   UNL     1      23.214  42.406  48.777  1.00  0.00     0.012 A 
HETATM   18  C   UNL     1      24.388  45.764  49.803  1.00  0.00     0.001 A 
HETATM   19  C   UNL     1      25.757  45.563  49.879  1.00  0.00     0.001 A 
HETATM   20  C   UNL     1      23.694  41.135  48.488  1.00  0.00     0.002 A 
HETATM   21  C   UNL     1      25.062  40.890  48.525  1.00  0.00     0.010 A 
ENDBRANCH   9  12
BRANCH  10  22
HETATM   22  C   UNL     1      27.958  41.008  46.431  1.00  0.00     0.293 C 
HETATM   23  O   UNL     1      28.948  41.510  45.927  1.00  0.00    -0.259 OA
BRANCH  22  24
HETATM   24  O   UNL     1      26.805  40.706  45.784  1.00  0.00    -0.323 OA
HETATM   25  C   UNL     1      26.961  40.419  44.392  1.00  0.00     0.213 C 
ENDBRANCH  22  24
ENDBRANCH  10  22
BRANCH   7  26
HETATM   26  S   UNL     1      28.767  41.631  53.834  1.00  0.00    -0.083 SA
BRANCH  26  27
HETATM   27  C   UNL     1      29.529  43.254  53.564  1.00  0.00     0.123 C 
BRANCH  27  28
HETATM   28  C   UNL     1      29.870  43.915  54.881  1.00  0.00    -0.027 A 
HETATM   29  C   UNL     1      29.219  45.070  55.346  1.00  0.00     0.041 A 
HETATM   30 CL   UNL     1      27.931  45.816  54.468  1.00  0.00    -0.084 Cl
HETATM   31  C   UNL     1      29.602  45.664  56.555  1.00  0.00     0.024 A 
HETATM   32  C   UNL     1      30.642  45.121  57.308  1.00  0.00     0.002 A 
HETATM   33  C   UNL     1      31.302  43.983  56.857  1.00  0.00     0.001 A 
HETATM   34  C   UNL     1      30.921  43.385  55.654  1.00  0.00     0.009 A 
ENDBRANCH  27  28
ENDBRANCH  26  27
ENDBRANCH   7  26
TORSDOF 6
ENDMDL
MODEL 4
REMARK VINA RESULT:      -8.3      4.147      6.397
REMARK  6 active torsions:
REMARK  status: ('A' for Active; 'I' for Inactive)
REMARK    1  A    between atoms: C_7  and  S_8 
REMARK    2  A    between atoms: S_8  and  C_9 
REMARK    3  A    between atoms: C_9  and  C_10 
REMARK    4  A    between atoms: C_18  and  C_19 
REMARK    5  A    between atoms: C_29  and  C_30 
REMARK    6  A    between atoms: C_30  and  O_31 
ROOT
HETATM    1  C   UNL     1      17.113  44.977  45.147  1.00  0.00     0.070 C 
HETATM    2  C   UNL     1      18.382  45.385  45.852  1.00  0.00     0.037 C 
HETATM    3  N   UNL     1      19.042  44.368  46.538  1.00  0.00    -0.192 N 
HETATM    4  C   UNL     1      20.281  44.523  47.042  1.00  0.00     0.726 A 
HETATM    5  N   UNL     1      20.829  45.775  47.109  1.00  0.00    -0.082 N 
HETATM    6  N   UNL     1      22.119  45.726  47.500  1.00  0.00    -0.128 NA
HETATM    7  C   UNL     1      22.261  44.413  47.726  1.00  0.00     0.226 A 
HETATM    8  N   UNL     1      21.153  43.645  47.459  1.00  0.00    -0.035 NA
HETATM    9  C   UNL     1      20.126  46.996  46.693  1.00  0.00     0.204 C 
HETATM   10  C   UNL     1      18.891  46.643  45.865  1.00  0.00     0.070 C 
HETATM   11  H   UNL     1      18.699  43.420  46.405  1.00  0.00     0.184 HD
ENDROOT
BRANCH   9  12
HETATM   12  C   UNL     1      19.832  47.846  47.939  1.00  0.00    -0.017 A 
HETATM   13  C   UNL     1      20.664  48.946  48.325  1.00  0.00    -0.017 A 
HETATM   14  C   UNL     1      20.307  49.695  49.479  1.00  0.00    -0.025 A 
HETATM   15  C   UNL     1      21.840  49.349  47.643  1.00  0.00     0.013 A 
HETATM   16  C   UNL     1      21.085  50.792  49.885  1.00  0.00     0.012 A 
HETATM   17  C   UNL     1      19.180  49.342  50.231  1.00  0.00     0.012 A 
HETATM   18  C   UNL     1      22.226  51.166  49.180  1.00  0.00     0.001 A 
HETATM   19  C   UNL     1      22.606  50.441  48.062  1.00  0.00     0.001 A 
HETATM   20  C   UNL     1      18.397  48.252  49.875  1.00  0.00     0.002 A 
HETATM   21  C   UNL     1      18.722  47.509  48.746  1.00  0.00     0.010 A 
ENDBRANCH   9  12
BRANCH  10  22
HETATM   22  C   UNL     1      18.369  47.757  45.045  1.00  0.00     0.293 C 
HETATM   23  O   UNL     1      18.783  48.034  43.932  1.00  0.00    -0.259 OA
BRANCH  22  24
HETATM   24  O   UNL     1      17.305  48.330  45.661  1.00  0.00    -0.323 OA
HETATM   25  C   UNL     1      17.470  49.717  45.965  1.00  0.00     0.213 C 
ENDBRANCH  22  24
ENDBRANCH  10  22
BRANCH   7  26
HETATM   26  S   UNL     1      23.752  43.688  48.255  1.00  0.00    -0.083 SA
BRANCH  26  27
HETATM   27  C   UNL     1      23.965  44.456  49.884  1.00  0.00     0.123 C 
BRANCH  27  28
HETATM   28  C   UNL     1      24.791  45.719  49.781  1.00  0.00    -0.027 A 
HETATM   29  C   UNL     1      26.196  45.711  49.745  1.00  0.00     0.041 A 
HETATM   30 CL   UNL     1      27.108  44.243  49.772  1.00  0.00    -0.084 Cl
HETATM   31  C   UNL     1      26.913  46.912  49.690  1.00  0.00     0.024 A 
HETATM   32  C   UNL     1      26.240  48.133  49.678  1.00  0.00     0.002 A 
HETATM   33  C   UNL     1      24.850  48.158  49.721  1.00  0.00     0.001 A 
HETATM   34  C   UNL     1      24.131  46.962  49.773  1.00  0.00     0.009 A 
ENDBRANCH  27  28
ENDBRANCH  26  27
ENDBRANCH   7  26
TORSDOF 6
ENDMDL
MODEL 5
REMARK VINA RESULT:      -8.2     19.074     22.588
REMARK  6 active torsions:
REMARK  status: ('A' for Active; 'I' for Inactive)
REMARK    1  A    between atoms: C_7  and  S_8 
REMARK    2  A    between atoms: S_8  and  C_9 
REMARK    3  A    between atoms: C_9  and  C_10 
REMARK    4  A    between atoms: C_18  and  C_19 
REMARK    5  A    between atoms: C_29  and  C_30 
REMARK    6  A    between atoms: C_30  and  O_31 
ROOT
HETATM    1  C   UNL     1      37.000  45.619  63.630  1.00  0.00     0.070 C 
HETATM    2  C   UNL     1      38.218  44.842  64.065  1.00  0.00     0.037 C 
HETATM    3  N   UNL     1      39.440  45.346  63.626  1.00  0.00    -0.192 N 
HETATM    4  C   UNL     1      40.618  44.890  64.092  1.00  0.00     0.726 A 
HETATM    5  N   UNL     1      40.649  43.739  64.832  1.00  0.00    -0.082 N 
HETATM    6  N   UNL     1      41.880  43.513  65.335  1.00  0.00    -0.128 NA
HETATM    7  C   UNL     1      42.562  44.531  64.794  1.00  0.00     0.226 A 
HETATM    8  N   UNL     1      41.821  45.394  64.024  1.00  0.00    -0.035 NA
HETATM    9  C   UNL     1      39.462  42.927  65.127  1.00  0.00     0.204 C 
HETATM   10  C   UNL     1      38.188  43.714  64.820  1.00  0.00     0.070 C 
HETATM   11  H   UNL     1      39.430  46.254  63.169  1.00  0.00     0.184 HD
ENDROOT
BRANCH   9  12
HETATM   12  C   UNL     1      39.577  41.591  64.377  1.00  0.00    -0.017 A 
HETATM   13  C   UNL     1      40.083  40.406  65.001  1.00  0.00    -0.017 A 
HETATM   14  C   UNL     1      40.135  39.206  64.242  1.00  0.00    -0.025 A 
HETATM   15  C   UNL     1      40.555  40.335  66.336  1.00  0.00     0.013 A 
HETATM   16  C   UNL     1      40.609  38.016  64.819  1.00  0.00     0.012 A 
HETATM   17  C   UNL     1      39.721  39.197  62.905  1.00  0.00     0.012 A 
HETATM   18  C   UNL     1      41.051  37.984  66.139  1.00  0.00     0.001 A 
HETATM   19  C   UNL     1      41.029  39.144  66.896  1.00  0.00     0.001 A 
HETATM   20  C   UNL     1      39.266  40.356  62.290  1.00  0.00     0.002 A 
HETATM   21  C   UNL     1      39.199  41.540  63.015  1.00  0.00     0.010 A 
ENDBRANCH   9  12
BRANCH  10  22
HETATM   22  C   UNL     1      36.972  43.184  65.472  1.00  0.00     0.293 C 
HETATM   23  O   UNL     1      36.203  42.399  64.942  1.00  0.00    -0.259 OA
BRANCH  22  24
HETATM   24  O   UNL     1      36.912  43.607  66.759  1.00  0.00    -0.323 OA
HETATM   25  C   UNL     1      35.815  44.476  67.050  1.00  0.00     0.213 C 
ENDBRANCH  22  24
ENDBRANCH  10  22
BRANCH   7  26
HETATM   26  S   UNL     1      44.255  44.810  65.083  1.00  0.00    -0.083 SA
BRANCH  26  27
HETATM   27  C   UNL     1      44.473  46.461  64.367  1.00  0.00     0.123 C 
BRANCH  27  28
HETATM   28  C   UNL     1      45.336  47.326  65.258  1.00  0.00    -0.027 A 
HETATM   29  C   UNL     1      44.847  47.959  66.412  1.00  0.00     0.041 A 
HETATM   30 CL   UNL     1      43.213  47.768  66.943  1.00  0.00    -0.084 Cl
HETATM   31  C   UNL     1      45.680  48.782  67.180  1.00  0.00     0.024 A 
HETATM   32  C   UNL     1      47.006  48.990  66.802  1.00  0.00     0.002 A 
HETATM   33  C   UNL     1      47.503  48.376  65.657  1.00  0.00     0.001 A 
HETATM   34  C   UNL     1      46.677  47.553  64.891  1.00  0.00     0.009 A 
ENDBRANCH  27  28
ENDBRANCH  26  27
ENDBRANCH   7  26
TORSDOF 6
ENDMDL
MODEL 6
REMARK VINA RESULT:      -8.1      3.067      4.644
REMARK  6 active torsions:
REMARK  status: ('A' for Active; 'I' for Inactive)
REMARK    1  A    between atoms: C_7  and  S_8 
REMARK    2  A    between atoms: S_8  and  C_9 
REMARK    3  A    between atoms: C_9  and  C_10 
REMARK    4  A    between atoms: C_18  and  C_19 
REMARK    5  A    between atoms: C_29  and  C_30 
REMARK    6  A    between atoms: C_30  and  O_31 
ROOT
HETATM    1  C   UNL     1      19.915  50.814  47.611  1.00  0.00     0.070 C 
HETATM    2  C   UNL     1      20.878  49.719  47.995  1.00  0.00     0.037 C 
HETATM    3  N   UNL     1      22.228  50.031  47.860  1.00  0.00    -0.192 N 
HETATM    4  C   UNL     1      23.205  49.243  48.349  1.00  0.00     0.726 A 
HETATM    5  N   UNL     1      22.899  47.980  48.777  1.00  0.00    -0.082 N 
HETATM    6  N   UNL     1      23.960  47.391  49.366  1.00  0.00    -0.128 NA
HETATM    7  C   UNL     1      24.897  48.332  49.189  1.00  0.00     0.226 A 
HETATM    8  N   UNL     1      24.470  49.479  48.567  1.00  0.00    -0.035 NA
HETATM    9  C   UNL     1      21.553  47.397  48.702  1.00  0.00     0.204 C 
HETATM   10  C   UNL     1      20.514  48.487  48.435  1.00  0.00     0.070 C 
HETATM   11  H   UNL     1      22.462  50.997  47.646  1.00  0.00     0.184 HD
ENDROOT
BRANCH   9  12
HETATM   12  C   UNL     1      21.561  46.263  47.665  1.00  0.00    -0.017 A 
HETATM   13  C   UNL     1      22.006  44.941  47.985  1.00  0.00    -0.017 A 
HETATM   14  C   UNL     1      21.961  43.945  46.972  1.00  0.00    -0.025 A 
HETATM   15  C   UNL     1      22.509  44.540  49.249  1.00  0.00     0.013 A 
HETATM   16  C   UNL     1      22.372  42.630  47.245  1.00  0.00     0.012 A 
HETATM   17  C   UNL     1      21.511  44.264  45.685  1.00  0.00     0.012 A 
HETATM   18  C   UNL     1      22.846  42.271  48.505  1.00  0.00     0.001 A 
HETATM   19  C   UNL     1      22.919  43.228  49.505  1.00  0.00     0.001 A 
HETATM   20  C   UNL     1      21.115  45.557  45.368  1.00  0.00     0.002 A 
HETATM   21  C   UNL     1      21.145  46.546  46.344  1.00  0.00     0.010 A 
ENDBRANCH   9  12
BRANCH  10  22
HETATM   22  C   UNL     1      19.127  48.102  48.769  1.00  0.00     0.293 C 
HETATM   23  O   UNL     1      18.262  47.887  47.937  1.00  0.00    -0.259 OA
BRANCH  22  24
HETATM   24  O   UNL     1      19.004  47.917  50.107  1.00  0.00    -0.323 OA
HETATM   25  C   UNL     1      18.611  49.082  50.835  1.00  0.00     0.213 C 
ENDBRANCH  22  24
ENDBRANCH  10  22
BRANCH   7  26
HETATM   26  S   UNL     1      26.534  48.171  49.759  1.00  0.00    -0.083 SA
BRANCH  26  27
HETATM   27  C   UNL     1      26.277  47.356  51.358  1.00  0.00     0.123 C 
BRANCH  27  28
HETATM   28  C   UNL     1      26.309  45.851  51.207  1.00  0.00    -0.027 A 
HETATM   29  C   UNL     1      26.065  44.972  52.275  1.00  0.00     0.041 A 
HETATM   30 CL   UNL     1      25.662  45.537  53.858  1.00  0.00    -0.084 Cl
HETATM   31  C   UNL     1      26.146  43.587  52.089  1.00  0.00     0.024 A 
HETATM   32  C   UNL     1      26.479  43.063  50.841  1.00  0.00     0.002 A 
HETATM   33  C   UNL     1      26.730  43.920  49.775  1.00  0.00     0.001 A 
HETATM   34  C   UNL     1      26.648  45.302  49.956  1.00  0.00     0.009 A 
ENDBRANCH  27  28
ENDBRANCH  26  27
ENDBRANCH   7  26
TORSDOF 6
ENDMDL
MODEL 7
REMARK VINA RESULT:      -8.1      5.273      8.069
REMARK  6 active torsions:
REMARK  status: ('A' for Active; 'I' for Inactive)
REMARK    1  A    between atoms: C_7  and  S_8 
REMARK    2  A    between atoms: S_8  and  C_9 
REMARK    3  A    between atoms: C_9  and  C_10 
REMARK    4  A    between atoms: C_18  and  C_19 
REMARK    5  A    between atoms: C_29  and  C_30 
REMARK    6  A    between atoms: C_30  and  O_31 
ROOT
HETATM    1  C   UNL     1      17.445  46.582  42.716  1.00  0.00     0.070 C 
HETATM    2  C   UNL     1      18.108  47.139  43.951  1.00  0.00     0.037 C 
HETATM    3  N   UNL     1      18.755  46.207  44.758  1.00  0.00    -0.192 N 
HETATM    4  C   UNL     1      19.560  46.568  45.776  1.00  0.00     0.726 A 
HETATM    5  N   UNL     1      19.565  47.868  46.201  1.00  0.00    -0.082 N 
HETATM    6  N   UNL     1      20.528  48.079  47.122  1.00  0.00    -0.128 NA
HETATM    7  C   UNL     1      21.017  46.840  47.260  1.00  0.00     0.226 A 
HETATM    8  N   UNL     1      20.446  45.887  46.452  1.00  0.00    -0.035 NA
HETATM    9  C   UNL     1      18.704  48.914  45.636  1.00  0.00     0.204 C 
HETATM   10  C   UNL     1      18.098  48.448  44.312  1.00  0.00     0.070 C 
HETATM   11  H   UNL     1      18.845  45.262  44.394  1.00  0.00     0.184 HD
ENDROOT
BRANCH   9  12
HETATM   12  C   UNL     1      17.670  49.331  46.694  1.00  0.00    -0.017 A 
HETATM   13  C   UNL     1      17.890  50.429  47.584  1.00  0.00    -0.017 A 
HETATM   14  C   UNL     1      16.872  50.761  48.519  1.00  0.00    -0.025 A 
HETATM   15  C   UNL     1      19.066  51.220  47.618  1.00  0.00     0.013 A 
HETATM   16  C   UNL     1      17.038  51.842  49.401  1.00  0.00     0.012 A 
HETATM   17  C   UNL     1      15.692  50.009  48.577  1.00  0.00     0.012 A 
HETATM   18  C   UNL     1      18.203  52.605  49.393  1.00  0.00     0.001 A 
HETATM   19  C   UNL     1      19.219  52.290  48.505  1.00  0.00     0.001 A 
HETATM   20  C   UNL     1      15.498  48.921  47.737  1.00  0.00     0.002 A 
HETATM   21  C   UNL     1      16.476  48.582  46.810  1.00  0.00     0.010 A 
ENDBRANCH   9  12
BRANCH  10  22
HETATM   22  C   UNL     1      17.586  49.540  43.457  1.00  0.00     0.293 C 
HETATM   23  O   UNL     1      16.419  49.893  43.430  1.00  0.00    -0.259 OA
BRANCH  22  24
HETATM   24  O   UNL     1      18.614  50.148  42.813  1.00  0.00    -0.323 OA
HETATM   25  C   UNL     1      18.716  49.832  41.423  1.00  0.00     0.213 C 
ENDBRANCH  22  24
ENDBRANCH  10  22
BRANCH   7  26
HETATM   26  S   UNL     1      22.333  46.443  48.328  1.00  0.00    -0.083 SA
BRANCH  26  27
HETATM   27  C   UNL     1      22.577  48.017  49.195  1.00  0.00     0.123 C 
BRANCH  27  28
HETATM   28  C   UNL     1      24.008  48.488  49.064  1.00  0.00    -0.027 A 
HETATM   29  C   UNL     1      24.373  49.617  48.312  1.00  0.00     0.041 A 
HETATM   30 CL   UNL     1      23.205  50.599  47.501  1.00  0.00    -0.084 Cl
HETATM   31  C   UNL     1      25.718  49.987  48.192  1.00  0.00     0.024 A 
HETATM   32  C   UNL     1      26.714  49.232  48.811  1.00  0.00     0.002 A 
HETATM   33  C   UNL     1      26.369  48.107  49.553  1.00  0.00     0.001 A 
HETATM   34  C   UNL     1      25.028  47.737  49.677  1.00  0.00     0.009 A 
ENDBRANCH  27  28
ENDBRANCH  26  27
ENDBRANCH   7  26
TORSDOF 6
ENDMDL
MODEL 8
REMARK VINA RESULT:      -8.1     19.342     22.140
REMARK  6 active torsions:
REMARK  status: ('A' for Active; 'I' for Inactive)
REMARK    1  A    between atoms: C_7  and  S_8 
REMARK    2  A    between atoms: S_8  and  C_9 
REMARK    3  A    between atoms: C_9  and  C_10 
REMARK    4  A    between atoms: C_18  and  C_19 
REMARK    5  A    between atoms: C_29  and  C_30 
REMARK    6  A    between atoms: C_30  and  O_31 
ROOT
HETATM    1  C   UNL     1      44.864  46.290  64.438  1.00  0.00     0.070 C 
HETATM    2  C   UNL     1      43.441  45.898  64.749  1.00  0.00     0.037 C 
HETATM    3  N   UNL     1      42.806  45.122  63.782  1.00  0.00    -0.192 N 
HETATM    4  C   UNL     1      41.617  44.527  63.999  1.00  0.00     0.726 A 
HETATM    5  N   UNL     1      40.881  44.877  65.098  1.00  0.00    -0.082 N 
HETATM    6  N   UNL     1      39.799  44.083  65.235  1.00  0.00    -0.128 NA
HETATM    7  C   UNL     1      39.906  43.323  64.137  1.00  0.00     0.226 A 
HETATM    8  N   UNL     1      41.007  43.570  63.355  1.00  0.00    -0.035 NA
HETATM    9  C   UNL     1      41.289  45.909  66.059  1.00  0.00     0.204 C 
HETATM   10  C   UNL     1      42.766  46.258  65.871  1.00  0.00     0.070 C 
HETATM   11  H   UNL     1      43.379  44.773  63.018  1.00  0.00     0.184 HD
ENDROOT
BRANCH   9  12
HETATM   12  C   UNL     1      40.334  47.106  65.936  1.00  0.00    -0.017 A 
HETATM   13  C   UNL     1      39.281  47.342  66.876  1.00  0.00    -0.017 A 
HETATM   14  C   UNL     1      38.457  48.487  66.701  1.00  0.00    -0.025 A 
HETATM   15  C   UNL     1      38.983  46.507  67.982  1.00  0.00     0.013 A 
HETATM   16  C   UNL     1      37.422  48.766  67.609  1.00  0.00     0.012 A 
HETATM   17  C   UNL     1      38.661  49.346  65.614  1.00  0.00     0.012 A 
HETATM   18  C   UNL     1      37.169  47.928  68.692  1.00  0.00     0.001 A 
HETATM   19  C   UNL     1      37.946  46.796  68.875  1.00  0.00     0.001 A 
HETATM   20  C   UNL     1      39.660  49.093  64.682  1.00  0.00     0.002 A 
HETATM   21  C   UNL     1      40.483  47.984  64.838  1.00  0.00     0.010 A 
ENDBRANCH   9  12
BRANCH  10  22
HETATM   22  C   UNL     1      43.385  46.937  67.029  1.00  0.00     0.293 C 
HETATM   23  O   UNL     1      43.477  48.148  67.138  1.00  0.00    -0.259 OA
BRANCH  22  24
HETATM   24  O   UNL     1      43.717  46.027  67.978  1.00  0.00    -0.323 OA
HETATM   25  C   UNL     1      44.765  46.442  68.858  1.00  0.00     0.213 C 
ENDBRANCH  22  24
ENDBRANCH  10  22
BRANCH   7  26
HETATM   26  S   UNL     1      38.782  42.056  63.737  1.00  0.00    -0.083 SA
BRANCH  26  27
HETATM   27  C   UNL     1      37.434  42.999  62.977  1.00  0.00     0.123 C 
BRANCH  27  28
HETATM   28  C   UNL     1      36.909  44.052  63.928  1.00  0.00    -0.027 A 
HETATM   29  C   UNL     1      36.142  43.739  65.063  1.00  0.00     0.041 A 
HETATM   30 CL   UNL     1      35.767  42.110  65.499  1.00  0.00    -0.084 Cl
HETATM   31  C   UNL     1      35.647  44.756  65.889  1.00  0.00     0.024 A 
HETATM   32  C   UNL     1      35.902  46.094  65.588  1.00  0.00     0.002 A 
HETATM   33  C   UNL     1      36.653  46.419  64.463  1.00  0.00     0.001 A 
HETATM   34  C   UNL     1      37.151  45.408  63.639  1.00  0.00     0.009 A 
ENDBRANCH  27  28
ENDBRANCH  26  27
ENDBRANCH   7  26
TORSDOF 6
ENDMDL
MODEL 9
REMARK VINA RESULT:      -8.0      2.489      3.973
REMARK  6 active torsions:
REMARK  status: ('A' for Active; 'I' for Inactive)
REMARK    1  A    between atoms: C_7  and  S_8 
REMARK    2  A    between atoms: S_8  and  C_9 
REMARK    3  A    between atoms: C_9  and  C_10 
REMARK    4  A    between atoms: C_18  and  C_19 
REMARK    5  A    between atoms: C_29  and  C_30 
REMARK    6  A    between atoms: C_30  and  O_31 
ROOT
HETATM    1  C   UNL     1      20.353  50.161  47.280  1.00  0.00     0.070 C 
HETATM    2  C   UNL     1      21.207  49.054  47.846  1.00  0.00     0.037 C 
HETATM    3  N   UNL     1      22.545  49.376  48.059  1.00  0.00    -0.192 N 
HETATM    4  C   UNL     1      23.383  48.572  48.741  1.00  0.00     0.726 A 
HETATM    5  N   UNL     1      22.998  47.291  49.030  1.00  0.00    -0.082 N 
HETATM    6  N   UNL     1      23.891  46.682  49.838  1.00  0.00    -0.128 NA
HETATM    7  C   UNL     1      24.830  47.633  49.934  1.00  0.00     0.226 A 
HETATM    8  N   UNL     1      24.553  48.804  49.272  1.00  0.00    -0.035 NA
HETATM    9  C   UNL     1      21.720  46.707  48.604  1.00  0.00     0.204 C 
HETATM   10  C   UNL     1      20.764  47.803  48.134  1.00  0.00     0.070 C 
HETATM   11  H   UNL     1      22.811  50.352  47.947  1.00  0.00     0.184 HD
ENDROOT
BRANCH   9  12
HETATM   12  C   UNL     1      21.998  45.617  47.557  1.00  0.00    -0.017 A 
HETATM   13  C   UNL     1      22.364  44.283  47.924  1.00  0.00    -0.017 A 
HETATM   14  C   UNL     1      22.582  43.330  46.892  1.00  0.00    -0.025 A 
HETATM   15  C   UNL     1      22.540  43.830  49.256  1.00  0.00     0.013 A 
HETATM   16  C   UNL     1      22.926  42.004  47.206  1.00  0.00     0.012 A 
HETATM   17  C   UNL     1      22.463  43.703  45.548  1.00  0.00     0.012 A 
HETATM   18  C   UNL     1      23.076  41.594  48.528  1.00  0.00     0.001 A 
HETATM   19  C   UNL     1      22.887  42.508  49.553  1.00  0.00     0.001 A 
HETATM   20  C   UNL     1      22.144  45.008  45.195  1.00  0.00     0.002 A 
HETATM   21  C   UNL     1      21.920  45.955  46.187  1.00  0.00     0.010 A 
ENDBRANCH   9  12
BRANCH  10  22
HETATM   22  C   UNL     1      19.342  47.400  48.102  1.00  0.00     0.293 C 
HETATM   23  O   UNL     1      18.720  47.182  47.076  1.00  0.00    -0.259 OA
BRANCH  22  24
HETATM   24  O   UNL     1      18.886  47.202  49.364  1.00  0.00    -0.323 OA
HETATM   25  C   UNL     1      18.518  48.395  50.058  1.00  0.00     0.213 C 
ENDBRANCH  22  24
ENDBRANCH  10  22
BRANCH   7  26
HETATM   26  S   UNL     1      26.279  47.455  50.882  1.00  0.00    -0.083 SA
BRANCH  26  27
HETATM   27  C   UNL     1      25.593  47.059  52.512  1.00  0.00     0.123 C 
BRANCH  27  28
HETATM   28  C   UNL     1      26.656  46.474  53.417  1.00  0.00    -0.027 A 
HETATM   29  C   UNL     1      27.020  45.118  53.388  1.00  0.00     0.041 A 
HETATM   30 CL   UNL     1      26.311  43.999  52.277  1.00  0.00    -0.084 Cl
HETATM   31  C   UNL     1      27.982  44.621  54.275  1.00  0.00     0.024 A 
HETATM   32  C   UNL     1      28.585  45.466  55.206  1.00  0.00     0.002 A 
HETATM   33  C   UNL     1      28.229  46.810  55.252  1.00  0.00     0.001 A 
HETATM   34  C   UNL     1      27.273  47.310  54.367  1.00  0.00     0.009 A 
ENDBRANCH  27  28
ENDBRANCH  26  27
ENDBRANCH   7  26
TORSDOF 6
ENDMDL
MODEL 10
REMARK VINA RESULT:      -8.0     19.571     22.156
REMARK  6 active torsions:
REMARK  status: ('A' for Active; 'I' for Inactive)
REMARK    1  A    between atoms: C_7  and  S_8 
REMARK    2  A    between atoms: S_8  and  C_9 
REMARK    3  A    between atoms: C_9  and  C_10 
REMARK    4  A    between atoms: C_18  and  C_19 
REMARK    5  A    between atoms: C_29  and  C_30 
REMARK    6  A    between atoms: C_30  and  O_31 
ROOT
HETATM    1  C   UNL     1      44.525  48.038  66.862  1.00  0.00     0.070 C 
HETATM    2  C   UNL     1      43.184  47.441  66.516  1.00  0.00     0.037 C 
HETATM    3  N   UNL     1      43.080  46.898  65.237  1.00  0.00    -0.192 N 
HETATM    4  C   UNL     1      42.026  46.154  64.851  1.00  0.00     0.726 A 
HETATM    5  N   UNL     1      40.904  46.120  65.634  1.00  0.00    -0.082 N 
HETATM    6  N   UNL     1      40.013  45.218  65.175  1.00  0.00    -0.128 NA
HETATM    7  C   UNL     1      40.633  44.798  64.064  1.00  0.00     0.226 A 
HETATM    8  N   UNL     1      41.869  45.352  63.833  1.00  0.00    -0.035 NA
HETATM    9  C   UNL     1      40.753  46.889  66.876  1.00  0.00     0.204 C 
HETATM   10  C   UNL     1      42.109  47.417  67.345  1.00  0.00     0.070 C 
HETATM   11  H   UNL     1      43.937  46.826  64.694  1.00  0.00     0.184 HD
ENDROOT
BRANCH   9  12
HETATM   12  C   UNL     1      39.690  47.976  66.660  1.00  0.00    -0.017 A 
HETATM   13  C   UNL     1      38.343  47.830  67.123  1.00  0.00    -0.017 A 
HETATM   14  C   UNL     1      37.428  48.894  66.900  1.00  0.00    -0.025 A 
HETATM   15  C   UNL     1      37.837  46.684  67.788  1.00  0.00     0.013 A 
HETATM   16  C   UNL     1      36.101  48.800  67.352  1.00  0.00     0.012 A 
HETATM   17  C   UNL     1      37.836  50.047  66.220  1.00  0.00     0.012 A 
HETATM   18  C   UNL     1      35.645  47.663  68.015  1.00  0.00     0.001 A 
HETATM   19  C   UNL     1      36.512  46.603  68.228  1.00  0.00     0.001 A 
HETATM   20  C   UNL     1      39.133  50.171  65.739  1.00  0.00     0.002 A 
HETATM   21  C   UNL     1      40.048  49.146  65.951  1.00  0.00     0.010 A 
ENDBRANCH   9  12
BRANCH  10  22
HETATM   22  C   UNL     1      42.151  47.814  68.768  1.00  0.00     0.293 C 
HETATM   23  O   UNL     1      42.464  47.062  69.675  1.00  0.00    -0.259 OA
BRANCH  22  24
HETATM   24  O   UNL     1      41.907  49.143  68.888  1.00  0.00    -0.323 OA
HETATM   25  C   UNL     1      41.654  49.583  70.224  1.00  0.00     0.213 C 
ENDBRANCH  22  24
ENDBRANCH  10  22
BRANCH   7  26
HETATM   26  S   UNL     1      39.979  43.583  63.004  1.00  0.00    -0.083 SA
BRANCH  26  27
HETATM   27  C   UNL     1      38.355  44.287  62.613  1.00  0.00     0.123 C 
BRANCH  27  28
HETATM   28  C   UNL     1      37.341  43.927  63.676  1.00  0.00    -0.027 A 
HETATM   29  C   UNL     1      36.604  44.891  64.384  1.00  0.00     0.041 A 
HETATM   30 CL   UNL     1      36.761  46.583  64.069  1.00  0.00    -0.084 Cl
HETATM   31  C   UNL     1      35.707  44.505  65.387  1.00  0.00     0.024 A 
HETATM   32  C   UNL     1      35.541  43.157  65.702  1.00  0.00     0.002 A 
HETATM   33  C   UNL     1      36.269  42.191  65.015  1.00  0.00     0.001 A 
HETATM   34  C   UNL     1      37.162  42.572  64.012  1.00  0.00     0.009 A 
ENDBRANCH  27  28
ENDBRANCH  26  27
ENDBRANCH   7  26
TORSDOF 6
ENDMDL
