MODEL 1
REMARK VINA RESULT:      -9.5      0.000      0.000
REMARK  3 active torsions:
REMARK  status: ('A' for Active; 'I' for Inactive)
REMARK    1  A    between atoms: C_6  and  C_7 
REMARK    2  A    between atoms: C_7  and  N_8 
REMARK    3  A    between atoms: C_12  and  C_13 
ROOT
HETATM    1  N   UNL     1      25.687  46.169  51.425  1.00  0.00    -0.066 N 
HETATM    2  H   UNL     1      24.787  46.665  51.460  1.00  0.00     0.280 HD
HETATM    3  C   UNL     1      25.414  44.725  51.787  1.00  0.00     0.236 C 
HETATM    4  C   UNL     1      24.883  44.637  53.215  1.00  0.00     0.037 C 
HETATM    5  C   UNL     1      25.862  45.259  54.233  1.00  0.00     0.024 C 
HETATM    6  C   UNL     1      26.051  46.722  53.816  1.00  0.00     0.037 C 
HETATM    7  C   UNL     1      26.615  46.845  52.408  1.00  0.00     0.236 C 
ENDROOT
BRANCH   1   8
HETATM    8  C   UNL     1      26.202  46.324  50.009  1.00  0.00     0.293 C 
BRANCH   8   9
HETATM    9  C   UNL     1      26.031  47.694  49.489  1.00  0.00     0.061 A 
HETATM   10  N   UNL     1      24.810  48.299  49.229  1.00  0.00    -0.308 N 
HETATM   11  C   UNL     1      25.099  49.572  48.741  1.00  0.00     0.134 A 
HETATM   12  C   UNL     1      23.504  47.831  49.389  1.00  0.00     0.099 A 
HETATM   13  C   UNL     1      24.003  50.409  48.392  1.00  0.00     0.057 A 
HETATM   14  N   UNL     1      26.395  49.781  48.680  1.00  0.00    -0.241 NA
HETATM   15  C   UNL     1      22.736  49.967  48.536  1.00  0.00    -0.057 A 
HETATM   16  C   UNL     1      21.542  50.799  48.167  1.00  0.00     0.048 C 
HETATM   17  C   UNL     1      22.474  48.627  49.058  1.00  0.00     0.024 A 
HETATM   18  C   UNL     1      26.977  48.624  49.103  1.00  0.00     0.146 A 
ENDBRANCH   8   9
ENDBRANCH   1   8
BRANCH   5  19
HETATM   19  C   UNL     1      27.144  44.448  54.382  1.00  0.00    -0.024 A 
HETATM   20  C   UNL     1      28.380  44.777  55.057  1.00  0.00     0.018 A 
HETATM   21  C   UNL     1      29.249  43.704  54.863  1.00  0.00     0.138 A 
HETATM   22  C   UNL     1      28.898  45.844  55.818  1.00  0.00     0.017 A 
HETATM   23  N   UNL     1      30.524  43.580  55.269  1.00  0.00    -0.242 NA
HETATM   24  N   UNL     1      28.583  42.727  54.189  1.00  0.00    -0.350 N 
HETATM   25  C   UNL     1      30.965  44.637  55.977  1.00  0.00     0.119 A 
HETATM   26  C   UNL     1      30.215  45.762  56.278  1.00  0.00     0.020 A 
HETATM   27  H   UNL     1      28.985  41.826  53.974  1.00  0.00     0.166 HD
HETATM   28  C   UNL     1      27.314  43.154  53.902  1.00  0.00     0.098 A 
ENDBRANCH   5  19
TORSDOF 3
ENDMDL
MODEL 2
REMARK VINA RESULT:      -8.9      1.610      2.721
REMARK  3 active torsions:
REMARK  status: ('A' for Active; 'I' for Inactive)
REMARK    1  A    between atoms: C_6  and  C_7 
REMARK    2  A    between atoms: C_7  and  N_8 
REMARK    3  A    between atoms: C_12  and  C_13 
ROOT
HETATM    1  N   UNL     1      25.415  45.820  50.287  1.00  0.00    -0.066 N 
HETATM    2  H   UNL     1      24.992  45.191  49.593  1.00  0.00     0.280 HD
HETATM    3  C   UNL     1      26.903  45.545  50.292  1.00  0.00     0.236 C 
HETATM    4  C   UNL     1      27.165  44.108  50.737  1.00  0.00     0.037 C 
HETATM    5  C   UNL     1      26.572  43.819  52.131  1.00  0.00     0.024 C 
HETATM    6  C   UNL     1      25.066  44.086  52.026  1.00  0.00     0.037 C 
HETATM    7  C   UNL     1      24.768  45.521  51.620  1.00  0.00     0.236 C 
ENDROOT
BRANCH   1   8
HETATM    8  C   UNL     1      25.087  47.229  49.838  1.00  0.00     0.293 C 
BRANCH   8   9
HETATM    9  C   UNL     1      23.739  47.340  49.250  1.00  0.00     0.061 A 
HETATM   10  N   UNL     1      23.022  48.519  49.121  1.00  0.00    -0.308 N 
HETATM   11  C   UNL     1      21.805  48.177  48.535  1.00  0.00     0.134 A 
HETATM   12  C   UNL     1      23.350  49.832  49.466  1.00  0.00     0.099 A 
HETATM   13  C   UNL     1      20.872  49.223  48.292  1.00  0.00     0.057 A 
HETATM   14  N   UNL     1      21.728  46.886  48.305  1.00  0.00    -0.241 NA
HETATM   15  C   UNL     1      21.174  50.496  48.626  1.00  0.00    -0.057 A 
HETATM   16  C   UNL     1      20.221  51.636  48.411  1.00  0.00     0.048 C 
HETATM   17  C   UNL     1      22.464  50.816  49.234  1.00  0.00     0.024 A 
HETATM   18  C   UNL     1      22.894  46.357  48.771  1.00  0.00     0.146 A 
ENDBRANCH   8   9
ENDBRANCH   1   8
BRANCH   5  19
HETATM   19  C   UNL     1      27.295  44.572  53.241  1.00  0.00    -0.024 A 
HETATM   20  C   UNL     1      28.504  44.234  53.960  1.00  0.00     0.018 A 
HETATM   21  C   UNL     1      28.716  45.242  54.900  1.00  0.00     0.138 A 
HETATM   22  C   UNL     1      29.466  43.203  53.952  1.00  0.00     0.017 A 
HETATM   23  N   UNL     1      29.690  45.331  55.821  1.00  0.00    -0.242 NA
HETATM   24  N   UNL     1      27.761  46.196  54.729  1.00  0.00    -0.350 N 
HETATM   25  C   UNL     1      30.568  44.311  55.773  1.00  0.00     0.119 A 
HETATM   26  C   UNL     1      30.510  43.253  54.881  1.00  0.00     0.020 A 
HETATM   27  H   UNL     1      27.733  47.056  55.259  1.00  0.00     0.166 HD
HETATM   28  C   UNL     1      26.906  45.814  53.730  1.00  0.00     0.098 A 
ENDBRANCH   5  19
TORSDOF 3
ENDMDL
MODEL 3
REMARK VINA RESULT:      -8.9      1.614      2.321
REMARK  3 active torsions:
REMARK  status: ('A' for Active; 'I' for Inactive)
REMARK    1  A    between atoms: C_6  and  C_7 
REMARK    2  A    between atoms: C_7  and  N_8 
REMARK    3  A    between atoms: C_12  and  C_13 
ROOT
HETATM    1  N   UNL     1      26.289  44.748  50.996  1.00  0.00    -0.066 N 
HETATM    2  H   UNL     1      25.591  44.089  50.629  1.00  0.00     0.280 HD
HETATM    3  C   UNL     1      27.465  43.927  51.480  1.00  0.00     0.236 C 
HETATM    4  C   UNL     1      27.029  43.018  52.626  1.00  0.00     0.037 C 
HETATM    5  C   UNL     1      26.426  43.819  53.800  1.00  0.00     0.024 C 
HETATM    6  C   UNL     1      25.227  44.586  53.231  1.00  0.00     0.037 C 
HETATM    7  C   UNL     1      25.633  45.530  52.110  1.00  0.00     0.236 C 
ENDROOT
BRANCH   1   8
HETATM    8  C   UNL     1      26.656  45.662  49.844  1.00  0.00     0.293 C 
BRANCH   8   9
HETATM    9  C   UNL     1      25.698  46.770  49.671  1.00  0.00     0.061 A 
HETATM   10  N   UNL     1      24.379  46.626  49.268  1.00  0.00    -0.308 N 
HETATM   11  C   UNL     1      23.841  47.910  49.220  1.00  0.00     0.134 A 
HETATM   12  C   UNL     1      23.637  45.485  48.954  1.00  0.00     0.099 A 
HETATM   13  C   UNL     1      22.480  48.041  48.827  1.00  0.00     0.057 A 
HETATM   14  N   UNL     1      24.730  48.817  49.556  1.00  0.00    -0.241 NA
HETATM   15  C   UNL     1      21.753  46.947  48.515  1.00  0.00    -0.057 A 
HETATM   16  C   UNL     1      20.320  47.026  48.076  1.00  0.00     0.048 C 
HETATM   17  C   UNL     1      22.352  45.616  48.584  1.00  0.00     0.024 A 
HETATM   18  C   UNL     1      25.882  48.133  49.801  1.00  0.00     0.146 A 
ENDBRANCH   8   9
ENDBRANCH   1   8
BRANCH   5  19
HETATM   19  C   UNL     1      27.464  44.668  54.522  1.00  0.00    -0.024 A 
HETATM   20  C   UNL     1      28.793  44.324  54.980  1.00  0.00     0.018 A 
HETATM   21  C   UNL     1      29.312  45.453  55.613  1.00  0.00     0.138 A 
HETATM   22  C   UNL     1      29.645  43.202  54.951  1.00  0.00     0.017 A 
HETATM   23  N   UNL     1      30.496  45.590  56.232  1.00  0.00    -0.242 NA
HETATM   24  N   UNL     1      28.414  46.468  55.486  1.00  0.00    -0.350 N 
HETATM   25  C   UNL     1      31.258  44.481  56.183  1.00  0.00     0.119 A 
HETATM   26  C   UNL     1      30.896  43.294  55.569  1.00  0.00     0.020 A 
HETATM   27  H   UNL     1      28.585  47.407  55.818  1.00  0.00     0.166 HD
HETATM   28  C   UNL     1      27.304  46.016  54.824  1.00  0.00     0.098 A 
ENDBRANCH   5  19
TORSDOF 3
ENDMDL
MODEL 4
REMARK VINA RESULT:      -8.8      1.768      8.660
REMARK  3 active torsions:
REMARK  status: ('A' for Active; 'I' for Inactive)
REMARK    1  A    between atoms: C_6  and  C_7 
REMARK    2  A    between atoms: C_7  and  N_8 
REMARK    3  A    between atoms: C_12  and  C_13 
ROOT
HETATM    1  N   UNL     1      26.525  44.983  51.385  1.00  0.00    -0.066 N 
HETATM    2  H   UNL     1      27.483  45.152  51.717  1.00  0.00     0.280 HD
HETATM    3  C   UNL     1      26.527  45.200  49.887  1.00  0.00     0.236 C 
HETATM    4  C   UNL     1      26.885  46.650  49.572  1.00  0.00     0.037 C 
HETATM    5  C   UNL     1      25.917  47.643  50.248  1.00  0.00     0.024 C 
HETATM    6  C   UNL     1      26.006  47.380  51.755  1.00  0.00     0.037 C 
HETATM    7  C   UNL     1      25.618  45.951  52.108  1.00  0.00     0.236 C 
ENDROOT
BRANCH   1   8
HETATM    8  C   UNL     1      26.191  43.554  51.763  1.00  0.00     0.293 C 
BRANCH   8   9
HETATM    9  C   UNL     1      27.359  42.814  52.277  1.00  0.00     0.061 A 
HETATM   10  N   UNL     1      28.194  43.253  53.293  1.00  0.00    -0.308 N 
HETATM   11  C   UNL     1      29.168  42.269  53.454  1.00  0.00     0.134 A 
HETATM   12  C   UNL     1      28.162  44.415  54.068  1.00  0.00     0.099 A 
HETATM   13  C   UNL     1      30.163  42.481  54.448  1.00  0.00     0.057 A 
HETATM   14  N   UNL     1      28.991  41.276  52.612  1.00  0.00    -0.241 NA
HETATM   15  C   UNL     1      30.146  43.602  55.200  1.00  0.00    -0.057 A 
HETATM   16  C   UNL     1      31.180  43.887  56.250  1.00  0.00     0.048 C 
HETATM   17  C   UNL     1      29.104  44.608  55.006  1.00  0.00     0.024 A 
HETATM   18  C   UNL     1      27.905  41.615  51.862  1.00  0.00     0.146 A 
ENDBRANCH   8   9
ENDBRANCH   1   8
BRANCH   5  19
HETATM   19  C   UNL     1      24.515  47.587  49.654  1.00  0.00    -0.024 A 
HETATM   20  C   UNL     1      23.734  48.620  49.009  1.00  0.00     0.018 A 
HETATM   21  C   UNL     1      22.502  48.057  48.680  1.00  0.00     0.138 A 
HETATM   22  C   UNL     1      23.895  49.973  48.649  1.00  0.00     0.017 A 
HETATM   23  N   UNL     1      21.440  48.649  48.109  1.00  0.00    -0.242 NA
HETATM   24  N   UNL     1      22.530  46.737  49.012  1.00  0.00    -0.350 N 
HETATM   25  C   UNL     1      21.650  49.944  47.802  1.00  0.00     0.119 A 
HETATM   26  C   UNL     1      22.827  50.636  48.038  1.00  0.00     0.020 A 
HETATM   27  H   UNL     1      21.770  46.099  48.823  1.00  0.00     0.166 HD
HETATM   28  C   UNL     1      23.736  46.436  49.587  1.00  0.00     0.098 A 
ENDBRANCH   5  19
TORSDOF 3
ENDMDL
MODEL 5
REMARK VINA RESULT:      -8.8      2.609      9.112
REMARK  3 active torsions:
REMARK  status: ('A' for Active; 'I' for Inactive)
REMARK    1  A    between atoms: C_6  and  C_7 
REMARK    2  A    between atoms: C_7  and  N_8 
REMARK    3  A    between atoms: C_12  and  C_13 
ROOT
HETATM    1  N   UNL     1      24.116  47.142  49.456  1.00  0.00    -0.066 N 
HETATM    2  H   UNL     1      24.827  46.958  48.737  1.00  0.00     0.280 HD
HETATM    3  C   UNL     1      22.925  46.262  49.143  1.00  0.00     0.236 C 
HETATM    4  C   UNL     1      22.336  46.646  47.788  1.00  0.00     0.037 C 
HETATM    5  C   UNL     1      21.919  48.131  47.741  1.00  0.00     0.024 C 
HETATM    6  C   UNL     1      23.184  48.946  48.031  1.00  0.00     0.037 C 
HETATM    7  C   UNL     1      23.778  48.614  49.392  1.00  0.00     0.236 C 
ENDROOT
BRANCH   1   8
HETATM    8  C   UNL     1      24.757  46.799  50.785  1.00  0.00     0.293 C 
BRANCH   8   9
HETATM    9  C   UNL     1      25.796  45.759  50.663  1.00  0.00     0.061 A 
HETATM   10  N   UNL     1      26.559  45.270  51.713  1.00  0.00    -0.308 N 
HETATM   11  C   UNL     1      27.420  44.322  51.164  1.00  0.00     0.134 A 
HETATM   12  C   UNL     1      26.551  45.583  53.074  1.00  0.00     0.099 A 
HETATM   13  C   UNL     1      28.323  43.663  52.044  1.00  0.00     0.057 A 
HETATM   14  N   UNL     1      27.242  44.204  49.868  1.00  0.00    -0.241 NA
HETATM   15  C   UNL     1      28.330  43.960  53.361  1.00  0.00    -0.057 A 
HETATM   16  C   UNL     1      29.272  43.310  54.332  1.00  0.00     0.048 C 
HETATM   17  C   UNL     1      27.407  44.957  53.899  1.00  0.00     0.024 A 
HETATM   18  C   UNL     1      26.273  45.105  49.543  1.00  0.00     0.146 A 
ENDBRANCH   8   9
ENDBRANCH   1   8
BRANCH   5  19
HETATM   19  C   UNL     1      20.726  48.431  48.639  1.00  0.00    -0.024 A 
HETATM   20  C   UNL     1      20.066  49.687  48.922  1.00  0.00     0.018 A 
HETATM   21  C   UNL     1      19.049  49.418  49.838  1.00  0.00     0.138 A 
HETATM   22  C   UNL     1      20.183  51.035  48.528  1.00  0.00     0.017 A 
HETATM   23  N   UNL     1      18.203  50.283  50.421  1.00  0.00    -0.242 NA
HETATM   24  N   UNL     1      19.010  48.074  50.053  1.00  0.00    -0.350 N 
HETATM   25  C   UNL     1      18.374  51.556  50.016  1.00  0.00     0.119 A 
HETATM   26  C   UNL     1      19.318  51.977  49.094  1.00  0.00     0.020 A 
HETATM   27  H   UNL     1      18.321  47.626  50.640  1.00  0.00     0.166 HD
HETATM   28  C   UNL     1      20.002  47.466  49.332  1.00  0.00     0.098 A 
ENDBRANCH   5  19
TORSDOF 3
ENDMDL
MODEL 6
REMARK VINA RESULT:      -8.7     11.728     14.427
REMARK  3 active torsions:
REMARK  status: ('A' for Active; 'I' for Inactive)
REMARK    1  A    between atoms: C_6  and  C_7 
REMARK    2  A    between atoms: C_7  and  N_8 
REMARK    3  A    between atoms: C_12  and  C_13 
ROOT
HETATM    1  N   UNL     1      28.060  49.488  40.645  1.00  0.00    -0.066 N 
HETATM    2  H   UNL     1      27.081  49.285  40.407  1.00  0.00     0.280 HD
HETATM    3  C   UNL     1      28.054  50.670  41.590  1.00  0.00     0.236 C 
HETATM    4  C   UNL     1      27.477  51.896  40.887  1.00  0.00     0.037 C 
HETATM    5  C   UNL     1      28.262  52.249  39.606  1.00  0.00     0.024 C 
HETATM    6  C   UNL     1      28.185  51.017  38.696  1.00  0.00     0.037 C 
HETATM    7  C   UNL     1      28.786  49.784  39.354  1.00  0.00     0.236 C 
ENDROOT
BRANCH   1   8
HETATM    8  C   UNL     1      28.609  48.232  41.291  1.00  0.00     0.293 C 
BRANCH   8   9
HETATM    9  C   UNL     1      30.054  48.057  41.056  1.00  0.00     0.061 A 
HETATM   10  N   UNL     1      31.047  48.893  41.544  1.00  0.00    -0.308 N 
HETATM   11  C   UNL     1      32.256  48.380  41.080  1.00  0.00     0.134 A 
HETATM   12  C   UNL     1      30.970  50.034  42.346  1.00  0.00     0.099 A 
HETATM   13  C   UNL     1      33.448  49.066  41.444  1.00  0.00     0.057 A 
HETATM   14  N   UNL     1      32.072  47.306  40.346  1.00  0.00    -0.241 NA
HETATM   15  C   UNL     1      33.387  50.174  42.214  1.00  0.00    -0.057 A 
HETATM   16  C   UNL     1      34.609  50.948  42.614  1.00  0.00     0.048 C 
HETATM   17  C   UNL     1      32.099  50.677  42.686  1.00  0.00     0.024 A 
HETATM   18  C   UNL     1      30.724  47.117  40.295  1.00  0.00     0.146 A 
ENDBRANCH   8   9
ENDBRANCH   1   8
BRANCH   5  19
HETATM   19  C   UNL     1      29.667  52.757  39.904  1.00  0.00    -0.024 A 
HETATM   20  C   UNL     1      30.947  52.295  39.415  1.00  0.00     0.018 A 
HETATM   21  C   UNL     1      31.925  53.080  40.024  1.00  0.00     0.138 A 
HETATM   22  C   UNL     1      31.428  51.309  38.530  1.00  0.00     0.017 A 
HETATM   23  N   UNL     1      33.260  52.986  39.909  1.00  0.00    -0.242 NA
HETATM   24  N   UNL     1      31.306  54.030  40.776  1.00  0.00    -0.350 N 
HETATM   25  C   UNL     1      33.658  52.017  39.062  1.00  0.00     0.119 A 
HETATM   26  C   UNL     1      32.810  51.176  38.361  1.00  0.00     0.020 A 
HETATM   27  H   UNL     1      31.803  54.755  41.275  1.00  0.00     0.166 HD
HETATM   28  C   UNL     1      29.950  53.858  40.706  1.00  0.00     0.098 A 
ENDBRANCH   5  19
TORSDOF 3
ENDMDL
MODEL 7
REMARK VINA RESULT:      -8.5     12.047     14.120
REMARK  3 active torsions:
REMARK  status: ('A' for Active; 'I' for Inactive)
REMARK    1  A    between atoms: C_6  and  C_7 
REMARK    2  A    between atoms: C_7  and  N_8 
REMARK    3  A    between atoms: C_12  and  C_13 
ROOT
HETATM    1  N   UNL     1      27.298  51.054  39.915  1.00  0.00    -0.066 N 
HETATM    2  H   UNL     1      26.482  51.545  39.530  1.00  0.00     0.280 HD
HETATM    3  C   UNL     1      27.533  51.598  41.307  1.00  0.00     0.236 C 
HETATM    4  C   UNL     1      27.870  53.085  41.235  1.00  0.00     0.037 C 
HETATM    5  C   UNL     1      29.104  53.354  40.349  1.00  0.00     0.024 C 
HETATM    6  C   UNL     1      28.768  52.808  38.957  1.00  0.00     0.037 C 
HETATM    7  C   UNL     1      28.463  51.318  38.988  1.00  0.00     0.236 C 
ENDROOT
BRANCH   1   8
HETATM    8  C   UNL     1      26.943  49.581  39.920  1.00  0.00     0.293 C 
BRANCH   8   9
HETATM    9  C   UNL     1      28.062  48.724  39.484  1.00  0.00     0.061 A 
HETATM   10  N   UNL     1      29.262  48.576  40.163  1.00  0.00    -0.308 N 
HETATM   11  C   UNL     1      30.035  47.698  39.406  1.00  0.00     0.134 A 
HETATM   12  C   UNL     1      29.710  49.134  41.362  1.00  0.00     0.099 A 
HETATM   13  C   UNL     1      31.333  47.376  39.891  1.00  0.00     0.057 A 
HETATM   14  N   UNL     1      29.401  47.310  38.323  1.00  0.00    -0.241 NA
HETATM   15  C   UNL     1      31.781  47.914  41.046  1.00  0.00    -0.057 A 
HETATM   16  C   UNL     1      33.148  47.625  41.596  1.00  0.00     0.048 C 
HETATM   17  C   UNL     1      30.937  48.826  41.814  1.00  0.00     0.024 A 
HETATM   18  C   UNL     1      28.203  47.960  38.342  1.00  0.00     0.146 A 
ENDBRANCH   8   9
ENDBRANCH   1   8
BRANCH   5  19
HETATM   19  C   UNL     1      30.393  52.826  40.967  1.00  0.00    -0.024 A 
HETATM   20  C   UNL     1      31.580  52.294  40.333  1.00  0.00     0.018 A 
HETATM   21  C   UNL     1      32.453  51.917  41.353  1.00  0.00     0.138 A 
HETATM   22  C   UNL     1      32.049  52.074  39.023  1.00  0.00     0.017 A 
HETATM   23  N   UNL     1      33.658  51.334  41.244  1.00  0.00    -0.242 NA
HETATM   24  N   UNL     1      31.898  52.266  42.546  1.00  0.00    -0.350 N 
HETATM   25  C   UNL     1      34.045  51.136  39.969  1.00  0.00     0.119 A 
HETATM   26  C   UNL     1      33.304  51.481  38.851  1.00  0.00     0.020 A 
HETATM   27  H   UNL     1      32.365  52.144  43.433  1.00  0.00     0.166 HD
HETATM   28  C   UNL     1      30.666  52.824  42.331  1.00  0.00     0.098 A 
ENDBRANCH   5  19
TORSDOF 3
ENDMDL
MODEL 8
REMARK VINA RESULT:      -8.5      2.008      3.491
REMARK  3 active torsions:
REMARK  status: ('A' for Active; 'I' for Inactive)
REMARK    1  A    between atoms: C_6  and  C_7 
REMARK    2  A    between atoms: C_7  and  N_8 
REMARK    3  A    between atoms: C_12  and  C_13 
ROOT
HETATM    1  N   UNL     1      26.720  42.991  52.368  1.00  0.00    -0.066 N 
HETATM    2  H   UNL     1      26.810  42.242  51.671  1.00  0.00     0.280 HD
HETATM    3  C   UNL     1      27.750  44.046  52.027  1.00  0.00     0.236 C 
HETATM    4  C   UNL     1      29.154  43.460  52.144  1.00  0.00     0.037 C 
HETATM    5  C   UNL     1      29.427  42.895  53.554  1.00  0.00     0.024 C 
HETATM    6  C   UNL     1      28.368  41.815  53.801  1.00  0.00     0.037 C 
HETATM    7  C   UNL     1      26.955  42.374  53.728  1.00  0.00     0.236 C 
ENDROOT
BRANCH   1   8
HETATM    8  C   UNL     1      25.300  43.509  52.255  1.00  0.00     0.293 C 
BRANCH   8   9
HETATM    9  C   UNL     1      25.242  44.967  52.037  1.00  0.00     0.061 A 
HETATM   10  N   UNL     1      24.588  45.588  50.984  1.00  0.00    -0.308 N 
HETATM   11  C   UNL     1      24.793  46.956  51.147  1.00  0.00     0.134 A 
HETATM   12  C   UNL     1      23.846  45.057  49.927  1.00  0.00     0.099 A 
HETATM   13  C   UNL     1      24.218  47.830  50.183  1.00  0.00     0.057 A 
HETATM   14  N   UNL     1      25.522  47.210  52.210  1.00  0.00    -0.241 NA
HETATM   15  C   UNL     1      23.502  47.330  49.153  1.00  0.00    -0.057 A 
HETATM   16  C   UNL     1      22.889  48.202  48.096  1.00  0.00     0.048 C 
HETATM   17  C   UNL     1      23.305  45.888  49.019  1.00  0.00     0.024 A 
HETATM   18  C   UNL     1      25.833  45.995  52.745  1.00  0.00     0.146 A 
ENDBRANCH   8   9
ENDBRANCH   1   8
BRANCH   5  19
HETATM   19  C   UNL     1      29.511  43.986  54.614  1.00  0.00    -0.024 A 
HETATM   20  C   UNL     1      30.315  44.058  55.814  1.00  0.00     0.018 A 
HETATM   21  C   UNL     1      29.988  45.253  56.454  1.00  0.00     0.138 A 
HETATM   22  C   UNL     1      31.290  43.272  56.462  1.00  0.00     0.017 A 
HETATM   23  N   UNL     1      30.449  45.724  57.625  1.00  0.00    -0.242 NA
HETATM   24  N   UNL     1      29.105  45.932  55.672  1.00  0.00    -0.350 N 
HETATM   25  C   UNL     1      31.364  44.923  58.202  1.00  0.00     0.119 A 
HETATM   26  C   UNL     1      31.813  43.722  57.678  1.00  0.00     0.020 A 
HETATM   27  H   UNL     1      28.758  46.854  55.896  1.00  0.00     0.166 HD
HETATM   28  C   UNL     1      28.817  45.190  54.557  1.00  0.00     0.098 A 
ENDBRANCH   5  19
TORSDOF 3
ENDMDL
MODEL 9
REMARK VINA RESULT:      -8.5      2.968      8.423
REMARK  3 active torsions:
REMARK  status: ('A' for Active; 'I' for Inactive)
REMARK    1  A    between atoms: C_6  and  C_7 
REMARK    2  A    between atoms: C_7  and  N_8 
REMARK    3  A    between atoms: C_12  and  C_13 
ROOT
HETATM    1  N   UNL     1      26.568  45.150  52.179  1.00  0.00    -0.066 N 
HETATM    2  H   UNL     1      27.413  45.734  52.188  1.00  0.00     0.280 HD
HETATM    3  C   UNL     1      26.799  44.046  51.170  1.00  0.00     0.236 C 
HETATM    4  C   UNL     1      26.974  44.642  49.776  1.00  0.00     0.037 C 
HETATM    5  C   UNL     1      25.757  45.493  49.356  1.00  0.00     0.024 C 
HETATM    6  C   UNL     1      25.620  46.602  50.405  1.00  0.00     0.037 C 
HETATM    7  C   UNL     1      25.406  46.041  51.803  1.00  0.00     0.236 C 
ENDROOT
BRANCH   1   8
HETATM    8  C   UNL     1      26.402  44.621  53.589  1.00  0.00     0.293 C 
BRANCH   8   9
HETATM    9  C   UNL     1      27.345  45.237  54.542  1.00  0.00     0.061 A 
HETATM   10  N   UNL     1      28.518  44.649  54.991  1.00  0.00    -0.308 N 
HETATM   11  C   UNL     1      29.094  45.553  55.880  1.00  0.00     0.134 A 
HETATM   12  C   UNL     1      29.101  43.417  54.684  1.00  0.00     0.099 A 
HETATM   13  C   UNL     1      30.324  45.184  56.493  1.00  0.00     0.057 A 
HETATM   14  N   UNL     1      28.361  46.636  56.008  1.00  0.00    -0.241 NA
HETATM   15  C   UNL     1      30.896  43.994  56.209  1.00  0.00    -0.057 A 
HETATM   16  C   UNL     1      32.182  43.544  56.839  1.00  0.00     0.048 C 
HETATM   17  C   UNL     1      30.262  43.075  55.266  1.00  0.00     0.024 A 
HETATM   18  C   UNL     1      27.269  46.439  55.218  1.00  0.00     0.146 A 
ENDBRANCH   8   9
ENDBRANCH   1   8
BRANCH   5  19
HETATM   19  C   UNL     1      24.509  44.651  49.124  1.00  0.00    -0.024 A 
HETATM   20  C   UNL     1      24.380  43.267  48.725  1.00  0.00     0.018 A 
HETATM   21  C   UNL     1      23.016  42.996  48.620  1.00  0.00     0.138 A 
HETATM   22  C   UNL     1      25.235  42.185  48.433  1.00  0.00     0.017 A 
HETATM   23  N   UNL     1      22.420  41.855  48.236  1.00  0.00    -0.242 NA
HETATM   24  N   UNL     1      22.327  44.103  49.011  1.00  0.00    -0.350 N 
HETATM   25  C   UNL     1      23.288  40.865  47.956  1.00  0.00     0.119 A 
HETATM   26  C   UNL     1      24.668  40.969  48.040  1.00  0.00     0.020 A 
HETATM   27  H   UNL     1      21.320  44.138  49.073  1.00  0.00     0.166 HD
HETATM   28  C   UNL     1      23.209  45.102  49.327  1.00  0.00     0.098 A 
ENDBRANCH   5  19
TORSDOF 3
ENDMDL
MODEL 10
REMARK VINA RESULT:      -8.4      3.936      9.325
REMARK  3 active torsions:
REMARK  status: ('A' for Active; 'I' for Inactive)
REMARK    1  A    between atoms: C_6  and  C_7 
REMARK    2  A    between atoms: C_7  and  N_8 
REMARK    3  A    between atoms: C_12  and  C_13 
ROOT
HETATM    1  N   UNL     1      23.705  47.854  49.042  1.00  0.00    -0.066 N 
HETATM    2  H   UNL     1      24.377  47.713  48.277  1.00  0.00     0.280 HD
HETATM    3  C   UNL     1      22.482  47.023  48.720  1.00  0.00     0.236 C 
HETATM    4  C   UNL     1      21.838  47.523  47.429  1.00  0.00     0.037 C 
HETATM    5  C   UNL     1      21.453  49.015  47.516  1.00  0.00     0.024 C 
HETATM    6  C   UNL     1      22.749  49.781  47.806  1.00  0.00     0.037 C 
HETATM    7  C   UNL     1      23.397  49.332  49.107  1.00  0.00     0.236 C 
ENDROOT
BRANCH   1   8
HETATM    8  C   UNL     1      24.400  47.396  50.308  1.00  0.00     0.293 C 
BRANCH   8   9
HETATM    9  C   UNL     1      25.496  46.445  50.042  1.00  0.00     0.061 A 
HETATM   10  N   UNL     1      25.426  45.074  50.240  1.00  0.00    -0.308 N 
HETATM   11  C   UNL     1      26.671  44.562  49.884  1.00  0.00     0.134 A 
HETATM   12  C   UNL     1      24.379  44.268  50.693  1.00  0.00     0.099 A 
HETATM   13  C   UNL     1      26.864  43.157  49.999  1.00  0.00     0.057 A 
HETATM   14  N   UNL     1      27.488  45.513  49.492  1.00  0.00    -0.241 NA
HETATM   15  C   UNL     1      25.863  42.366  50.440  1.00  0.00    -0.057 A 
HETATM   16  C   UNL     1      26.016  40.881  50.599  1.00  0.00     0.048 C 
HETATM   17  C   UNL     1      24.568  42.941  50.799  1.00  0.00     0.024 A 
HETATM   18  C   UNL     1      26.790  46.676  49.618  1.00  0.00     0.146 A 
ENDBRANCH   8   9
ENDBRANCH   1   8
BRANCH   5  19
HETATM   19  C   UNL     1      20.310  49.266  48.491  1.00  0.00    -0.024 A 
HETATM   20  C   UNL     1      19.537  50.466  48.730  1.00  0.00     0.018 A 
HETATM   21  C   UNL     1      18.635  50.174  49.753  1.00  0.00     0.138 A 
HETATM   22  C   UNL     1      19.468  51.778  48.219  1.00  0.00     0.017 A 
HETATM   23  N   UNL     1      17.747  50.993  50.339  1.00  0.00    -0.242 NA
HETATM   24  N   UNL     1      18.766  48.859  50.079  1.00  0.00    -0.350 N 
HETATM   25  C   UNL     1      17.739  52.235  49.819  1.00  0.00     0.119 A 
HETATM   26  C   UNL     1      18.551  52.669  48.783  1.00  0.00     0.020 A 
HETATM   27  H   UNL     1      18.182  48.394  50.760  1.00  0.00     0.166 HD
HETATM   28  C   UNL     1      19.759  48.297  49.323  1.00  0.00     0.098 A 
ENDBRANCH   5  19
TORSDOF 3
ENDMDL
