MODEL 1
REMARK VINA RESULT:      -9.3      0.000      0.000
REMARK  3 active torsions:
REMARK  status: ('A' for Active; 'I' for Inactive)
REMARK    1  A    between atoms: C_6  and  N_7 
REMARK       I    between atoms: N_7  and  C_8 
REMARK    2  A    between atoms: C_8  and  C_9 
REMARK    3  A    between atoms: C_9  and  C_10 
ROOT
HETATM    1  C   UNL     1      25.893  45.424  54.174  1.00  0.00     0.165 C 
ENDROOT
BRANCH   1   2
HETATM    2  C   UNL     1      25.803  46.640  53.269  1.00  0.00     0.227 C 
HETATM    3  N   UNL     1      25.759  46.396  51.917  1.00  0.00    -0.327 N 
HETATM    4  H   UNL     1      25.953  45.433  51.640  1.00  0.00     0.169 HD
HETATM    5  O   UNL     1      25.722  47.750  53.794  1.00  0.00    -0.273 OA
BRANCH   3   6
HETATM    6  C   UNL     1      25.572  47.318  50.868  1.00  0.00     0.036 A 
HETATM    7  C   UNL     1      26.590  48.094  50.313  1.00  0.00     0.053 A 
HETATM    8  C   UNL     1      26.310  49.000  49.283  1.00  0.00     0.042 A 
HETATM    9  C   UNL     1      25.006  49.147  48.786  1.00  0.00    -0.040 A 
HETATM   10 CL   UNL     1      27.621  49.935  48.652  1.00  0.00    -0.084 Cl
HETATM   11  C   UNL     1      24.677  50.121  47.689  1.00  0.00     0.050 C 
HETATM   12  C   UNL     1      23.988  48.369  49.350  1.00  0.00     0.011 A 
HETATM   13  C   UNL     1      24.269  47.466  50.379  1.00  0.00     0.030 A 
ENDBRANCH   3   6
ENDBRANCH   1   2
BRANCH   1  14
HETATM   14  C   UNL     1      26.799  44.253  53.844  1.00  0.00     0.074 A 
HETATM   15  N   UNL     1      26.384  43.329  53.028  1.00  0.00    -0.175 NA
HETATM   16  N   UNL     1      27.211  42.288  52.746  1.00  0.00    -0.243 N 
HETATM   17  C   UNL     1      28.476  42.098  53.246  1.00  0.00     0.272 A 
HETATM   18  H   UNL     1      26.872  41.588  52.093  1.00  0.00     0.192 HD
HETATM   19  O   UNL     1      29.161  41.127  52.943  1.00  0.00    -0.266 OA
HETATM   20  C   UNL     1      28.967  43.129  54.173  1.00  0.00     0.046 A 
HETATM   21  C   UNL     1      28.146  44.213  54.478  1.00  0.00     0.006 A 
HETATM   22  C   UNL     1      30.244  43.018  54.736  1.00  0.00     0.018 A 
HETATM   23  C   UNL     1      28.614  45.201  55.353  1.00  0.00     0.014 A 
HETATM   24  C   UNL     1      29.889  45.093  55.917  1.00  0.00     0.001 A 
HETATM   25  C   UNL     1      30.702  44.002  55.610  1.00  0.00     0.001 A 
ENDBRANCH   1  14
TORSDOF 3
ENDMDL
MODEL 2
REMARK VINA RESULT:      -9.2      2.008      2.694
REMARK  3 active torsions:
REMARK  status: ('A' for Active; 'I' for Inactive)
REMARK    1  A    between atoms: C_6  and  N_7 
REMARK       I    between atoms: N_7  and  C_8 
REMARK    2  A    between atoms: C_8  and  C_9 
REMARK    3  A    between atoms: C_9  and  C_10 
ROOT
HETATM    1  C   UNL     1      26.848  44.225  51.696  1.00  0.00     0.165 C 
ENDROOT
BRANCH   1   2
HETATM    2  C   UNL     1      26.470  45.165  50.565  1.00  0.00     0.227 C 
HETATM    3  N   UNL     1      25.643  46.215  50.891  1.00  0.00    -0.327 N 
HETATM    4  H   UNL     1      25.231  46.174  51.824  1.00  0.00     0.169 HD
HETATM    5  O   UNL     1      26.962  44.966  49.455  1.00  0.00    -0.273 OA
BRANCH   3   6
HETATM    6  C   UNL     1      25.225  47.284  50.074  1.00  0.00     0.036 A 
HETATM    7  C   UNL     1      26.078  48.264  49.567  1.00  0.00     0.053 A 
HETATM    8  C   UNL     1      25.573  49.304  48.776  1.00  0.00     0.042 A 
HETATM    9  C   UNL     1      24.204  49.383  48.476  1.00  0.00    -0.040 A 
HETATM   10 CL   UNL     1      26.688  50.489  48.191  1.00  0.00    -0.084 Cl
HETATM   11  C   UNL     1      23.634  50.494  47.640  1.00  0.00     0.050 C 
HETATM   12  C   UNL     1      23.353  48.398  48.992  1.00  0.00     0.011 A 
HETATM   13  C   UNL     1      23.859  47.362  49.782  1.00  0.00     0.030 A 
ENDBRANCH   3   6
ENDBRANCH   1   2
BRANCH   1  14
HETATM   14  C   UNL     1      27.292  44.748  53.049  1.00  0.00     0.074 A 
HETATM   15  N   UNL     1      26.592  45.671  53.643  1.00  0.00    -0.175 NA
HETATM   16  N   UNL     1      27.008  46.126  54.854  1.00  0.00    -0.243 N 
HETATM   17  C   UNL     1      28.122  45.707  55.540  1.00  0.00     0.272 A 
HETATM   18  H   UNL     1      26.436  46.834  55.306  1.00  0.00     0.192 HD
HETATM   19  O   UNL     1      28.430  46.171  56.632  1.00  0.00    -0.266 OA
HETATM   20  C   UNL     1      28.930  44.666  54.888  1.00  0.00     0.046 A 
HETATM   21  C   UNL     1      28.527  44.172  53.649  1.00  0.00     0.006 A 
HETATM   22  C   UNL     1      30.085  44.179  55.512  1.00  0.00     0.018 A 
HETATM   23  C   UNL     1      29.289  43.173  53.029  1.00  0.00     0.014 A 
HETATM   24  C   UNL     1      30.443  42.685  53.650  1.00  0.00     0.001 A 
HETATM   25  C   UNL     1      30.841  43.188  54.889  1.00  0.00     0.001 A 
ENDBRANCH   1  14
TORSDOF 3
ENDMDL
MODEL 3
REMARK VINA RESULT:      -8.9      5.076      7.534
REMARK  3 active torsions:
REMARK  status: ('A' for Active; 'I' for Inactive)
REMARK    1  A    between atoms: C_6  and  N_7 
REMARK       I    between atoms: N_7  and  C_8 
REMARK    2  A    between atoms: C_8  and  C_9 
REMARK    3  A    between atoms: C_9  and  C_10 
ROOT
HETATM    1  C   UNL     1      27.639  42.271  51.453  1.00  0.00     0.165 C 
ENDROOT
BRANCH   1   2
HETATM    2  C   UNL     1      27.802  42.835  52.853  1.00  0.00     0.227 C 
HETATM    3  N   UNL     1      29.069  43.232  53.211  1.00  0.00    -0.327 N 
HETATM    4  H   UNL     1      29.810  42.962  52.564  1.00  0.00     0.169 HD
HETATM    5  O   UNL     1      26.797  42.952  53.553  1.00  0.00    -0.273 OA
BRANCH   3   6
HETATM    6  C   UNL     1      29.481  43.879  54.392  1.00  0.00     0.036 A 
HETATM    7  C   UNL     1      30.506  43.422  55.220  1.00  0.00     0.053 A 
HETATM    8  C   UNL     1      30.839  44.121  56.388  1.00  0.00     0.042 A 
HETATM    9  C   UNL     1      30.154  45.291  56.750  1.00  0.00    -0.040 A 
HETATM   10 CL   UNL     1      32.114  43.488  57.371  1.00  0.00    -0.084 Cl
HETATM   11  C   UNL     1      30.483  46.052  58.002  1.00  0.00     0.050 C 
HETATM   12  C   UNL     1      29.123  45.741  55.916  1.00  0.00     0.011 A 
HETATM   13  C   UNL     1      28.792  45.042  54.752  1.00  0.00     0.030 A 
ENDBRANCH   3   6
ENDBRANCH   1   2
BRANCH   1  14
HETATM   14  C   UNL     1      28.262  40.947  51.052  1.00  0.00     0.074 A 
HETATM   15  N   UNL     1      28.888  40.236  51.944  1.00  0.00    -0.175 NA
HETATM   16  N   UNL     1      29.440  39.053  51.565  1.00  0.00    -0.243 N 
HETATM   17  C   UNL     1      29.409  38.510  50.303  1.00  0.00     0.272 A 
HETATM   18  H   UNL     1      29.908  38.507  52.283  1.00  0.00     0.192 HD
HETATM   19  O   UNL     1      29.935  37.435  50.041  1.00  0.00    -0.266 OA
HETATM   20  C   UNL     1      28.709  39.297  49.277  1.00  0.00     0.046 A 
HETATM   21  C   UNL     1      28.126  40.511  49.635  1.00  0.00     0.006 A 
HETATM   22  C   UNL     1      28.629  38.825  47.961  1.00  0.00     0.018 A 
HETATM   23  C   UNL     1      27.450  41.259  48.663  1.00  0.00     0.014 A 
HETATM   24  C   UNL     1      27.369  40.790  47.348  1.00  0.00     0.001 A 
HETATM   25  C   UNL     1      27.959  39.575  46.998  1.00  0.00     0.001 A 
ENDBRANCH   1  14
TORSDOF 3
ENDMDL
MODEL 4
REMARK VINA RESULT:      -8.8      2.813      8.016
REMARK  3 active torsions:
REMARK  status: ('A' for Active; 'I' for Inactive)
REMARK    1  A    between atoms: C_6  and  N_7 
REMARK       I    between atoms: N_7  and  C_8 
REMARK    2  A    between atoms: C_8  and  C_9 
REMARK    3  A    between atoms: C_9  and  C_10 
ROOT
HETATM    1  C   UNL     1      24.527  46.005  50.567  1.00  0.00     0.165 C 
ENDROOT
BRANCH   1   2
HETATM    2  C   UNL     1      25.238  45.315  51.717  1.00  0.00     0.227 C 
HETATM    3  N   UNL     1      26.612  45.295  51.666  1.00  0.00    -0.327 N 
HETATM    4  H   UNL     1      27.021  45.602  50.782  1.00  0.00     0.169 HD
HETATM    5  O   UNL     1      24.556  44.870  52.640  1.00  0.00    -0.273 OA
BRANCH   3   6
HETATM    6  C   UNL     1      27.517  44.822  52.637  1.00  0.00     0.036 A 
HETATM    7  C   UNL     1      27.693  45.402  53.893  1.00  0.00     0.053 A 
HETATM    8  C   UNL     1      28.629  44.876  54.792  1.00  0.00     0.042 A 
HETATM    9  C   UNL     1      29.408  43.759  54.452  1.00  0.00    -0.040 A 
HETATM   10 CL   UNL     1      28.801  45.654  56.328  1.00  0.00    -0.084 Cl
HETATM   11  C   UNL     1      30.428  43.182  55.392  1.00  0.00     0.050 C 
HETATM   12  C   UNL     1      29.229  43.184  53.188  1.00  0.00     0.011 A 
HETATM   13  C   UNL     1      28.294  43.711  52.292  1.00  0.00     0.030 A 
ENDBRANCH   3   6
ENDBRANCH   1   2
BRANCH   1  14
HETATM   14  C   UNL     1      25.128  47.212  49.871  1.00  0.00     0.074 A 
HETATM   15  N   UNL     1      26.420  47.366  49.854  1.00  0.00    -0.175 NA
HETATM   16  N   UNL     1      26.938  48.455  49.226  1.00  0.00    -0.243 N 
HETATM   17  C   UNL     1      26.225  49.441  48.590  1.00  0.00     0.272 A 
HETATM   18  H   UNL     1      27.950  48.545  49.211  1.00  0.00     0.192 HD
HETATM   19  O   UNL     1      26.769  50.395  48.046  1.00  0.00    -0.266 OA
HETATM   20  C   UNL     1      24.762  49.289  48.598  1.00  0.00     0.046 A 
HETATM   21  C   UNL     1      24.199  48.181  49.227  1.00  0.00     0.006 A 
HETATM   22  C   UNL     1      23.952  50.248  47.976  1.00  0.00     0.018 A 
HETATM   23  C   UNL     1      22.806  48.028  49.228  1.00  0.00     0.014 A 
HETATM   24  C   UNL     1      21.995  48.983  48.609  1.00  0.00     0.001 A 
HETATM   25  C   UNL     1      22.567  50.092  47.984  1.00  0.00     0.001 A 
ENDBRANCH   1  14
TORSDOF 3
ENDMDL
MODEL 5
REMARK VINA RESULT:      -8.8      5.042      6.525
REMARK  3 active torsions:
REMARK  status: ('A' for Active; 'I' for Inactive)
REMARK    1  A    between atoms: C_6  and  N_7 
REMARK       I    between atoms: N_7  and  C_8 
REMARK    2  A    between atoms: C_8  and  C_9 
REMARK    3  A    between atoms: C_9  and  C_10 
ROOT
HETATM    1  C   UNL     1      29.973  42.491  53.471  1.00  0.00     0.165 C 
ENDROOT
BRANCH   1   2
HETATM    2  C   UNL     1      29.048  41.537  52.739  1.00  0.00     0.227 C 
HETATM    3  N   UNL     1      28.795  41.820  51.418  1.00  0.00    -0.327 N 
HETATM    4  H   UNL     1      29.122  42.732  51.096  1.00  0.00     0.169 HD
HETATM    5  O   UNL     1      28.629  40.552  53.347  1.00  0.00    -0.273 OA
BRANCH   3   6
HETATM    6  C   UNL     1      28.068  41.056  50.483  1.00  0.00     0.036 A 
HETATM    7  C   UNL     1      28.563  39.919  49.845  1.00  0.00     0.053 A 
HETATM    8  C   UNL     1      27.776  39.229  48.914  1.00  0.00     0.042 A 
HETATM    9  C   UNL     1      26.478  39.663  48.604  1.00  0.00    -0.040 A 
HETATM   10 CL   UNL     1      28.460  37.834  48.154  1.00  0.00    -0.084 Cl
HETATM   11  C   UNL     1      25.617  38.949  47.601  1.00  0.00     0.050 C 
HETATM   12  C   UNL     1      25.989  40.808  49.245  1.00  0.00     0.011 A 
HETATM   13  C   UNL     1      26.776  41.495  50.173  1.00  0.00     0.030 A 
ENDBRANCH   3   6
ENDBRANCH   1   2
BRANCH   1  14
HETATM   14  C   UNL     1      29.442  43.707  54.206  1.00  0.00     0.074 A 
HETATM   15  N   UNL     1      28.475  44.403  53.681  1.00  0.00    -0.175 NA
HETATM   16  N   UNL     1      28.013  45.490  54.355  1.00  0.00    -0.243 N 
HETATM   17  C   UNL     1      28.471  45.948  55.567  1.00  0.00     0.272 A 
HETATM   18  H   UNL     1      27.248  46.007  53.934  1.00  0.00     0.192 HD
HETATM   19  O   UNL     1      28.001  46.941  56.110  1.00  0.00    -0.266 OA
HETATM   20  C   UNL     1      29.564  45.178  56.179  1.00  0.00     0.046 A 
HETATM   21  C   UNL     1      30.056  44.055  55.518  1.00  0.00     0.006 A 
HETATM   22  C   UNL     1      30.097  45.573  57.413  1.00  0.00     0.018 A 
HETATM   23  C   UNL     1      31.091  43.314  56.102  1.00  0.00     0.014 A 
HETATM   24  C   UNL     1      31.625  43.706  57.333  1.00  0.00     0.001 A 
HETATM   25  C   UNL     1      31.129  44.834  57.987  1.00  0.00     0.001 A 
ENDBRANCH   1  14
TORSDOF 3
ENDMDL
MODEL 6
REMARK VINA RESULT:      -8.6      3.392      7.608
REMARK  3 active torsions:
REMARK  status: ('A' for Active; 'I' for Inactive)
REMARK    1  A    between atoms: C_6  and  N_7 
REMARK       I    between atoms: N_7  and  C_8 
REMARK    2  A    between atoms: C_8  and  C_9 
REMARK    3  A    between atoms: C_9  and  C_10 
ROOT
HETATM    1  C   UNL     1      25.791  45.673  52.493  1.00  0.00     0.165 C 
ENDROOT
BRANCH   1   2
HETATM    2  C   UNL     1      26.572  45.121  53.673  1.00  0.00     0.227 C 
HETATM    3  N   UNL     1      27.939  45.073  53.535  1.00  0.00    -0.327 N 
HETATM    4  H   UNL     1      28.290  45.259  52.595  1.00  0.00     0.169 HD
HETATM    5  O   UNL     1      25.949  44.808  54.687  1.00  0.00    -0.273 OA
BRANCH   3   6
HETATM    6  C   UNL     1      28.903  44.712  54.497  1.00  0.00     0.036 A 
HETATM    7  C   UNL     1      29.204  45.469  55.629  1.00  0.00     0.053 A 
HETATM    8  C   UNL     1      30.191  45.042  56.526  1.00  0.00     0.042 A 
HETATM    9  C   UNL     1      30.896  43.849  56.309  1.00  0.00    -0.040 A 
HETATM   10 CL   UNL     1      30.518  46.039  57.902  1.00  0.00    -0.084 Cl
HETATM   11  C   UNL     1      31.969  43.374  57.248  1.00  0.00     0.050 C 
HETATM   12  C   UNL     1      30.593  43.095  55.169  1.00  0.00     0.011 A 
HETATM   13  C   UNL     1      29.607  43.523  54.274  1.00  0.00     0.030 A 
ENDBRANCH   3   6
ENDBRANCH   1   2
BRANCH   1  14
HETATM   14  C   UNL     1      24.922  44.779  51.628  1.00  0.00     0.074 A 
HETATM   15  N   UNL     1      24.850  43.506  51.889  1.00  0.00    -0.175 NA
HETATM   16  N   UNL     1      24.067  42.723  51.102  1.00  0.00    -0.243 N 
HETATM   17  C   UNL     1      23.321  43.141  50.027  1.00  0.00     0.272 A 
HETATM   18  H   UNL     1      24.013  41.736  51.335  1.00  0.00     0.192 HD
HETATM   19  O   UNL     1      22.639  42.368  49.364  1.00  0.00    -0.266 OA
HETATM   20  C   UNL     1      23.388  44.576  49.711  1.00  0.00     0.046 A 
HETATM   21  C   UNL     1      24.176  45.408  50.503  1.00  0.00     0.006 A 
HETATM   22  C   UNL     1      22.663  45.093  48.631  1.00  0.00     0.018 A 
HETATM   23  C   UNL     1      24.235  46.777  50.212  1.00  0.00     0.014 A 
HETATM   24  C   UNL     1      23.513  47.296  49.133  1.00  0.00     0.001 A 
HETATM   25  C   UNL     1      22.729  46.455  48.343  1.00  0.00     0.001 A 
ENDBRANCH   1  14
TORSDOF 3
ENDMDL
MODEL 7
REMARK VINA RESULT:      -8.4      2.931      7.964
REMARK  3 active torsions:
REMARK  status: ('A' for Active; 'I' for Inactive)
REMARK    1  A    between atoms: C_6  and  N_7 
REMARK       I    between atoms: N_7  and  C_8 
REMARK    2  A    between atoms: C_8  and  C_9 
REMARK    3  A    between atoms: C_9  and  C_10 
ROOT
HETATM    1  C   UNL     1      25.671  44.256  50.987  1.00  0.00     0.165 C 
ENDROOT
BRANCH   1   2
HETATM    2  C   UNL     1      26.361  44.024  52.320  1.00  0.00     0.227 C 
HETATM    3  N   UNL     1      27.730  44.155  52.332  1.00  0.00    -0.327 N 
HETATM    4  H   UNL     1      28.170  44.236  51.414  1.00  0.00     0.169 HD
HETATM    5  O   UNL     1      25.661  43.791  53.304  1.00  0.00    -0.273 OA
BRANCH   3   6
HETATM    6  C   UNL     1      28.604  44.100  53.436  1.00  0.00     0.036 A 
HETATM    7  C   UNL     1      28.567  44.988  54.511  1.00  0.00     0.053 A 
HETATM    8  C   UNL     1      29.487  44.871  55.560  1.00  0.00     0.042 A 
HETATM    9  C   UNL     1      30.462  43.861  55.555  1.00  0.00    -0.040 A 
HETATM   10 CL   UNL     1      29.388  46.015  56.853  1.00  0.00    -0.084 Cl
HETATM   11  C   UNL     1      31.469  43.720  56.662  1.00  0.00     0.050 C 
HETATM   12  C   UNL     1      30.496  42.976  54.471  1.00  0.00     0.011 A 
HETATM   13  C   UNL     1      29.577  43.095  53.425  1.00  0.00     0.030 A 
ENDBRANCH   3   6
ENDBRANCH   1   2
BRANCH   1  14
HETATM   14  C   UNL     1      25.368  45.654  50.482  1.00  0.00     0.074 A 
HETATM   15  N   UNL     1      26.203  46.621  50.728  1.00  0.00    -0.175 NA
HETATM   16  N   UNL     1      25.912  47.866  50.267  1.00  0.00    -0.243 N 
HETATM   17  C   UNL     1      24.798  48.227  49.550  1.00  0.00     0.272 A 
HETATM   18  H   UNL     1      26.588  48.601  50.457  1.00  0.00     0.192 HD
HETATM   19  O   UNL     1      24.608  49.377  49.171  1.00  0.00    -0.266 OA
HETATM   20  C   UNL     1      23.838  47.151  49.261  1.00  0.00     0.046 A 
HETATM   21  C   UNL     1      24.109  45.861  49.713  1.00  0.00     0.006 A 
HETATM   22  C   UNL     1      22.671  47.424  48.538  1.00  0.00     0.018 A 
HETATM   23  C   UNL     1      23.202  44.831  49.432  1.00  0.00     0.014 A 
HETATM   24  C   UNL     1      22.036  45.102  48.710  1.00  0.00     0.001 A 
HETATM   25  C   UNL     1      21.770  46.397  48.264  1.00  0.00     0.001 A 
ENDBRANCH   1  14
TORSDOF 3
ENDMDL
MODEL 8
REMARK VINA RESULT:      -8.4      4.159      6.805
REMARK  3 active torsions:
REMARK  status: ('A' for Active; 'I' for Inactive)
REMARK    1  A    between atoms: C_6  and  N_7 
REMARK       I    between atoms: N_7  and  C_8 
REMARK    2  A    between atoms: C_8  and  C_9 
REMARK    3  A    between atoms: C_9  and  C_10 
ROOT
HETATM    1  C   UNL     1      28.191  41.554  53.061  1.00  0.00     0.165 C 
ENDROOT
BRANCH   1   2
HETATM    2  C   UNL     1      27.750  41.055  51.697  1.00  0.00     0.227 C 
HETATM    3  N   UNL     1      28.744  40.631  50.848  1.00  0.00    -0.327 N 
HETATM    4  H   UNL     1      29.696  40.842  51.150  1.00  0.00     0.169 HD
HETATM    5  O   UNL     1      26.544  41.008  51.458  1.00  0.00    -0.273 OA
BRANCH   3   6
HETATM    6  C   UNL     1      28.614  40.029  49.581  1.00  0.00     0.036 A 
HETATM    7  C   UNL     1      28.274  40.717  48.416  1.00  0.00     0.053 A 
HETATM    8  C   UNL     1      28.149  40.034  47.200  1.00  0.00     0.042 A 
HETATM    9  C   UNL     1      28.365  38.649  47.124  1.00  0.00    -0.040 A 
HETATM   10 CL   UNL     1      27.713  40.951  45.800  1.00  0.00    -0.084 Cl
HETATM   11  C   UNL     1      28.226  37.890  45.835  1.00  0.00     0.050 C 
HETATM   12  C   UNL     1      28.702  37.964  48.298  1.00  0.00     0.011 A 
HETATM   13  C   UNL     1      28.825  38.647  49.511  1.00  0.00     0.030 A 
ENDBRANCH   3   6
ENDBRANCH   1   2
BRANCH   1  14
HETATM   14  C   UNL     1      27.913  42.975  53.516  1.00  0.00     0.074 A 
HETATM   15  N   UNL     1      26.846  43.588  53.091  1.00  0.00    -0.175 NA
HETATM   16  N   UNL     1      26.616  44.861  53.510  1.00  0.00    -0.243 N 
HETATM   17  C   UNL     1      27.412  45.594  54.355  1.00  0.00     0.272 A 
HETATM   18  H   UNL     1      25.768  45.312  53.179  1.00  0.00     0.192 HD
HETATM   19  O   UNL     1      27.135  46.741  54.684  1.00  0.00    -0.266 OA
HETATM   20  C   UNL     1      28.625  44.923  54.846  1.00  0.00     0.046 A 
HETATM   21  C   UNL     1      28.887  43.615  54.443  1.00  0.00     0.006 A 
HETATM   22  C   UNL     1      29.499  45.593  55.711  1.00  0.00     0.018 A 
HETATM   23  C   UNL     1      30.036  42.969  54.916  1.00  0.00     0.014 A 
HETATM   24  C   UNL     1      30.911  43.637  55.779  1.00  0.00     0.001 A 
HETATM   25  C   UNL     1      30.643  44.947  56.175  1.00  0.00     0.001 A 
ENDBRANCH   1  14
TORSDOF 3
ENDMDL
MODEL 9
REMARK VINA RESULT:      -8.3      3.931      7.137
REMARK  3 active torsions:
REMARK  status: ('A' for Active; 'I' for Inactive)
REMARK    1  A    between atoms: C_6  and  N_7 
REMARK       I    between atoms: N_7  and  C_8 
REMARK    2  A    between atoms: C_8  and  C_9 
REMARK    3  A    between atoms: C_9  and  C_10 
ROOT
HETATM    1  C   UNL     1      25.727  45.130  52.332  1.00  0.00     0.165 C 
ENDROOT
BRANCH   1   2
HETATM    2  C   UNL     1      26.560  44.551  53.462  1.00  0.00     0.227 C 
HETATM    3  N   UNL     1      27.895  44.878  53.469  1.00  0.00    -0.327 N 
HETATM    4  H   UNL     1      28.235  45.345  52.628  1.00  0.00     0.169 HD
HETATM    5  O   UNL     1      25.988  43.880  54.321  1.00  0.00    -0.273 OA
BRANCH   3   6
HETATM    6  C   UNL     1      28.865  44.572  54.444  1.00  0.00     0.036 A 
HETATM    7  C   UNL     1      29.140  45.369  55.555  1.00  0.00     0.053 A 
HETATM    8  C   UNL     1      30.136  44.996  56.466  1.00  0.00     0.042 A 
HETATM    9  C   UNL     1      30.876  43.817  56.285  1.00  0.00    -0.040 A 
HETATM   10 CL   UNL     1      30.430  46.039  57.814  1.00  0.00    -0.084 Cl
HETATM   11  C   UNL     1      31.958  43.400  57.240  1.00  0.00     0.050 C 
HETATM   12  C   UNL     1      30.598  43.024  55.165  1.00  0.00     0.011 A 
HETATM   13  C   UNL     1      29.604  43.399  54.256  1.00  0.00     0.030 A 
ENDBRANCH   3   6
ENDBRANCH   1   2
BRANCH   1  14
HETATM   14  C   UNL     1      24.873  44.247  51.442  1.00  0.00     0.074 A 
HETATM   15  N   UNL     1      23.619  44.544  51.256  1.00  0.00    -0.175 NA
HETATM   16  N   UNL     1      22.871  43.740  50.455  1.00  0.00    -0.243 N 
HETATM   17  C   UNL     1      23.306  42.613  49.802  1.00  0.00     0.272 A 
HETATM   18  H   UNL     1      21.900  44.002  50.311  1.00  0.00     0.192 HD
HETATM   19  O   UNL     1      22.565  41.938  49.097  1.00  0.00    -0.266 OA
HETATM   20  C   UNL     1      24.719  42.256  49.999  1.00  0.00     0.046 A 
HETATM   21  C   UNL     1      25.516  43.063  50.808  1.00  0.00     0.006 A 
HETATM   22  C   UNL     1      25.252  41.121  49.376  1.00  0.00     0.018 A 
HETATM   23  C   UNL     1      26.864  42.732  50.991  1.00  0.00     0.014 A 
HETATM   24  C   UNL     1      27.398  41.599  50.370  1.00  0.00     0.001 A 
HETATM   25  C   UNL     1      26.593  40.794  49.564  1.00  0.00     0.001 A 
ENDBRANCH   1  14
TORSDOF 3
ENDMDL
MODEL 10
REMARK VINA RESULT:      -8.2      4.035      5.596
REMARK  3 active torsions:
REMARK  status: ('A' for Active; 'I' for Inactive)
REMARK    1  A    between atoms: C_6  and  N_7 
REMARK       I    between atoms: N_7  and  C_8 
REMARK    2  A    between atoms: C_8  and  C_9 
REMARK    3  A    between atoms: C_9  and  C_10 
ROOT
HETATM    1  C   UNL     1      25.094  48.105  49.607  1.00  0.00     0.165 C 
ENDROOT
BRANCH   1   2
HETATM    2  C   UNL     1      24.071  49.012  48.947  1.00  0.00     0.227 C 
HETATM    3  N   UNL     1      22.792  48.960  49.447  1.00  0.00    -0.327 N 
HETATM    4  H   UNL     1      22.610  48.202  50.106  1.00  0.00     0.169 HD
HETATM    5  O   UNL     1      24.455  49.767  48.054  1.00  0.00    -0.273 OA
BRANCH   3   6
HETATM    6  C   UNL     1      21.684  49.759  49.100  1.00  0.00     0.036 A 
HETATM    7  C   UNL     1      21.015  49.684  47.878  1.00  0.00     0.053 A 
HETATM    8  C   UNL     1      19.932  50.530  47.609  1.00  0.00     0.042 A 
HETATM    9  C   UNL     1      19.495  51.467  48.558  1.00  0.00    -0.040 A 
HETATM   10 CL   UNL     1      19.159  50.388  46.068  1.00  0.00    -0.084 Cl
HETATM   11  C   UNL     1      18.344  52.394  48.291  1.00  0.00     0.050 C 
HETATM   12  C   UNL     1      20.173  51.540  49.781  1.00  0.00     0.011 A 
HETATM   13  C   UNL     1      21.255  50.695  50.047  1.00  0.00     0.030 A 
ENDBRANCH   3   6
ENDBRANCH   1   2
BRANCH   1  14
HETATM   14  C   UNL     1      24.732  46.708  50.076  1.00  0.00     0.074 A 
HETATM   15  N   UNL     1      24.063  45.919  49.286  1.00  0.00    -0.175 NA
HETATM   16  N   UNL     1      23.748  44.672  49.725  1.00  0.00    -0.243 N 
HETATM   17  C   UNL     1      24.066  44.138  50.950  1.00  0.00     0.272 A 
HETATM   18  H   UNL     1      23.240  44.068  49.085  1.00  0.00     0.192 HD
HETATM   19  O   UNL     1      23.742  43.000  51.272  1.00  0.00    -0.266 OA
HETATM   20  C   UNL     1      24.821  45.012  51.861  1.00  0.00     0.046 A 
HETATM   21  C   UNL     1      25.166  46.294  51.439  1.00  0.00     0.006 A 
HETATM   22  C   UNL     1      25.187  44.554  53.132  1.00  0.00     0.018 A 
HETATM   23  C   UNL     1      25.893  47.126  52.300  1.00  0.00     0.014 A 
HETATM   24  C   UNL     1      26.260  46.671  53.570  1.00  0.00     0.001 A 
HETATM   25  C   UNL     1      25.907  45.388  53.986  1.00  0.00     0.001 A 
ENDBRANCH   1  14
TORSDOF 3
ENDMDL
