MODEL 1
REMARK VINA RESULT:      -9.8      0.000      0.000
REMARK  6 active torsions:
REMARK  status: ('A' for Active; 'I' for Inactive)
REMARK    1  A    between atoms: C_3  and  C_4 
REMARK    2  A    between atoms: C_4  and  N_5 
REMARK    3  A    between atoms: C_4  and  C_9 
REMARK       I    between atoms: N_5  and  C_6 
REMARK       I    between atoms: C_6  and  N_7 
REMARK    4  A    between atoms: C_9  and  C_10 
REMARK       I    between atoms: C_10  and  N_11 
REMARK    5  A    between atoms: N_11  and  C_12 
REMARK    6  A    between atoms: C_14  and  C_15 
ROOT
HETATM    1  C   UNL     1      25.098  46.460  51.953  1.00  0.00     0.133 C 
ENDROOT
BRANCH   1   2
HETATM    2  C   UNL     1      25.273  46.328  50.438  1.00  0.00     0.128 C 
BRANCH   2   3
HETATM    3  C   UNL     1      25.636  47.617  49.695  1.00  0.00    -0.029 A 
HETATM    4  C   UNL     1      24.711  48.559  49.189  1.00  0.00    -0.054 A 
HETATM    5  C   UNL     1      23.218  48.396  49.260  1.00  0.00     0.049 C 
HETATM    6  C   UNL     1      25.192  49.720  48.548  1.00  0.00     0.007 A 
HETATM    7  C   UNL     1      26.557  49.973  48.430  1.00  0.00     0.001 A 
HETATM    8  C   UNL     1      27.470  49.062  48.938  1.00  0.00     0.001 A 
HETATM    9  C   UNL     1      27.016  47.900  49.559  1.00  0.00     0.010 A 
ENDBRANCH   2   3
BRANCH   2  10
HETATM   10  N   UNL     1      26.123  45.231  49.973  1.00  0.00    -0.339 N 
HETATM   11  C   UNL     1      25.721  44.115  49.312  1.00  0.00     0.292 C 
HETATM   12  N   UNL     1      26.757  43.281  49.042  1.00  0.00    -0.254 NA
HETATM   13  O   UNL     1      24.583  43.837  48.971  1.00  0.00    -0.254 OA
HETATM   14  H   UNL     1      27.633  43.714  48.789  1.00  0.00     0.128 HD
HETATM   15  H   UNL     1      26.491  42.503  48.451  1.00  0.00     0.128 HD
HETATM   16  H   UNL     1      27.022  45.158  50.426  1.00  0.00     0.164 HD
ENDBRANCH   2  10
ENDBRANCH   1   2
BRANCH   1  17
HETATM   17  C   UNL     1      25.852  45.369  52.684  1.00  0.00     0.224 C 
HETATM   18  N   UNL     1      27.104  45.764  53.117  1.00  0.00    -0.327 N 
HETATM   19  H   UNL     1      27.293  46.759  53.113  1.00  0.00     0.169 HD
HETATM   20  O   UNL     1      25.342  44.263  52.845  1.00  0.00    -0.273 OA
BRANCH  18  21
HETATM   21  C   UNL     1      28.135  44.939  53.613  1.00  0.00     0.035 A 
HETATM   22  C   UNL     1      28.805  45.175  54.818  1.00  0.00     0.042 A 
HETATM   23  C   UNL     1      29.785  44.286  55.290  1.00  0.00    -0.021 A 
HETATM   24  C   UNL     1      30.092  43.151  54.530  1.00  0.00     0.012 A 
HETATM   25  C   UNL     1      29.431  42.909  53.324  1.00  0.00     0.003 A 
HETATM   26  C   UNL     1      28.455  43.797  52.872  1.00  0.00     0.029 A 
BRANCH  23  27
HETATM   27  C   UNL     1      30.459  44.516  56.559  1.00  0.00     0.010 A 
HETATM   28  C   UNL     1      31.503  43.804  57.199  1.00  0.00     0.152 A 
HETATM   29  N   UNL     1      31.857  44.340  58.369  1.00  0.00    -0.187 NA
HETATM   30  N   UNL     1      31.036  45.396  58.489  1.00  0.00    -0.289 N 
HETATM   31  H   UNL     1      31.113  45.973  59.319  1.00  0.00     0.188 HD
HETATM   32  C   UNL     1      30.187  45.548  57.433  1.00  0.00     0.123 A 
ENDBRANCH  23  27
ENDBRANCH  18  21
ENDBRANCH   1  17
TORSDOF 6
ENDMDL
MODEL 2
REMARK VINA RESULT:      -9.6      2.450      8.455
REMARK  6 active torsions:
REMARK  status: ('A' for Active; 'I' for Inactive)
REMARK    1  A    between atoms: C_3  and  C_4 
REMARK    2  A    between atoms: C_4  and  N_5 
REMARK    3  A    between atoms: C_4  and  C_9 
REMARK       I    between atoms: N_5  and  C_6 
REMARK       I    between atoms: C_6  and  N_7 
REMARK    4  A    between atoms: C_9  and  C_10 
REMARK       I    between atoms: C_10  and  N_11 
REMARK    5  A    between atoms: N_11  and  C_12 
REMARK    6  A    between atoms: C_14  and  C_15 
ROOT
HETATM    1  C   UNL     1      27.971  47.008  54.956  1.00  0.00     0.133 C 
ENDROOT
BRANCH   1   2
HETATM    2  C   UNL     1      28.266  45.522  55.178  1.00  0.00     0.128 C 
BRANCH   2   3
HETATM    3  C   UNL     1      29.392  45.208  56.167  1.00  0.00    -0.029 A 
HETATM    4  C   UNL     1      30.399  44.233  55.979  1.00  0.00    -0.054 A 
HETATM    5  C   UNL     1      30.471  43.315  54.790  1.00  0.00     0.049 C 
HETATM    6  C   UNL     1      31.393  44.071  56.966  1.00  0.00     0.007 A 
HETATM    7  C   UNL     1      31.424  44.871  58.107  1.00  0.00     0.001 A 
HETATM    8  C   UNL     1      30.450  45.840  58.290  1.00  0.00     0.001 A 
HETATM    9  C   UNL     1      29.447  46.004  57.336  1.00  0.00     0.010 A 
ENDBRANCH   2   3
BRANCH   2  10
HETATM   10  N   UNL     1      27.113  44.662  55.450  1.00  0.00    -0.339 N 
HETATM   11  C   UNL     1      26.656  43.647  54.673  1.00  0.00     0.292 C 
HETATM   12  N   UNL     1      25.551  43.059  55.199  1.00  0.00    -0.254 NA
HETATM   13  O   UNL     1      27.135  43.258  53.620  1.00  0.00    -0.254 OA
HETATM   14  H   UNL     1      25.525  42.961  56.203  1.00  0.00     0.128 HD
HETATM   15  H   UNL     1      25.267  42.231  54.691  1.00  0.00     0.128 HD
HETATM   16  H   UNL     1      26.442  45.031  56.107  1.00  0.00     0.164 HD
ENDBRANCH   2  10
ENDBRANCH   1   2
BRANCH   1  17
HETATM   17  C   UNL     1      26.730  47.194  54.107  1.00  0.00     0.224 C 
HETATM   18  N   UNL     1      26.704  46.379  52.991  1.00  0.00    -0.327 N 
HETATM   19  H   UNL     1      27.364  45.611  52.973  1.00  0.00     0.169 HD
HETATM   20  O   UNL     1      25.868  48.004  54.438  1.00  0.00    -0.273 OA
BRANCH  18  21
HETATM   21  C   UNL     1      25.825  46.466  51.892  1.00  0.00     0.035 A 
HETATM   22  C   UNL     1      25.788  47.553  51.011  1.00  0.00     0.042 A 
HETATM   23  C   UNL     1      24.929  47.557  49.899  1.00  0.00    -0.021 A 
HETATM   24  C   UNL     1      24.096  46.454  49.682  1.00  0.00     0.012 A 
HETATM   25  C   UNL     1      24.123  45.366  50.557  1.00  0.00     0.003 A 
HETATM   26  C   UNL     1      24.986  45.372  51.653  1.00  0.00     0.029 A 
BRANCH  23  27
HETATM   27  C   UNL     1      24.915  48.674  48.967  1.00  0.00     0.010 A 
HETATM   28  C   UNL     1      23.847  49.284  48.265  1.00  0.00     0.152 A 
HETATM   29  N   UNL     1      24.244  50.303  47.497  1.00  0.00    -0.187 NA
HETATM   30  N   UNL     1      25.571  50.346  47.698  1.00  0.00    -0.289 N 
HETATM   31  H   UNL     1      26.109  51.052  47.208  1.00  0.00     0.188 HD
HETATM   32  C   UNL     1      26.020  49.399  48.571  1.00  0.00     0.123 A 
ENDBRANCH  23  27
ENDBRANCH  18  21
ENDBRANCH   1  17
TORSDOF 6
ENDMDL
MODEL 3
REMARK VINA RESULT:      -9.5      2.445      7.458
REMARK  6 active torsions:
REMARK  status: ('A' for Active; 'I' for Inactive)
REMARK    1  A    between atoms: C_3  and  C_4 
REMARK    2  A    between atoms: C_4  and  N_5 
REMARK    3  A    between atoms: C_4  and  C_9 
REMARK       I    between atoms: N_5  and  C_6 
REMARK       I    between atoms: C_6  and  N_7 
REMARK    4  A    between atoms: C_9  and  C_10 
REMARK       I    between atoms: C_10  and  N_11 
REMARK    5  A    between atoms: N_11  and  C_12 
REMARK    6  A    between atoms: C_14  and  C_15 
ROOT
HETATM    1  C   UNL     1      26.612  43.238  54.507  1.00  0.00     0.133 C 
ENDROOT
BRANCH   1   2
HETATM    2  C   UNL     1      28.021  43.283  53.911  1.00  0.00     0.128 C 
BRANCH   2   3
HETATM    3  C   UNL     1      29.101  43.905  54.802  1.00  0.00    -0.029 A 
HETATM    4  C   UNL     1      29.120  45.245  55.251  1.00  0.00    -0.054 A 
HETATM    5  C   UNL     1      28.097  46.279  54.864  1.00  0.00     0.049 C 
HETATM    6  C   UNL     1      30.166  45.674  56.093  1.00  0.00     0.007 A 
HETATM    7  C   UNL     1      31.165  44.799  56.517  1.00  0.00     0.001 A 
HETATM    8  C   UNL     1      31.144  43.479  56.094  1.00  0.00     0.001 A 
HETATM    9  C   UNL     1      30.128  43.040  55.247  1.00  0.00     0.010 A 
ENDBRANCH   2   3
BRANCH   2  10
HETATM   10  N   UNL     1      28.520  42.039  53.322  1.00  0.00    -0.339 N 
HETATM   11  C   UNL     1      28.326  41.607  52.050  1.00  0.00     0.292 C 
HETATM   12  N   UNL     1      28.904  40.399  51.828  1.00  0.00    -0.254 NA
HETATM   13  O   UNL     1      27.718  42.186  51.165  1.00  0.00    -0.254 OA
HETATM   14  H   UNL     1      29.795  40.235  52.273  1.00  0.00     0.128 HD
HETATM   15  H   UNL     1      28.866  40.118  50.856  1.00  0.00     0.128 HD
HETATM   16  H   UNL     1      28.777  41.320  53.983  1.00  0.00     0.164 HD
ENDBRANCH   2  10
ENDBRANCH   1   2
BRANCH   1  17
HETATM   17  C   UNL     1      25.646  44.061  53.679  1.00  0.00     0.224 C 
HETATM   18  N   UNL     1      26.037  44.200  52.360  1.00  0.00    -0.327 N 
HETATM   19  H   UNL     1      26.766  43.577  52.034  1.00  0.00     0.169 HD
HETATM   20  O   UNL     1      24.632  44.528  54.190  1.00  0.00    -0.273 OA
BRANCH  18  21
HETATM   21  C   UNL     1      25.498  45.080  51.399  1.00  0.00     0.035 A 
HETATM   22  C   UNL     1      26.167  46.212  50.922  1.00  0.00     0.042 A 
HETATM   23  C   UNL     1      25.603  47.021  49.921  1.00  0.00    -0.021 A 
HETATM   24  C   UNL     1      24.348  46.681  49.404  1.00  0.00     0.012 A 
HETATM   25  C   UNL     1      23.671  45.555  49.875  1.00  0.00     0.003 A 
HETATM   26  C   UNL     1      24.246  44.757  50.864  1.00  0.00     0.029 A 
BRANCH  23  27
HETATM   27  C   UNL     1      26.314  48.181  49.404  1.00  0.00     0.010 A 
HETATM   28  C   UNL     1      25.843  49.334  48.730  1.00  0.00     0.152 A 
HETATM   29  N   UNL     1      26.821  50.189  48.417  1.00  0.00    -0.187 NA
HETATM   30  N   UNL     1      27.924  49.584  48.884  1.00  0.00    -0.289 N 
HETATM   31  H   UNL     1      28.817  50.048  48.759  1.00  0.00     0.188 HD
HETATM   32  C   UNL     1      27.675  48.386  49.487  1.00  0.00     0.123 A 
ENDBRANCH  23  27
ENDBRANCH  18  21
ENDBRANCH   1  17
TORSDOF 6
ENDMDL
MODEL 4
REMARK VINA RESULT:      -9.2      2.589      8.496
REMARK  6 active torsions:
REMARK  status: ('A' for Active; 'I' for Inactive)
REMARK    1  A    between atoms: C_3  and  C_4 
REMARK    2  A    between atoms: C_4  and  N_5 
REMARK    3  A    between atoms: C_4  and  C_9 
REMARK       I    between atoms: N_5  and  C_6 
REMARK       I    between atoms: C_6  and  N_7 
REMARK    4  A    between atoms: C_9  and  C_10 
REMARK       I    between atoms: C_10  and  N_11 
REMARK    5  A    between atoms: N_11  and  C_12 
REMARK    6  A    between atoms: C_14  and  C_15 
ROOT
HETATM    1  C   UNL     1      26.024  45.444  53.460  1.00  0.00     0.133 C 
ENDROOT
BRANCH   1   2
HETATM    2  C   UNL     1      27.327  44.869  52.898  1.00  0.00     0.128 C 
BRANCH   2   3
HETATM    3  C   UNL     1      28.437  44.609  53.920  1.00  0.00    -0.029 A 
HETATM    4  C   UNL     1      28.852  45.513  54.925  1.00  0.00    -0.054 A 
HETATM    5  C   UNL     1      28.294  46.900  55.095  1.00  0.00     0.049 C 
HETATM    6  C   UNL     1      29.872  45.127  55.819  1.00  0.00     0.007 A 
HETATM    7  C   UNL     1      30.457  43.864  55.754  1.00  0.00     0.001 A 
HETATM    8  C   UNL     1      30.044  42.966  54.783  1.00  0.00     0.001 A 
HETATM    9  C   UNL     1      29.050  43.335  53.878  1.00  0.00     0.010 A 
ENDBRANCH   2   3
BRANCH   2  10
HETATM   10  N   UNL     1      27.198  43.718  52.002  1.00  0.00    -0.339 N 
HETATM   11  C   UNL     1      27.286  43.729  50.647  1.00  0.00     0.292 C 
HETATM   12  N   UNL     1      27.099  42.494  50.115  1.00  0.00    -0.254 NA
HETATM   13  O   UNL     1      27.506  44.695  49.935  1.00  0.00    -0.254 OA
HETATM   14  H   UNL     1      27.487  41.716  50.627  1.00  0.00     0.128 HD
HETATM   15  H   UNL     1      27.274  42.466  49.118  1.00  0.00     0.128 HD
HETATM   16  H   UNL     1      26.727  42.916  52.393  1.00  0.00     0.164 HD
ENDBRANCH   2  10
ENDBRANCH   1   2
BRANCH   1  17
HETATM   17  C   UNL     1      25.622  46.702  52.720  1.00  0.00     0.224 C 
HETATM   18  N   UNL     1      25.518  46.523  51.353  1.00  0.00    -0.327 N 
HETATM   19  H   UNL     1      25.492  45.567  51.020  1.00  0.00     0.169 HD
HETATM   20  O   UNL     1      25.418  47.746  53.335  1.00  0.00    -0.273 OA
BRANCH  18  21
HETATM   21  C   UNL     1      25.394  47.525  50.369  1.00  0.00     0.035 A 
HETATM   22  C   UNL     1      24.166  48.023  49.919  1.00  0.00     0.042 A 
HETATM   23  C   UNL     1      24.106  49.063  48.976  1.00  0.00    -0.021 A 
HETATM   24  C   UNL     1      25.301  49.599  48.481  1.00  0.00     0.012 A 
HETATM   25  C   UNL     1      26.531  49.107  48.922  1.00  0.00     0.003 A 
HETATM   26  C   UNL     1      26.576  48.079  49.864  1.00  0.00     0.029 A 
BRANCH  23  27
HETATM   27  C   UNL     1      22.829  49.601  48.532  1.00  0.00     0.010 A 
HETATM   28  C   UNL     1      22.290  50.908  48.623  1.00  0.00     0.152 A 
HETATM   29  N   UNL     1      21.071  51.006  48.086  1.00  0.00    -0.187 NA
HETATM   30  N   UNL     1      20.820  49.760  47.654  1.00  0.00    -0.289 N 
HETATM   31  H   UNL     1      19.931  49.577  47.202  1.00  0.00     0.188 HD
HETATM   32  C   UNL     1      21.840  48.886  47.891  1.00  0.00     0.123 A 
ENDBRANCH  23  27
ENDBRANCH  18  21
ENDBRANCH   1  17
TORSDOF 6
ENDMDL
MODEL 5
REMARK VINA RESULT:      -9.1      2.630      8.595
REMARK  6 active torsions:
REMARK  status: ('A' for Active; 'I' for Inactive)
REMARK    1  A    between atoms: C_3  and  C_4 
REMARK    2  A    between atoms: C_4  and  N_5 
REMARK    3  A    between atoms: C_4  and  C_9 
REMARK       I    between atoms: N_5  and  C_6 
REMARK       I    between atoms: C_6  and  N_7 
REMARK    4  A    between atoms: C_9  and  C_10 
REMARK       I    between atoms: C_10  and  N_11 
REMARK    5  A    between atoms: N_11  and  C_12 
REMARK    6  A    between atoms: C_14  and  C_15 
ROOT
HETATM    1  C   UNL     1      26.211  44.990  52.628  1.00  0.00     0.133 C 
ENDROOT
BRANCH   1   2
HETATM    2  C   UNL     1      27.343  43.960  52.671  1.00  0.00     0.128 C 
BRANCH   2   3
HETATM    3  C   UNL     1      28.363  44.138  53.799  1.00  0.00    -0.029 A 
HETATM    4  C   UNL     1      29.590  43.445  53.910  1.00  0.00    -0.054 A 
HETATM    5  C   UNL     1      30.045  42.378  52.952  1.00  0.00     0.049 C 
HETATM    6  C   UNL     1      30.447  43.732  54.992  1.00  0.00     0.007 A 
HETATM    7  C   UNL     1      30.126  44.706  55.937  1.00  0.00     0.001 A 
HETATM    8  C   UNL     1      28.932  45.401  55.825  1.00  0.00     0.001 A 
HETATM    9  C   UNL     1      28.063  45.119  54.773  1.00  0.00     0.010 A 
ENDBRANCH   2   3
BRANCH   2  10
HETATM   10  N   UNL     1      26.948  42.553  52.576  1.00  0.00    -0.339 N 
HETATM   11  C   UNL     1      27.021  41.761  51.477  1.00  0.00     0.292 C 
HETATM   12  N   UNL     1      26.554  40.509  51.718  1.00  0.00    -0.254 NA
HETATM   13  O   UNL     1      27.448  42.073  50.377  1.00  0.00    -0.254 OA
HETATM   14  H   UNL     1      26.761  40.116  52.624  1.00  0.00     0.128 HD
HETATM   15  H   UNL     1      26.708  39.876  50.943  1.00  0.00     0.128 HD
HETATM   16  H   UNL     1      26.310  42.234  53.291  1.00  0.00     0.164 HD
ENDBRANCH   2  10
ENDBRANCH   1   2
BRANCH   1  17
HETATM   17  C   UNL     1      26.093  45.610  51.251  1.00  0.00     0.224 C 
HETATM   18  N   UNL     1      26.209  46.987  51.259  1.00  0.00    -0.327 N 
HETATM   19  H   UNL     1      26.577  47.408  52.103  1.00  0.00     0.169 HD
HETATM   20  O   UNL     1      25.915  44.900  50.264  1.00  0.00    -0.273 OA
BRANCH  18  21
HETATM   21  C   UNL     1      25.919  47.874  50.201  1.00  0.00     0.035 A 
HETATM   22  C   UNL     1      24.620  48.176  49.777  1.00  0.00     0.042 A 
HETATM   23  C   UNL     1      24.390  49.113  48.754  1.00  0.00    -0.021 A 
HETATM   24  C   UNL     1      25.487  49.742  48.153  1.00  0.00     0.012 A 
HETATM   25  C   UNL     1      26.786  49.444  48.568  1.00  0.00     0.003 A 
HETATM   26  C   UNL     1      26.999  48.519  49.590  1.00  0.00     0.029 A 
BRANCH  23  27
HETATM   27  C   UNL     1      23.039  49.449  48.335  1.00  0.00     0.010 A 
HETATM   28  C   UNL     1      21.978  48.631  47.873  1.00  0.00     0.152 A 
HETATM   29  N   UNL     1      20.873  49.325  47.589  1.00  0.00    -0.187 NA
HETATM   30  N   UNL     1      21.222  50.592  47.860  1.00  0.00    -0.289 N 
HETATM   31  H   UNL     1      20.533  51.323  47.714  1.00  0.00     0.188 HD
HETATM   32  C   UNL     1      22.501  50.720  48.314  1.00  0.00     0.123 A 
ENDBRANCH  23  27
ENDBRANCH  18  21
ENDBRANCH   1  17
TORSDOF 6
ENDMDL
MODEL 6
REMARK VINA RESULT:      -8.9      1.756      3.082
REMARK  6 active torsions:
REMARK  status: ('A' for Active; 'I' for Inactive)
REMARK    1  A    between atoms: C_3  and  C_4 
REMARK    2  A    between atoms: C_4  and  N_5 
REMARK    3  A    between atoms: C_4  and  C_9 
REMARK       I    between atoms: N_5  and  C_6 
REMARK       I    between atoms: C_6  and  N_7 
REMARK    4  A    between atoms: C_9  and  C_10 
REMARK       I    between atoms: C_10  and  N_11 
REMARK    5  A    between atoms: N_11  and  C_12 
REMARK    6  A    between atoms: C_14  and  C_15 
ROOT
HETATM    1  C   UNL     1      25.262  46.919  52.067  1.00  0.00     0.133 C 
ENDROOT
BRANCH   1   2
HETATM    2  C   UNL     1      25.697  46.871  50.600  1.00  0.00     0.128 C 
BRANCH   2   3
HETATM    3  C   UNL     1      24.749  46.137  49.648  1.00  0.00    -0.029 A 
HETATM    4  C   UNL     1      24.906  44.804  49.202  1.00  0.00    -0.054 A 
HETATM    5  C   UNL     1      26.076  43.928  49.558  1.00  0.00     0.049 C 
HETATM    6  C   UNL     1      23.935  44.246  48.345  1.00  0.00     0.007 A 
HETATM    7  C   UNL     1      22.808  44.967  47.953  1.00  0.00     0.001 A 
HETATM    8  C   UNL     1      22.639  46.269  48.400  1.00  0.00     0.001 A 
HETATM    9  C   UNL     1      23.596  46.845  49.233  1.00  0.00     0.010 A 
ENDBRANCH   2   3
BRANCH   2  10
HETATM   10  N   UNL     1      26.115  48.140  50.001  1.00  0.00    -0.339 N 
HETATM   11  C   UNL     1      27.173  48.339  49.175  1.00  0.00     0.292 C 
HETATM   12  N   UNL     1      27.299  49.641  48.812  1.00  0.00    -0.254 NA
HETATM   13  O   UNL     1      27.953  47.494  48.767  1.00  0.00    -0.254 OA
HETATM   14  H   UNL     1      26.444  50.151  48.649  1.00  0.00     0.128 HD
HETATM   15  H   UNL     1      28.012  49.786  48.108  1.00  0.00     0.128 HD
HETATM   16  H   UNL     1      25.771  48.970  50.462  1.00  0.00     0.164 HD
ENDBRANCH   2  10
ENDBRANCH   1   2
BRANCH   1  17
HETATM   17  C   UNL     1      25.886  45.785  52.855  1.00  0.00     0.224 C 
HETATM   18  N   UNL     1      27.201  46.023  53.208  1.00  0.00    -0.327 N 
HETATM   19  H   UNL     1      27.531  46.976  53.117  1.00  0.00     0.169 HD
HETATM   20  O   UNL     1      25.230  44.782  53.124  1.00  0.00    -0.273 OA
BRANCH  18  21
HETATM   21  C   UNL     1      28.125  45.095  53.731  1.00  0.00     0.035 A 
HETATM   22  C   UNL     1      28.857  45.307  54.904  1.00  0.00     0.042 A 
HETATM   23  C   UNL     1      29.722  44.320  55.408  1.00  0.00    -0.021 A 
HETATM   24  C   UNL     1      29.849  43.112  54.712  1.00  0.00     0.012 A 
HETATM   25  C   UNL     1      29.125  42.893  53.539  1.00  0.00     0.003 A 
HETATM   26  C   UNL     1      28.264  43.878  53.055  1.00  0.00     0.029 A 
BRANCH  23  27
HETATM   27  C   UNL     1      30.458  44.528  56.645  1.00  0.00     0.010 A 
HETATM   28  C   UNL     1      31.553  43.824  57.204  1.00  0.00     0.152 A 
HETATM   29  N   UNL     1      31.958  44.334  58.370  1.00  0.00    -0.187 NA
HETATM   30  N   UNL     1      31.120  45.364  58.568  1.00  0.00    -0.289 N 
HETATM   31  H   UNL     1      31.228  45.918  59.411  1.00  0.00     0.188 HD
HETATM   32  C   UNL     1      30.210  45.526  57.565  1.00  0.00     0.123 A 
ENDBRANCH  23  27
ENDBRANCH  18  21
ENDBRANCH   1  17
TORSDOF 6
ENDMDL
MODEL 7
REMARK VINA RESULT:      -8.8      9.461     13.990
REMARK  6 active torsions:
REMARK  status: ('A' for Active; 'I' for Inactive)
REMARK    1  A    between atoms: C_3  and  C_4 
REMARK    2  A    between atoms: C_4  and  N_5 
REMARK    3  A    between atoms: C_4  and  C_9 
REMARK       I    between atoms: N_5  and  C_6 
REMARK       I    between atoms: C_6  and  N_7 
REMARK    4  A    between atoms: C_9  and  C_10 
REMARK       I    between atoms: C_10  and  N_11 
REMARK    5  A    between atoms: N_11  and  C_12 
REMARK    6  A    between atoms: C_14  and  C_15 
ROOT
HETATM    1  C   UNL     1      18.966  51.999  49.251  1.00  0.00     0.133 C 
ENDROOT
BRANCH   1   2
HETATM    2  C   UNL     1      19.467  50.570  49.474  1.00  0.00     0.128 C 
BRANCH   2   3
HETATM    3  C   UNL     1      20.867  50.263  48.935  1.00  0.00    -0.029 A 
HETATM    4  C   UNL     1      21.210  49.150  48.133  1.00  0.00    -0.054 A 
HETATM    5  C   UNL     1      20.246  48.064  47.742  1.00  0.00     0.049 C 
HETATM    6  C   UNL     1      22.539  49.010  47.683  1.00  0.00     0.007 A 
HETATM    7  C   UNL     1      23.514  49.959  47.984  1.00  0.00     0.001 A 
HETATM    8  C   UNL     1      23.181  51.062  48.755  1.00  0.00     0.001 A 
HETATM    9  C   UNL     1      21.877  51.210  49.226  1.00  0.00     0.010 A 
ENDBRANCH   2   3
BRANCH   2  10
HETATM   10  N   UNL     1      19.329  50.034  50.830  1.00  0.00    -0.339 N 
HETATM   11  C   UNL     1      18.724  48.873  51.187  1.00  0.00     0.292 C 
HETATM   12  N   UNL     1      18.749  48.677  52.530  1.00  0.00    -0.254 NA
HETATM   13  O   UNL     1      18.204  48.059  50.442  1.00  0.00    -0.254 OA
HETATM   14  H   UNL     1      19.586  48.965  53.014  1.00  0.00     0.128 HD
HETATM   15  H   UNL     1      18.404  47.764  52.801  1.00  0.00     0.128 HD
HETATM   16  H   UNL     1      19.433  50.708  51.574  1.00  0.00     0.164 HD
ENDBRANCH   2  10
ENDBRANCH   1   2
BRANCH   1  17
HETATM   17  C   UNL     1      17.478  52.101  49.517  1.00  0.00     0.224 C 
HETATM   18  N   UNL     1      16.993  53.392  49.423  1.00  0.00    -0.327 N 
HETATM   19  H   UNL     1      17.596  54.073  48.978  1.00  0.00     0.169 HD
HETATM   20  O   UNL     1      16.825  51.095  49.781  1.00  0.00    -0.273 OA
BRANCH  18  21
HETATM   21  C   UNL     1      15.726  53.858  49.831  1.00  0.00     0.035 A 
HETATM   22  C   UNL     1      15.498  54.525  51.040  1.00  0.00     0.042 A 
HETATM   23  C   UNL     1      14.224  55.019  51.368  1.00  0.00    -0.021 A 
HETATM   24  C   UNL     1      13.171  54.829  50.465  1.00  0.00     0.012 A 
HETATM   25  C   UNL     1      13.389  54.161  49.258  1.00  0.00     0.003 A 
HETATM   26  C   UNL     1      14.660  53.684  48.942  1.00  0.00     0.029 A 
BRANCH  23  27
HETATM   27  C   UNL     1      13.995  55.740  52.611  1.00  0.00     0.010 A 
HETATM   28  C   UNL     1      12.795  56.068  53.286  1.00  0.00     0.152 A 
HETATM   29  N   UNL     1      13.004  56.743  54.420  1.00  0.00    -0.187 NA
HETATM   30  N   UNL     1      14.340  56.856  54.473  1.00  0.00    -0.289 N 
HETATM   31  H   UNL     1      14.751  57.346  55.260  1.00  0.00     0.188 HD
HETATM   32  C   UNL     1      14.978  56.269  53.420  1.00  0.00     0.123 A 
ENDBRANCH  23  27
ENDBRANCH  18  21
ENDBRANCH   1  17
TORSDOF 6
ENDMDL
MODEL 8
REMARK VINA RESULT:      -8.8      5.078      8.320
REMARK  6 active torsions:
REMARK  status: ('A' for Active; 'I' for Inactive)
REMARK    1  A    between atoms: C_3  and  C_4 
REMARK    2  A    between atoms: C_4  and  N_5 
REMARK    3  A    between atoms: C_4  and  C_9 
REMARK       I    between atoms: N_5  and  C_6 
REMARK       I    between atoms: C_6  and  N_7 
REMARK    4  A    between atoms: C_9  and  C_10 
REMARK       I    between atoms: C_10  and  N_11 
REMARK    5  A    between atoms: N_11  and  C_12 
REMARK    6  A    between atoms: C_14  and  C_15 
ROOT
HETATM    1  C   UNL     1      20.623  50.154  48.772  1.00  0.00     0.133 C 
ENDROOT
BRANCH   1   2
HETATM    2  C   UNL     1      19.661  50.754  49.800  1.00  0.00     0.128 C 
BRANCH   2   3
HETATM    3  C   UNL     1      18.340  51.291  49.241  1.00  0.00    -0.029 A 
HETATM    4  C   UNL     1      17.695  50.823  48.073  1.00  0.00    -0.054 A 
HETATM    5  C   UNL     1      18.253  49.757  47.171  1.00  0.00     0.049 C 
HETATM    6  C   UNL     1      16.463  51.395  47.692  1.00  0.00     0.007 A 
HETATM    7  C   UNL     1      15.853  52.387  48.457  1.00  0.00     0.001 A 
HETATM    8  C   UNL     1      16.472  52.839  49.612  1.00  0.00     0.001 A 
HETATM    9  C   UNL     1      17.698  52.301  49.996  1.00  0.00     0.010 A 
ENDBRANCH   2   3
BRANCH   2  10
HETATM   10  N   UNL     1      19.403  49.952  50.997  1.00  0.00    -0.339 N 
HETATM   11  C   UNL     1      18.721  48.781  51.060  1.00  0.00     0.292 C 
HETATM   12  N   UNL     1      18.642  48.303  52.328  1.00  0.00    -0.254 NA
HETATM   13  O   UNL     1      18.217  48.176  50.127  1.00  0.00    -0.254 OA
HETATM   14  H   UNL     1      19.455  48.431  52.911  1.00  0.00     0.128 HD
HETATM   15  H   UNL     1      18.236  47.377  52.374  1.00  0.00     0.128 HD
HETATM   16  H   UNL     1      19.485  50.446  51.874  1.00  0.00     0.164 HD
ENDBRANCH   2  10
ENDBRANCH   1   2
BRANCH   1  17
HETATM   17  C   UNL     1      22.050  50.188  49.279  1.00  0.00     0.224 C 
HETATM   18  N   UNL     1      22.938  49.517  48.460  1.00  0.00    -0.327 N 
HETATM   19  H   UNL     1      22.611  49.281  47.530  1.00  0.00     0.169 HD
HETATM   20  O   UNL     1      22.324  50.776  50.322  1.00  0.00    -0.273 OA
BRANCH  18  21
HETATM   21  C   UNL     1      24.272  49.165  48.754  1.00  0.00     0.035 A 
HETATM   22  C   UNL     1      24.631  48.021  49.475  1.00  0.00     0.042 A 
HETATM   23  C   UNL     1      25.981  47.692  49.689  1.00  0.00    -0.021 A 
HETATM   24  C   UNL     1      26.973  48.533  49.172  1.00  0.00     0.012 A 
HETATM   25  C   UNL     1      26.624  49.679  48.454  1.00  0.00     0.003 A 
HETATM   26  C   UNL     1      25.281  49.989  48.244  1.00  0.00     0.029 A 
BRANCH  23  27
HETATM   27  C   UNL     1      26.353  46.485  50.412  1.00  0.00     0.010 A 
HETATM   28  C   UNL     1      26.105  46.090  51.749  1.00  0.00     0.152 A 
HETATM   29  N   UNL     1      26.613  44.889  52.039  1.00  0.00    -0.187 NA
HETATM   30  N   UNL     1      27.196  44.512  50.890  1.00  0.00    -0.289 N 
HETATM   31  H   UNL     1      27.665  43.613  50.861  1.00  0.00     0.188 HD
HETATM   32  C   UNL     1      27.064  45.426  49.887  1.00  0.00     0.123 A 
ENDBRANCH  23  27
ENDBRANCH  18  21
ENDBRANCH   1  17
TORSDOF 6
ENDMDL
MODEL 9
REMARK VINA RESULT:      -8.6      2.564      8.386
REMARK  6 active torsions:
REMARK  status: ('A' for Active; 'I' for Inactive)
REMARK    1  A    between atoms: C_3  and  C_4 
REMARK    2  A    between atoms: C_4  and  N_5 
REMARK    3  A    between atoms: C_4  and  C_9 
REMARK       I    between atoms: N_5  and  C_6 
REMARK       I    between atoms: C_6  and  N_7 
REMARK    4  A    between atoms: C_9  and  C_10 
REMARK       I    between atoms: C_10  and  N_11 
REMARK    5  A    between atoms: N_11  and  C_12 
REMARK    6  A    between atoms: C_14  and  C_15 
ROOT
HETATM    1  C   UNL     1      27.310  44.305  53.437  1.00  0.00     0.133 C 
ENDROOT
BRANCH   1   2
HETATM    2  C   UNL     1      28.822  44.067  53.398  1.00  0.00     0.128 C 
BRANCH   2   3
HETATM    3  C   UNL     1      29.562  44.264  54.724  1.00  0.00    -0.029 A 
HETATM    4  C   UNL     1      29.411  45.373  55.589  1.00  0.00    -0.054 A 
HETATM    5  C   UNL     1      28.535  46.559  55.293  1.00  0.00     0.049 C 
HETATM    6  C   UNL     1      30.139  45.408  56.796  1.00  0.00     0.007 A 
HETATM    7  C   UNL     1      30.978  44.360  57.171  1.00  0.00     0.001 A 
HETATM    8  C   UNL     1      31.118  43.262  56.337  1.00  0.00     0.001 A 
HETATM    9  C   UNL     1      30.422  43.217  55.130  1.00  0.00     0.010 A 
ENDBRANCH   2   3
BRANCH   2  10
HETATM   10  N   UNL     1      29.271  42.828  52.759  1.00  0.00    -0.339 N 
HETATM   11  C   UNL     1      28.710  41.598  52.888  1.00  0.00     0.292 C 
HETATM   12  N   UNL     1      29.382  40.655  52.180  1.00  0.00    -0.254 NA
HETATM   13  O   UNL     1      27.722  41.309  53.543  1.00  0.00    -0.254 OA
HETATM   14  H   UNL     1      29.749  40.938  51.283  1.00  0.00     0.128 HD
HETATM   15  H   UNL     1      28.911  39.758  52.174  1.00  0.00     0.128 HD
HETATM   16  H   UNL     1      30.227  42.830  52.436  1.00  0.00     0.164 HD
ENDBRANCH   2  10
ENDBRANCH   1   2
BRANCH   1  17
HETATM   17  C   UNL     1      26.800  44.774  52.090  1.00  0.00     0.224 C 
HETATM   18  N   UNL     1      25.614  45.480  52.171  1.00  0.00    -0.327 N 
HETATM   19  H   UNL     1      25.339  45.803  53.090  1.00  0.00     0.169 HD
HETATM   20  O   UNL     1      27.428  44.520  51.066  1.00  0.00    -0.273 OA
BRANCH  18  21
HETATM   21  C   UNL     1      24.767  45.848  51.105  1.00  0.00     0.035 A 
HETATM   22  C   UNL     1      24.655  47.155  50.618  1.00  0.00     0.042 A 
HETATM   23  C   UNL     1      23.836  47.451  49.515  1.00  0.00    -0.021 A 
HETATM   24  C   UNL     1      23.120  46.414  48.906  1.00  0.00     0.012 A 
HETATM   25  C   UNL     1      23.222  45.108  49.387  1.00  0.00     0.003 A 
HETATM   26  C   UNL     1      24.045  44.827  50.478  1.00  0.00     0.029 A 
BRANCH  23  27
HETATM   27  C   UNL     1      23.746  48.805  48.990  1.00  0.00     0.010 A 
HETATM   28  C   UNL     1      24.614  49.530  48.137  1.00  0.00     0.152 A 
HETATM   29  N   UNL     1      24.174  50.763  47.874  1.00  0.00    -0.187 NA
HETATM   30  N   UNL     1      23.024  50.837  48.563  1.00  0.00    -0.289 N 
HETATM   31  H   UNL     1      22.494  51.701  48.523  1.00  0.00     0.188 HD
HETATM   32  C   UNL     1      22.721  49.693  49.240  1.00  0.00     0.123 A 
ENDBRANCH  23  27
ENDBRANCH  18  21
ENDBRANCH   1  17
TORSDOF 6
ENDMDL
MODEL 10
REMARK VINA RESULT:      -8.6      4.706      7.658
REMARK  6 active torsions:
REMARK  status: ('A' for Active; 'I' for Inactive)
REMARK    1  A    between atoms: C_3  and  C_4 
REMARK    2  A    between atoms: C_4  and  N_5 
REMARK    3  A    between atoms: C_4  and  C_9 
REMARK       I    between atoms: N_5  and  C_6 
REMARK       I    between atoms: C_6  and  N_7 
REMARK    4  A    between atoms: C_9  and  C_10 
REMARK       I    between atoms: C_10  and  N_11 
REMARK    5  A    between atoms: N_11  and  C_12 
REMARK    6  A    between atoms: C_14  and  C_15 
ROOT
HETATM    1  C   UNL     1      21.120  50.793  48.250  1.00  0.00     0.133 C 
ENDROOT
BRANCH   1   2
HETATM    2  C   UNL     1      20.103  49.679  48.512  1.00  0.00     0.128 C 
BRANCH   2   3
HETATM    3  C   UNL     1      20.216  48.448  47.608  1.00  0.00    -0.029 A 
HETATM    4  C   UNL     1      19.461  48.221  46.435  1.00  0.00    -0.054 A 
HETATM    5  C   UNL     1      18.383  49.144  45.935  1.00  0.00     0.049 C 
HETATM    6  C   UNL     1      19.692  47.051  45.682  1.00  0.00     0.007 A 
HETATM    7  C   UNL     1      20.670  46.129  46.052  1.00  0.00     0.001 A 
HETATM    8  C   UNL     1      21.426  46.353  47.192  1.00  0.00     0.001 A 
HETATM    9  C   UNL     1      21.200  47.494  47.960  1.00  0.00     0.010 A 
ENDBRANCH   2   3
BRANCH   2  10
HETATM   10  N   UNL     1      19.941  49.258  49.905  1.00  0.00    -0.339 N 
HETATM   11  C   UNL     1      18.947  49.623  50.754  1.00  0.00     0.292 C 
HETATM   12  N   UNL     1      19.100  49.073  51.985  1.00  0.00    -0.254 NA
HETATM   13  O   UNL     1      18.000  50.351  50.503  1.00  0.00    -0.254 OA
HETATM   14  H   UNL     1      19.454  48.129  52.019  1.00  0.00     0.128 HD
HETATM   15  H   UNL     1      18.308  49.244  52.593  1.00  0.00     0.128 HD
HETATM   16  H   UNL     1      20.776  48.908  50.351  1.00  0.00     0.164 HD
ENDBRANCH   2  10
ENDBRANCH   1   2
BRANCH   1  17
HETATM   17  C   UNL     1      22.407  50.542  49.008  1.00  0.00     0.224 C 
HETATM   18  N   UNL     1      23.428  50.061  48.209  1.00  0.00    -0.327 N 
HETATM   19  H   UNL     1      23.298  50.142  47.208  1.00  0.00     0.169 HD
HETATM   20  O   UNL     1      22.471  50.769  50.214  1.00  0.00    -0.273 OA
BRANCH  18  21
HETATM   21  C   UNL     1      24.657  49.515  48.633  1.00  0.00     0.035 A 
HETATM   22  C   UNL     1      24.767  48.326  49.361  1.00  0.00     0.042 A 
HETATM   23  C   UNL     1      26.024  47.800  49.706  1.00  0.00    -0.021 A 
HETATM   24  C   UNL     1      27.177  48.489  49.314  1.00  0.00     0.012 A 
HETATM   25  C   UNL     1      27.077  49.678  48.590  1.00  0.00     0.003 A 
HETATM   26  C   UNL     1      25.823  50.185  48.248  1.00  0.00     0.029 A 
BRANCH  23  27
HETATM   27  C   UNL     1      26.138  46.546  50.436  1.00  0.00     0.010 A 
HETATM   28  C   UNL     1      26.843  45.356  50.133  1.00  0.00     0.152 A 
HETATM   29  N   UNL     1      26.703  44.415  51.071  1.00  0.00    -0.187 NA
HETATM   30  N   UNL     1      25.902  44.997  51.978  1.00  0.00    -0.289 N 
HETATM   31  H   UNL     1      25.642  44.465  52.802  1.00  0.00     0.188 HD
HETATM   32  C   UNL     1      25.542  46.271  51.649  1.00  0.00     0.123 A 
ENDBRANCH  23  27
ENDBRANCH  18  21
ENDBRANCH   1  17
TORSDOF 6
ENDMDL
