MODEL 1
REMARK VINA RESULT:      -7.8      0.000      0.000
REMARK  5 active torsions:
REMARK  status: ('A' for Active; 'I' for Inactive)
REMARK    1  A    between atoms: C_12  and  N_13 
REMARK    2  A    between atoms: N_13  and  C_14 
REMARK    3  A    between atoms: C_14  and  C_15 
REMARK    4  A    between atoms: C_15  and  N_16 
REMARK       I    between atoms: N_16  and  C_17 
REMARK    5  A    between atoms: C_17  and  C_18 
ROOT
HETATM    1  C   UNL     1      30.379  43.099  55.040  1.00  0.00     0.025 A 
HETATM    2  C   UNL     1      30.777  43.888  56.112  1.00  0.00     0.036 A 
HETATM    3 CL   UNL     1      32.117  43.415  57.075  1.00  0.00    -0.084 Cl
HETATM    4  C   UNL     1      30.102  45.069  56.407  1.00  0.00     0.054 A 
HETATM    5  C   UNL     1      29.013  45.466  55.618  1.00  0.00     0.046 A 
HETATM    6  C   UNL     1      28.572  44.678  54.525  1.00  0.00     0.017 A 
HETATM    7  C   UNL     1      29.291  43.492  54.254  1.00  0.00     0.018 A 
HETATM    8  N   UNL     1      28.384  46.623  55.890  1.00  0.00    -0.365 N 
HETATM    9  H   UNL     1      28.713  47.188  56.672  1.00  0.00     0.165 HD
HETATM   10  C   UNL     1      27.358  47.083  55.166  1.00  0.00     0.090 A 
HETATM   11  C   UNL     1      26.886  46.358  54.085  1.00  0.00     0.047 A 
HETATM   12  C   UNL     1      27.466  45.130  53.749  1.00  0.00     0.042 A 
ENDROOT
BRANCH  12  13
HETATM   13  N   UNL     1      27.069  44.412  52.622  1.00  0.00    -0.388 N 
HETATM   14  H   UNL     1      27.679  43.634  52.377  1.00  0.00     0.159 HD
BRANCH  13  15
HETATM   15  C   UNL     1      25.663  44.194  52.266  1.00  0.00     0.139 C 
BRANCH  15  16
HETATM   16  C   UNL     1      25.329  44.916  50.947  1.00  0.00     0.142 C 
BRANCH  16  17
HETATM   17  N   UNL     1      25.690  46.321  50.927  1.00  0.00    -0.359 N 
HETATM   18  C   UNL     1      26.609  46.801  50.023  1.00  0.00     0.221 C 
HETATM   19  O   UNL     1      27.305  46.092  49.309  1.00  0.00    -0.273 OA
HETATM   20  H   UNL     1      25.044  46.987  51.332  1.00  0.00     0.162 HD
BRANCH  18  21
HETATM   21  C   UNL     1      26.669  48.285  49.942  1.00  0.00     0.078 A 
HETATM   22  C   UNL     1      27.453  48.969  48.846  1.00  0.00     0.015 A 
HETATM   23  C   UNL     1      25.952  48.990  48.813  1.00  0.00     0.015 A 
ENDBRANCH  18  21
ENDBRANCH  16  17
ENDBRANCH  15  16
ENDBRANCH  13  15
ENDBRANCH  12  13
TORSDOF 5
ENDMDL
MODEL 2
REMARK VINA RESULT:      -7.5      1.473      2.394
REMARK  5 active torsions:
REMARK  status: ('A' for Active; 'I' for Inactive)
REMARK    1  A    between atoms: C_12  and  N_13 
REMARK    2  A    between atoms: N_13  and  C_14 
REMARK    3  A    between atoms: C_14  and  C_15 
REMARK    4  A    between atoms: C_15  and  N_16 
REMARK       I    between atoms: N_16  and  C_17 
REMARK    5  A    between atoms: C_17  and  C_18 
ROOT
HETATM    1  C   UNL     1      28.576  46.078  56.285  1.00  0.00     0.025 A 
HETATM    2  C   UNL     1      29.795  45.601  56.752  1.00  0.00     0.036 A 
HETATM    3 CL   UNL     1      30.463  46.228  58.204  1.00  0.00    -0.084 Cl
HETATM    4  C   UNL     1      30.476  44.606  56.056  1.00  0.00     0.054 A 
HETATM    5  C   UNL     1      29.931  44.084  54.875  1.00  0.00     0.046 A 
HETATM    6  C   UNL     1      28.696  44.556  54.362  1.00  0.00     0.017 A 
HETATM    7  C   UNL     1      28.033  45.560  55.106  1.00  0.00     0.018 A 
HETATM    8  N   UNL     1      30.579  43.102  54.223  1.00  0.00    -0.365 N 
HETATM    9  H   UNL     1      31.462  42.762  54.603  1.00  0.00     0.165 HD
HETATM   10  C   UNL     1      30.109  42.532  53.108  1.00  0.00     0.090 A 
HETATM   11  C   UNL     1      28.907  42.952  52.564  1.00  0.00     0.047 A 
HETATM   12  C   UNL     1      28.181  43.986  53.164  1.00  0.00     0.042 A 
ENDROOT
BRANCH  12  13
HETATM   13  N   UNL     1      26.931  44.380  52.689  1.00  0.00    -0.388 N 
HETATM   14  H   UNL     1      26.663  45.332  52.934  1.00  0.00     0.159 HD
BRANCH  13  15
HETATM   15  C   UNL     1      26.382  43.924  51.407  1.00  0.00     0.139 C 
BRANCH  15  16
HETATM   16  C   UNL     1      25.330  44.925  50.892  1.00  0.00     0.142 C 
BRANCH  16  17
HETATM   17  N   UNL     1      25.757  46.312  50.928  1.00  0.00    -0.359 N 
HETATM   18  C   UNL     1      26.640  46.803  49.994  1.00  0.00     0.221 C 
HETATM   19  O   UNL     1      27.255  46.107  49.197  1.00  0.00    -0.273 OA
HETATM   20  H   UNL     1      25.171  46.980  51.411  1.00  0.00     0.162 HD
BRANCH  18  21
HETATM   21  C   UNL     1      26.766  48.284  49.993  1.00  0.00     0.078 A 
HETATM   22  C   UNL     1      27.753  48.976  49.081  1.00  0.00     0.015 A 
HETATM   23  C   UNL     1      26.283  49.064  48.791  1.00  0.00     0.015 A 
ENDBRANCH  18  21
ENDBRANCH  16  17
ENDBRANCH  15  16
ENDBRANCH  13  15
ENDBRANCH  12  13
TORSDOF 5
ENDMDL
MODEL 3
REMARK VINA RESULT:      -7.4      2.178      3.669
REMARK  5 active torsions:
REMARK  status: ('A' for Active; 'I' for Inactive)
REMARK    1  A    between atoms: C_12  and  N_13 
REMARK    2  A    between atoms: N_13  and  C_14 
REMARK    3  A    between atoms: C_14  and  C_15 
REMARK    4  A    between atoms: C_15  and  N_16 
REMARK       I    between atoms: N_16  and  C_17 
REMARK    5  A    between atoms: C_17  and  C_18 
ROOT
HETATM    1  C   UNL     1      30.364  43.135  55.060  1.00  0.00     0.025 A 
HETATM    2  C   UNL     1      30.801  43.899  56.135  1.00  0.00     0.036 A 
HETATM    3 CL   UNL     1      32.146  43.379  57.067  1.00  0.00    -0.084 Cl
HETATM    4  C   UNL     1      30.162  45.093  56.458  1.00  0.00     0.054 A 
HETATM    5  C   UNL     1      29.070  45.527  55.695  1.00  0.00     0.046 A 
HETATM    6  C   UNL     1      28.588  44.766  54.599  1.00  0.00     0.017 A 
HETATM    7  C   UNL     1      29.272  43.565  54.300  1.00  0.00     0.018 A 
HETATM    8  N   UNL     1      28.475  46.697  55.992  1.00  0.00    -0.365 N 
HETATM    9  H   UNL     1      28.833  47.242  56.776  1.00  0.00     0.165 HD
HETATM   10  C   UNL     1      27.448  47.192  55.294  1.00  0.00     0.090 A 
HETATM   11  C   UNL     1      26.938  46.493  54.213  1.00  0.00     0.047 A 
HETATM   12  C   UNL     1      27.480  45.256  53.850  1.00  0.00     0.042 A 
ENDROOT
BRANCH  12  13
HETATM   13  N   UNL     1      27.044  44.563  52.721  1.00  0.00    -0.388 N 
HETATM   14  H   UNL     1      27.019  43.551  52.828  1.00  0.00     0.159 HD
BRANCH  13  15
HETATM   15  C   UNL     1      26.025  45.086  51.806  1.00  0.00     0.139 C 
BRANCH  15  16
HETATM   16  C   UNL     1      25.015  43.981  51.445  1.00  0.00     0.142 C 
BRANCH  16  17
HETATM   17  N   UNL     1      25.526  42.631  51.600  1.00  0.00    -0.359 N 
HETATM   18  C   UNL     1      26.290  42.047  50.616  1.00  0.00     0.221 C 
HETATM   19  O   UNL     1      26.450  42.521  49.499  1.00  0.00    -0.273 OA
HETATM   20  H   UNL     1      25.607  42.255  52.536  1.00  0.00     0.162 HD
BRANCH  18  21
HETATM   21  C   UNL     1      26.961  40.787  51.030  1.00  0.00     0.078 A 
HETATM   22  C   UNL     1      28.126  40.235  50.242  1.00  0.00     0.015 A 
HETATM   23  C   UNL     1      28.364  40.849  51.591  1.00  0.00     0.015 A 
ENDBRANCH  18  21
ENDBRANCH  16  17
ENDBRANCH  15  16
ENDBRANCH  13  15
ENDBRANCH  12  13
TORSDOF 5
ENDMDL
MODEL 4
REMARK VINA RESULT:      -7.3      3.147      4.340
REMARK  5 active torsions:
REMARK  status: ('A' for Active; 'I' for Inactive)
REMARK    1  A    between atoms: C_12  and  N_13 
REMARK    2  A    between atoms: N_13  and  C_14 
REMARK    3  A    between atoms: C_14  and  C_15 
REMARK    4  A    between atoms: C_15  and  N_16 
REMARK       I    between atoms: N_16  and  C_17 
REMARK    5  A    between atoms: C_17  and  C_18 
ROOT
HETATM    1  C   UNL     1      26.579  45.989  54.397  1.00  0.00     0.025 A 
HETATM    2  C   UNL     1      27.167  47.012  55.131  1.00  0.00     0.036 A 
HETATM    3 CL   UNL     1      26.332  48.495  55.358  1.00  0.00    -0.084 Cl
HETATM    4  C   UNL     1      28.428  46.840  55.695  1.00  0.00     0.054 A 
HETATM    5  C   UNL     1      29.110  45.628  55.520  1.00  0.00     0.046 A 
HETATM    6  C   UNL     1      28.546  44.567  54.766  1.00  0.00     0.017 A 
HETATM    7  C   UNL     1      27.260  44.781  54.219  1.00  0.00     0.018 A 
HETATM    8  N   UNL     1      30.315  45.456  56.093  1.00  0.00    -0.365 N 
HETATM    9  H   UNL     1      30.710  46.220  56.641  1.00  0.00     0.165 HD
HETATM   10  C   UNL     1      31.013  44.319  55.998  1.00  0.00     0.090 A 
HETATM   11  C   UNL     1      30.510  43.250  55.276  1.00  0.00     0.047 A 
HETATM   12  C   UNL     1      29.276  43.353  54.626  1.00  0.00     0.042 A 
ENDROOT
BRANCH  12  13
HETATM   13  N   UNL     1      28.703  42.272  53.958  1.00  0.00    -0.388 N 
HETATM   14  H   UNL     1      27.692  42.198  54.057  1.00  0.00     0.159 HD
BRANCH  13  15
HETATM   15  C   UNL     1      29.210  41.762  52.679  1.00  0.00     0.139 C 
BRANCH  15  16
HETATM   16  C   UNL     1      28.042  41.288  51.794  1.00  0.00     0.142 C 
BRANCH  16  17
HETATM   17  N   UNL     1      26.782  41.960  52.056  1.00  0.00    -0.359 N 
HETATM   18  C   UNL     1      26.376  43.024  51.285  1.00  0.00     0.221 C 
HETATM   19  O   UNL     1      27.086  43.588  50.464  1.00  0.00    -0.273 OA
HETATM   20  H   UNL     1      26.069  41.456  52.568  1.00  0.00     0.162 HD
BRANCH  18  21
HETATM   21  C   UNL     1      24.960  43.426  51.496  1.00  0.00     0.078 A 
HETATM   22  C   UNL     1      24.340  44.535  50.678  1.00  0.00     0.015 A 
HETATM   23  C   UNL     1      23.938  43.110  50.427  1.00  0.00     0.015 A 
ENDBRANCH  18  21
ENDBRANCH  16  17
ENDBRANCH  15  16
ENDBRANCH  13  15
ENDBRANCH  12  13
TORSDOF 5
ENDMDL
MODEL 5
REMARK VINA RESULT:      -7.3      4.120      6.160
REMARK  5 active torsions:
REMARK  status: ('A' for Active; 'I' for Inactive)
REMARK    1  A    between atoms: C_12  and  N_13 
REMARK    2  A    between atoms: N_13  and  C_14 
REMARK    3  A    between atoms: C_14  and  C_15 
REMARK    4  A    between atoms: C_15  and  N_16 
REMARK       I    between atoms: N_16  and  C_17 
REMARK    5  A    between atoms: C_17  and  C_18 
ROOT
HETATM    1  C   UNL     1      26.722  45.823  54.096  1.00  0.00     0.025 A 
HETATM    2  C   UNL     1      27.088  46.893  54.903  1.00  0.00     0.036 A 
HETATM    3 CL   UNL     1      26.094  48.292  54.977  1.00  0.00    -0.084 Cl
HETATM    4  C   UNL     1      28.252  46.837  55.663  1.00  0.00     0.054 A 
HETATM    5  C   UNL     1      29.063  45.694  55.613  1.00  0.00     0.046 A 
HETATM    6  C   UNL     1      28.727  44.589  54.791  1.00  0.00     0.017 A 
HETATM    7  C   UNL     1      27.531  44.684  54.043  1.00  0.00     0.018 A 
HETATM    8  N   UNL     1      30.171  45.633  56.374  1.00  0.00    -0.365 N 
HETATM    9  H   UNL     1      30.401  46.428  56.969  1.00  0.00     0.165 HD
HETATM   10  C   UNL     1      30.977  44.567  56.403  1.00  0.00     0.090 A 
HETATM   11  C   UNL     1      30.697  43.458  55.623  1.00  0.00     0.047 A 
HETATM   12  C   UNL     1      29.579  43.449  54.783  1.00  0.00     0.042 A 
ENDROOT
BRANCH  12  13
HETATM   13  N   UNL     1      29.223  42.321  54.044  1.00  0.00    -0.388 N 
HETATM   14  H   UNL     1      28.317  41.923  54.285  1.00  0.00     0.159 HD
BRANCH  13  15
HETATM   15  C   UNL     1      29.593  42.137  52.637  1.00  0.00     0.139 C 
BRANCH  15  16
HETATM   16  C   UNL     1      28.451  41.442  51.872  1.00  0.00     0.142 C 
BRANCH  16  17
HETATM   17  N   UNL     1      28.776  40.111  51.393  1.00  0.00    -0.359 N 
HETATM   18  C   UNL     1      28.507  39.742  50.095  1.00  0.00     0.221 C 
HETATM   19  O   UNL     1      27.837  40.409  49.316  1.00  0.00    -0.273 OA
HETATM   20  H   UNL     1      29.483  39.583  51.890  1.00  0.00     0.162 HD
BRANCH  18  21
HETATM   21  C   UNL     1      29.138  38.462  49.680  1.00  0.00     0.078 A 
HETATM   22  C   UNL     1      29.721  37.519  50.707  1.00  0.00     0.015 A 
HETATM   23  C   UNL     1      28.443  37.159  50.006  1.00  0.00     0.015 A 
ENDBRANCH  18  21
ENDBRANCH  16  17
ENDBRANCH  15  16
ENDBRANCH  13  15
ENDBRANCH  12  13
TORSDOF 5
ENDMDL
MODEL 6
REMARK VINA RESULT:      -7.3      2.026      2.509
REMARK  5 active torsions:
REMARK  status: ('A' for Active; 'I' for Inactive)
REMARK    1  A    between atoms: C_12  and  N_13 
REMARK    2  A    between atoms: N_13  and  C_14 
REMARK    3  A    between atoms: C_14  and  C_15 
REMARK    4  A    between atoms: C_15  and  N_16 
REMARK       I    between atoms: N_16  and  C_17 
REMARK    5  A    between atoms: C_17  and  C_18 
ROOT
HETATM    1  C   UNL     1      29.046  43.510  53.621  1.00  0.00     0.025 A 
HETATM    2  C   UNL     1      29.454  44.062  54.828  1.00  0.00     0.036 A 
HETATM    3 CL   UNL     1      30.738  43.340  55.712  1.00  0.00    -0.084 Cl
HETATM    4  C   UNL     1      28.838  45.207  55.325  1.00  0.00     0.054 A 
HETATM    5  C   UNL     1      27.796  45.807  54.603  1.00  0.00     0.046 A 
HETATM    6  C   UNL     1      27.344  45.262  53.374  1.00  0.00     0.017 A 
HETATM    7  C   UNL     1      28.004  44.105  52.901  1.00  0.00     0.018 A 
HETATM    8  N   UNL     1      27.224  46.930  55.073  1.00  0.00    -0.365 N 
HETATM    9  H   UNL     1      27.561  47.320  55.953  1.00  0.00     0.165 HD
HETATM   10  C   UNL     1      26.247  47.576  54.428  1.00  0.00     0.090 A 
HETATM   11  C   UNL     1      25.768  47.092  53.223  1.00  0.00     0.047 A 
HETATM   12  C   UNL     1      26.289  45.915  52.676  1.00  0.00     0.042 A 
ENDROOT
BRANCH  12  13
HETATM   13  N   UNL     1      25.886  45.442  51.427  1.00  0.00    -0.388 N 
HETATM   14  H   UNL     1      26.485  44.718  51.034  1.00  0.00     0.159 HD
BRANCH  13  15
HETATM   15  C   UNL     1      24.479  45.323  51.033  1.00  0.00     0.139 C 
BRANCH  15  16
HETATM   16  C   UNL     1      24.269  45.908  49.623  1.00  0.00     0.142 C 
BRANCH  16  17
HETATM   17  N   UNL     1      23.355  47.034  49.574  1.00  0.00    -0.359 N 
HETATM   18  C   UNL     1      23.827  48.325  49.513  1.00  0.00     0.221 C 
HETATM   19  O   UNL     1      25.001  48.635  49.669  1.00  0.00    -0.273 OA
HETATM   20  H   UNL     1      22.409  46.869  49.254  1.00  0.00     0.162 HD
BRANCH  18  21
HETATM   21  C   UNL     1      22.789  49.341  49.194  1.00  0.00     0.078 A 
HETATM   22  C   UNL     1      23.143  50.808  49.108  1.00  0.00     0.015 A 
HETATM   23  C   UNL     1      22.833  50.042  47.855  1.00  0.00     0.015 A 
ENDBRANCH  18  21
ENDBRANCH  16  17
ENDBRANCH  15  16
ENDBRANCH  13  15
ENDBRANCH  12  13
TORSDOF 5
ENDMDL
MODEL 7
REMARK VINA RESULT:      -7.2      2.609      4.177
REMARK  5 active torsions:
REMARK  status: ('A' for Active; 'I' for Inactive)
REMARK    1  A    between atoms: C_12  and  N_13 
REMARK    2  A    between atoms: N_13  and  C_14 
REMARK    3  A    between atoms: C_14  and  C_15 
REMARK    4  A    between atoms: C_15  and  N_16 
REMARK       I    between atoms: N_16  and  C_17 
REMARK    5  A    between atoms: C_17  and  C_18 
ROOT
HETATM    1  C   UNL     1      28.605  43.878  54.613  1.00  0.00     0.025 A 
HETATM    2  C   UNL     1      29.808  43.197  54.479  1.00  0.00     0.036 A 
HETATM    3 CL   UNL     1      31.088  43.490  55.587  1.00  0.00    -0.084 Cl
HETATM    4  C   UNL     1      29.983  42.268  53.458  1.00  0.00     0.054 A 
HETATM    5  C   UNL     1      28.939  42.018  52.558  1.00  0.00     0.046 A 
HETATM    6  C   UNL     1      27.701  42.704  52.656  1.00  0.00     0.017 A 
HETATM    7  C   UNL     1      27.563  43.632  53.714  1.00  0.00     0.018 A 
HETATM    8  N   UNL     1      29.102  41.096  51.591  1.00  0.00    -0.365 N 
HETATM    9  H   UNL     1      29.991  40.601  51.532  1.00  0.00     0.165 HD
HETATM   10  C   UNL     1      28.143  40.781  50.714  1.00  0.00     0.090 A 
HETATM   11  C   UNL     1      26.915  41.417  50.764  1.00  0.00     0.047 A 
HETATM   12  C   UNL     1      26.669  42.407  51.721  1.00  0.00     0.042 A 
ENDROOT
BRANCH  12  13
HETATM   13  N   UNL     1      25.419  43.011  51.851  1.00  0.00    -0.388 N 
HETATM   14  H   UNL     1      25.177  43.285  52.802  1.00  0.00     0.159 HD
BRANCH  13  15
HETATM   15  C   UNL     1      24.838  43.878  50.821  1.00  0.00     0.139 C 
BRANCH  15  16
HETATM   16  C   UNL     1      24.585  45.286  51.390  1.00  0.00     0.142 C 
BRANCH  16  17
HETATM   17  N   UNL     1      25.200  45.528  52.682  1.00  0.00    -0.359 N 
HETATM   18  C   UNL     1      25.831  46.721  52.952  1.00  0.00     0.221 C 
HETATM   19  O   UNL     1      26.077  47.574  52.110  1.00  0.00    -0.273 OA
HETATM   20  H   UNL     1      24.885  44.979  53.472  1.00  0.00     0.162 HD
BRANCH  18  21
HETATM   21  C   UNL     1      26.165  46.924  54.387  1.00  0.00     0.078 A 
HETATM   22  C   UNL     1      27.467  47.575  54.793  1.00  0.00     0.015 A 
HETATM   23  C   UNL     1      26.177  48.328  54.948  1.00  0.00     0.015 A 
ENDBRANCH  18  21
ENDBRANCH  16  17
ENDBRANCH  15  16
ENDBRANCH  13  15
ENDBRANCH  12  13
TORSDOF 5
ENDMDL
MODEL 8
REMARK VINA RESULT:      -7.0      2.089      3.520
REMARK  5 active torsions:
REMARK  status: ('A' for Active; 'I' for Inactive)
REMARK    1  A    between atoms: C_12  and  N_13 
REMARK    2  A    between atoms: N_13  and  C_14 
REMARK    3  A    between atoms: C_14  and  C_15 
REMARK    4  A    between atoms: C_15  and  N_16 
REMARK       I    between atoms: N_16  and  C_17 
REMARK    5  A    between atoms: C_17  and  C_18 
ROOT
HETATM    1  C   UNL     1      28.574  43.676  53.676  1.00  0.00     0.025 A 
HETATM    2  C   UNL     1      29.380  44.079  54.733  1.00  0.00     0.036 A 
HETATM    3 CL   UNL     1      30.725  43.119  55.201  1.00  0.00    -0.084 Cl
HETATM    4  C   UNL     1      29.114  45.265  55.412  1.00  0.00     0.054 A 
HETATM    5  C   UNL     1      28.023  46.057  55.028  1.00  0.00     0.046 A 
HETATM    6  C   UNL     1      27.171  45.670  53.962  1.00  0.00     0.017 A 
HETATM    7  C   UNL     1      27.484  44.464  53.294  1.00  0.00     0.018 A 
HETATM    8  N   UNL     1      27.788  47.217  55.667  1.00  0.00    -0.365 N 
HETATM    9  H   UNL     1      28.410  47.492  56.426  1.00  0.00     0.165 HD
HETATM   10  C   UNL     1      26.787  48.041  55.339  1.00  0.00     0.090 A 
HETATM   11  C   UNL     1      25.925  47.715  54.306  1.00  0.00     0.047 A 
HETATM   12  C   UNL     1      26.083  46.515  53.605  1.00  0.00     0.042 A 
ENDROOT
BRANCH  12  13
HETATM   13  N   UNL     1      25.283  46.193  52.509  1.00  0.00    -0.388 N 
HETATM   14  H   UNL     1      24.286  46.144  52.710  1.00  0.00     0.159 HD
BRANCH  13  15
HETATM   15  C   UNL     1      25.589  46.624  51.141  1.00  0.00     0.139 C 
BRANCH  15  16
HETATM   16  C   UNL     1      24.946  45.663  50.123  1.00  0.00     0.142 C 
BRANCH  16  17
HETATM   17  N   UNL     1      25.600  44.371  50.026  1.00  0.00    -0.359 N 
HETATM   18  C   UNL     1      25.124  43.284  50.722  1.00  0.00     0.221 C 
HETATM   19  O   UNL     1      24.258  43.346  51.584  1.00  0.00    -0.273 OA
HETATM   20  H   UNL     1      26.180  44.188  49.216  1.00  0.00     0.162 HD
BRANCH  18  21
HETATM   21  C   UNL     1      25.723  41.986  50.312  1.00  0.00     0.078 A 
HETATM   22  C   UNL     1      27.139  41.919  49.789  1.00  0.00     0.015 A 
HETATM   23  C   UNL     1      26.825  41.385  51.156  1.00  0.00     0.015 A 
ENDBRANCH  18  21
ENDBRANCH  16  17
ENDBRANCH  15  16
ENDBRANCH  13  15
ENDBRANCH  12  13
TORSDOF 5
ENDMDL
MODEL 9
REMARK VINA RESULT:      -7.0      4.227      8.105
REMARK  5 active torsions:
REMARK  status: ('A' for Active; 'I' for Inactive)
REMARK    1  A    between atoms: C_12  and  N_13 
REMARK    2  A    between atoms: N_13  and  C_14 
REMARK    3  A    between atoms: C_14  and  C_15 
REMARK    4  A    between atoms: C_15  and  N_16 
REMARK       I    between atoms: N_16  and  C_17 
REMARK    5  A    between atoms: C_17  and  C_18 
ROOT
HETATM    1  C   UNL     1      22.417  48.591  49.023  1.00  0.00     0.025 A 
HETATM    2  C   UNL     1      22.511  49.691  48.179  1.00  0.00     0.036 A 
HETATM    3 CL   UNL     1      21.087  50.404  47.536  1.00  0.00    -0.084 Cl
HETATM    4  C   UNL     1      23.754  50.229  47.857  1.00  0.00     0.054 A 
HETATM    5  C   UNL     1      24.919  49.657  48.386  1.00  0.00     0.046 A 
HETATM    6  C   UNL     1      24.862  48.526  49.240  1.00  0.00     0.017 A 
HETATM    7  C   UNL     1      23.579  48.018  49.549  1.00  0.00     0.018 A 
HETATM    8  N   UNL     1      26.115  50.200  48.096  1.00  0.00    -0.365 N 
HETATM    9  H   UNL     1      26.147  51.018  47.488  1.00  0.00     0.165 HD
HETATM   10  C   UNL     1      27.268  49.730  48.586  1.00  0.00     0.090 A 
HETATM   11  C   UNL     1      27.272  48.630  49.426  1.00  0.00     0.047 A 
HETATM   12  C   UNL     1      26.074  47.989  49.758  1.00  0.00     0.042 A 
ENDROOT
BRANCH  12  13
HETATM   13  N   UNL     1      26.033  46.928  50.663  1.00  0.00    -0.388 N 
HETATM   14  H   UNL     1      25.266  46.971  51.332  1.00  0.00     0.159 HD
BRANCH  13  15
HETATM   15  C   UNL     1      26.438  45.563  50.314  1.00  0.00     0.139 C 
BRANCH  15  16
HETATM   16  C   UNL     1      26.000  44.579  51.416  1.00  0.00     0.142 C 
BRANCH  16  17
HETATM   17  N   UNL     1      26.898  44.519  52.554  1.00  0.00    -0.359 N 
HETATM   18  C   UNL     1      26.648  45.252  53.691  1.00  0.00     0.221 C 
HETATM   19  O   UNL     1      25.786  46.117  53.775  1.00  0.00    -0.273 OA
HETATM   20  H   UNL     1      27.503  43.712  52.644  1.00  0.00     0.162 HD
BRANCH  18  21
HETATM   21  C   UNL     1      27.494  44.880  54.856  1.00  0.00     0.078 A 
HETATM   22  C   UNL     1      28.845  44.234  54.656  1.00  0.00     0.015 A 
HETATM   23  C   UNL     1      28.763  45.659  55.123  1.00  0.00     0.015 A 
ENDBRANCH  18  21
ENDBRANCH  16  17
ENDBRANCH  15  16
ENDBRANCH  13  15
ENDBRANCH  12  13
TORSDOF 5
ENDMDL
MODEL 10
REMARK VINA RESULT:      -7.0     12.419     13.881
REMARK  5 active torsions:
REMARK  status: ('A' for Active; 'I' for Inactive)
REMARK    1  A    between atoms: C_12  and  N_13 
REMARK    2  A    between atoms: N_13  and  C_14 
REMARK    3  A    between atoms: C_14  and  C_15 
REMARK    4  A    between atoms: C_15  and  N_16 
REMARK       I    between atoms: N_16  and  C_17 
REMARK    5  A    between atoms: C_17  and  C_18 
ROOT
HETATM    1  C   UNL     1      31.944  50.227  43.242  1.00  0.00     0.025 A 
HETATM    2  C   UNL     1      32.851  51.257  43.023  1.00  0.00     0.036 A 
HETATM    3 CL   UNL     1      33.704  51.946  44.344  1.00  0.00    -0.084 Cl
HETATM    4  C   UNL     1      33.082  51.730  41.734  1.00  0.00     0.054 A 
HETATM    5  C   UNL     1      32.395  51.166  40.651  1.00  0.00     0.046 A 
HETATM    6  C   UNL     1      31.453  50.122  40.839  1.00  0.00     0.017 A 
HETATM    7  C   UNL     1      31.256  49.665  42.163  1.00  0.00     0.018 A 
HETATM    8  N   UNL     1      32.645  51.606  39.404  1.00  0.00    -0.365 N 
HETATM    9  H   UNL     1      33.330  52.350  39.276  1.00  0.00     0.165 HD
HETATM   10  C   UNL     1      32.053  51.098  38.318  1.00  0.00     0.090 A 
HETATM   11  C   UNL     1      31.127  50.076  38.443  1.00  0.00     0.047 A 
HETATM   12  C   UNL     1      30.789  49.577  39.704  1.00  0.00     0.042 A 
ENDROOT
BRANCH  12  13
HETATM   13  N   UNL     1      29.921  48.497  39.860  1.00  0.00    -0.388 N 
HETATM   14  H   UNL     1      29.725  48.245  40.828  1.00  0.00     0.159 HD
BRANCH  13  15
HETATM   15  C   UNL     1      28.809  48.225  38.944  1.00  0.00     0.139 C 
BRANCH  15  16
HETATM   16  C   UNL     1      27.479  48.690  39.566  1.00  0.00     0.142 C 
BRANCH  16  17
HETATM   17  N   UNL     1      27.405  50.118  39.819  1.00  0.00    -0.359 N 
HETATM   18  C   UNL     1      27.688  50.630  41.065  1.00  0.00     0.221 C 
HETATM   19  O   UNL     1      27.844  49.947  42.069  1.00  0.00    -0.273 OA
HETATM   20  H   UNL     1      27.475  50.748  39.030  1.00  0.00     0.162 HD
BRANCH  18  21
HETATM   21  C   UNL     1      27.837  52.109  41.098  1.00  0.00     0.078 A 
HETATM   22  C   UNL     1      29.060  52.750  41.711  1.00  0.00     0.015 A 
HETATM   23  C   UNL     1      28.880  52.764  40.221  1.00  0.00     0.015 A 
ENDBRANCH  18  21
ENDBRANCH  16  17
ENDBRANCH  15  16
ENDBRANCH  13  15
ENDBRANCH  12  13
TORSDOF 5
ENDMDL
