MODEL 1
REMARK VINA RESULT:      -8.4      0.000      0.000
REMARK  9 active torsions:
REMARK  status: ('A' for Active; 'I' for Inactive)
REMARK    1  A    between atoms: S_2  and  C_3 
REMARK    2  A    between atoms: C_3  and  C_4 
REMARK    3  A    between atoms: C_4  and  C_5 
REMARK    4  A    between atoms: C_5  and  N_6 
REMARK    5  A    between atoms: C_5  and  C_16 
REMARK       I    between atoms: N_6  and  C_7 
REMARK    6  A    between atoms: C_7  and  C_8 
REMARK       I    between atoms: C_16  and  N_17 
REMARK    7  A    between atoms: N_17  and  N_18 
REMARK       I    between atoms: N_18  and  C_19 
REMARK    8  A    between atoms: C_19  and  C_20 
REMARK    9  A    between atoms: C_23  and  O_24 
ROOT
HETATM    1  C   UNL     1      27.041  42.297  51.670  1.00  0.00     0.179 C 
ENDROOT
BRANCH   1   2
HETATM    2  C   UNL     1      27.445  41.007  50.937  1.00  0.00     0.045 C 
BRANCH   2   3
HETATM    3  C   UNL     1      26.288  40.194  50.355  1.00  0.00     0.076 C 
BRANCH   3   4
HETATM    4  S   UNL     1      26.811  39.122  48.978  1.00  0.00    -0.173 SA
HETATM    5  C   UNL     1      28.194  40.117  48.368  1.00  0.00     0.089 C 
ENDBRANCH   3   4
ENDBRANCH   2   3
ENDBRANCH   1   2
BRANCH   1   6
HETATM    6  N   UNL     1      28.010  42.763  52.671  1.00  0.00    -0.344 N 
HETATM    7  C   UNL     1      27.699  43.449  53.817  1.00  0.00     0.254 C 
HETATM    8  O   UNL     1      26.537  43.705  54.119  1.00  0.00    -0.268 OA
HETATM    9  H   UNL     1      28.979  42.519  52.499  1.00  0.00     0.163 HD
BRANCH   7  10
HETATM   10  C   UNL     1      28.816  43.913  54.691  1.00  0.00     0.053 A 
HETATM   11  C   UNL     1      28.949  45.199  55.235  1.00  0.00     0.049 A 
HETATM   12 CL   UNL     1      27.843  46.493  54.932  1.00  0.00    -0.083 Cl
HETATM   13  C   UNL     1      30.046  45.504  56.053  1.00  0.00     0.025 A 
HETATM   14  C   UNL     1      31.017  44.541  56.331  1.00  0.00     0.002 A 
HETATM   15  C   UNL     1      30.902  43.268  55.784  1.00  0.00     0.001 A 
HETATM   16  C   UNL     1      29.812  42.957  54.969  1.00  0.00     0.019 A 
ENDBRANCH   7  10
ENDBRANCH   1   6
BRANCH   1  17
HETATM   17  C   UNL     1      26.649  43.381  50.644  1.00  0.00     0.259 C 
HETATM   18  N   UNL     1      25.743  44.325  51.074  1.00  0.00    -0.265 N 
HETATM   19  H   UNL     1      25.357  44.339  52.023  1.00  0.00     0.190 HD
HETATM   20  O   UNL     1      27.218  43.487  49.553  1.00  0.00    -0.269 OA
BRANCH  18  21
HETATM   21  N   UNL     1      25.426  45.386  50.221  1.00  0.00    -0.263 N 
HETATM   22  C   UNL     1      25.683  46.674  50.648  1.00  0.00     0.270 C 
HETATM   23  O   UNL     1      26.249  46.929  51.708  1.00  0.00    -0.266 OA
HETATM   24  H   UNL     1      24.760  45.165  49.484  1.00  0.00     0.190 HD
BRANCH  22  25
HETATM   25  C   UNL     1      25.216  47.777  49.758  1.00  0.00     0.033 A 
HETATM   26  C   UNL     1      26.092  48.725  49.207  1.00  0.00     0.020 A 
HETATM   27  C   UNL     1      25.598  49.752  48.393  1.00  0.00     0.037 A 
HETATM   28  C   UNL     1      24.232  49.832  48.142  1.00  0.00     0.065 A 
HETATM   29  C   UNL     1      23.352  48.906  48.687  1.00  0.00     0.037 A 
HETATM   30  C   UNL     1      23.841  47.880  49.497  1.00  0.00     0.020 A 
BRANCH  28  31
HETATM   31  O   UNL     1      23.711  50.821  47.362  1.00  0.00    -0.361 OA
HETATM   32  H   UNL     1      23.042  50.437  46.772  1.00  0.00     0.217 HD
ENDBRANCH  28  31
ENDBRANCH  22  25
ENDBRANCH  18  21
ENDBRANCH   1  17
TORSDOF 9
ENDMDL
MODEL 2
REMARK VINA RESULT:      -8.4      2.718      8.582
REMARK  9 active torsions:
REMARK  status: ('A' for Active; 'I' for Inactive)
REMARK    1  A    between atoms: S_2  and  C_3 
REMARK    2  A    between atoms: C_3  and  C_4 
REMARK    3  A    between atoms: C_4  and  C_5 
REMARK    4  A    between atoms: C_5  and  N_6 
REMARK    5  A    between atoms: C_5  and  C_16 
REMARK       I    between atoms: N_6  and  C_7 
REMARK    6  A    between atoms: C_7  and  C_8 
REMARK       I    between atoms: C_16  and  N_17 
REMARK    7  A    between atoms: N_17  and  N_18 
REMARK       I    between atoms: N_18  and  C_19 
REMARK    8  A    between atoms: C_19  and  C_20 
REMARK    9  A    between atoms: C_23  and  O_24 
ROOT
HETATM    1  C   UNL     1      25.223  45.915  51.120  1.00  0.00     0.179 C 
ENDROOT
BRANCH   1   2
HETATM    2  C   UNL     1      24.256  44.741  51.348  1.00  0.00     0.045 C 
BRANCH   2   3
HETATM    3  C   UNL     1      24.636  43.434  50.651  1.00  0.00     0.076 C 
BRANCH   3   4
HETATM    4  S   UNL     1      26.001  43.648  49.463  1.00  0.00    -0.173 SA
HETATM    5  C   UNL     1      27.089  42.330  50.060  1.00  0.00     0.089 C 
ENDBRANCH   3   4
ENDBRANCH   2   3
ENDBRANCH   1   2
BRANCH   1   6
HETATM    6  N   UNL     1      24.587  47.148  50.639  1.00  0.00    -0.344 N 
HETATM    7  C   UNL     1      23.858  47.267  49.483  1.00  0.00     0.254 C 
HETATM    8  O   UNL     1      23.648  46.302  48.753  1.00  0.00    -0.268 OA
HETATM    9  H   UNL     1      24.678  47.960  51.240  1.00  0.00     0.163 HD
BRANCH   7  10
HETATM   10  C   UNL     1      23.343  48.614  49.104  1.00  0.00     0.053 A 
HETATM   11  C   UNL     1      24.116  49.679  48.619  1.00  0.00     0.049 A 
HETATM   12 CL   UNL     1      25.833  49.616  48.428  1.00  0.00    -0.083 Cl
HETATM   13  C   UNL     1      23.502  50.896  48.287  1.00  0.00     0.025 A 
HETATM   14  C   UNL     1      22.126  51.065  48.439  1.00  0.00     0.002 A 
HETATM   15  C   UNL     1      21.353  50.019  48.933  1.00  0.00     0.001 A 
HETATM   16  C   UNL     1      21.957  48.806  49.265  1.00  0.00     0.019 A 
ENDBRANCH   7  10
ENDBRANCH   1   6
BRANCH   1  17
HETATM   17  C   UNL     1      26.098  46.124  52.374  1.00  0.00     0.259 C 
HETATM   18  N   UNL     1      26.772  45.015  52.835  1.00  0.00    -0.265 N 
HETATM   19  H   UNL     1      26.729  44.101  52.373  1.00  0.00     0.190 HD
HETATM   20  O   UNL     1      26.299  47.244  52.854  1.00  0.00    -0.269 OA
BRANCH  18  21
HETATM   21  N   UNL     1      27.655  45.167  53.908  1.00  0.00    -0.263 N 
HETATM   22  C   UNL     1      28.717  44.291  54.017  1.00  0.00     0.270 C 
HETATM   23  O   UNL     1      28.970  43.435  53.173  1.00  0.00    -0.266 OA
HETATM   24  H   UNL     1      27.295  45.707  54.692  1.00  0.00     0.190 HD
BRANCH  22  25
HETATM   25  C   UNL     1      29.560  44.414  55.242  1.00  0.00     0.033 A 
HETATM   26  C   UNL     1      30.561  43.486  55.566  1.00  0.00     0.020 A 
HETATM   27  C   UNL     1      31.310  43.638  56.740  1.00  0.00     0.037 A 
HETATM   28  C   UNL     1      31.048  44.710  57.587  1.00  0.00     0.065 A 
HETATM   29  C   UNL     1      30.054  45.631  57.284  1.00  0.00     0.037 A 
HETATM   30  C   UNL     1      29.308  45.483  56.114  1.00  0.00     0.020 A 
BRANCH  28  31
HETATM   31  O   UNL     1      31.750  44.889  58.742  1.00  0.00    -0.361 OA
HETATM   32  H   UNL     1      32.468  44.236  58.779  1.00  0.00     0.217 HD
ENDBRANCH  28  31
ENDBRANCH  22  25
ENDBRANCH  18  21
ENDBRANCH   1  17
TORSDOF 9
ENDMDL
MODEL 3
REMARK VINA RESULT:      -8.2      2.163      3.086
REMARK  9 active torsions:
REMARK  status: ('A' for Active; 'I' for Inactive)
REMARK    1  A    between atoms: S_2  and  C_3 
REMARK    2  A    between atoms: C_3  and  C_4 
REMARK    3  A    between atoms: C_4  and  C_5 
REMARK    4  A    between atoms: C_5  and  N_6 
REMARK    5  A    between atoms: C_5  and  C_16 
REMARK       I    between atoms: N_6  and  C_7 
REMARK    6  A    between atoms: C_7  and  C_8 
REMARK       I    between atoms: C_16  and  N_17 
REMARK    7  A    between atoms: N_17  and  N_18 
REMARK       I    between atoms: N_18  and  C_19 
REMARK    8  A    between atoms: C_19  and  C_20 
REMARK    9  A    between atoms: C_23  and  O_24 
ROOT
HETATM    1  C   UNL     1      26.149  45.066  51.189  1.00  0.00     0.179 C 
ENDROOT
BRANCH   1   2
HETATM    2  C   UNL     1      26.607  44.644  49.783  1.00  0.00     0.045 C 
BRANCH   2   3
HETATM    3  C   UNL     1      26.702  43.136  49.550  1.00  0.00     0.076 C 
BRANCH   3   4
HETATM    4  S   UNL     1      25.351  42.218  50.357  1.00  0.00    -0.173 SA
HETATM    5  C   UNL     1      26.276  40.740  50.839  1.00  0.00     0.089 C 
ENDBRANCH   3   4
ENDBRANCH   2   3
ENDBRANCH   1   2
BRANCH   1   6
HETATM    6  N   UNL     1      27.217  45.098  52.197  1.00  0.00    -0.344 N 
HETATM    7  C   UNL     1      27.239  44.363  53.354  1.00  0.00     0.254 C 
HETATM    8  O   UNL     1      26.346  43.565  53.626  1.00  0.00    -0.268 OA
HETATM    9  H   UNL     1      28.010  45.695  51.987  1.00  0.00     0.163 HD
BRANCH   7  10
HETATM   10  C   UNL     1      28.367  44.572  54.307  1.00  0.00     0.053 A 
HETATM   11  C   UNL     1      28.582  45.722  55.081  1.00  0.00     0.049 A 
HETATM   12 CL   UNL     1      27.582  47.130  55.014  1.00  0.00    -0.083 Cl
HETATM   13  C   UNL     1      29.681  45.786  55.951  1.00  0.00     0.025 A 
HETATM   14  C   UNL     1      30.572  44.718  56.053  1.00  0.00     0.002 A 
HETATM   15  C   UNL     1      30.375  43.579  55.279  1.00  0.00     0.001 A 
HETATM   16  C   UNL     1      29.284  43.508  54.412  1.00  0.00     0.019 A 
ENDBRANCH   7  10
ENDBRANCH   1   6
BRANCH   1  17
HETATM   17  C   UNL     1      25.344  46.380  51.105  1.00  0.00     0.259 C 
HETATM   18  N   UNL     1      24.486  46.498  50.034  1.00  0.00    -0.265 N 
HETATM   19  H   UNL     1      24.357  45.759  49.335  1.00  0.00     0.190 HD
HETATM   20  O   UNL     1      25.355  47.214  52.015  1.00  0.00    -0.269 OA
BRANCH  18  21
HETATM   21  N   UNL     1      23.660  47.623  49.960  1.00  0.00    -0.263 N 
HETATM   22  C   UNL     1      22.731  47.692  48.939  1.00  0.00     0.270 C 
HETATM   23  O   UNL     1      22.542  46.777  48.142  1.00  0.00    -0.266 OA
HETATM   24  H   UNL     1      23.994  48.440  50.466  1.00  0.00     0.190 HD
BRANCH  22  25
HETATM   25  C   UNL     1      21.958  48.963  48.828  1.00  0.00     0.033 A 
HETATM   26  C   UNL     1      22.577  50.222  48.771  1.00  0.00     0.020 A 
HETATM   27  C   UNL     1      21.802  51.385  48.686  1.00  0.00     0.037 A 
HETATM   28  C   UNL     1      20.415  51.286  48.669  1.00  0.00     0.065 A 
HETATM   29  C   UNL     1      19.788  50.049  48.734  1.00  0.00     0.037 A 
HETATM   30  C   UNL     1      20.557  48.887  48.816  1.00  0.00     0.020 A 
BRANCH  28  31
HETATM   31  O   UNL     1      19.626  52.396  48.595  1.00  0.00    -0.361 OA
HETATM   32  H   UNL     1      19.337  52.637  49.490  1.00  0.00     0.217 HD
ENDBRANCH  28  31
ENDBRANCH  22  25
ENDBRANCH  18  21
ENDBRANCH   1  17
TORSDOF 9
ENDMDL
MODEL 4
REMARK VINA RESULT:      -8.1      3.673      8.132
REMARK  9 active torsions:
REMARK  status: ('A' for Active; 'I' for Inactive)
REMARK    1  A    between atoms: S_2  and  C_3 
REMARK    2  A    between atoms: C_3  and  C_4 
REMARK    3  A    between atoms: C_4  and  C_5 
REMARK    4  A    between atoms: C_5  and  N_6 
REMARK    5  A    between atoms: C_5  and  C_16 
REMARK       I    between atoms: N_6  and  C_7 
REMARK    6  A    between atoms: C_7  and  C_8 
REMARK       I    between atoms: C_16  and  N_17 
REMARK    7  A    between atoms: N_17  and  N_18 
REMARK       I    between atoms: N_18  and  C_19 
REMARK    8  A    between atoms: C_19  and  C_20 
REMARK    9  A    between atoms: C_23  and  O_24 
ROOT
HETATM    1  C   UNL     1      26.407  43.151  50.571  1.00  0.00     0.179 C 
ENDROOT
BRANCH   1   2
HETATM    2  C   UNL     1      26.335  44.436  49.729  1.00  0.00     0.045 C 
BRANCH   2   3
HETATM    3  C   UNL     1      25.296  45.461  50.186  1.00  0.00     0.076 C 
BRANCH   3   4
HETATM    4  S   UNL     1      26.040  47.074  50.595  1.00  0.00    -0.173 SA
HETATM    5  C   UNL     1      25.816  47.030  52.389  1.00  0.00     0.089 C 
ENDBRANCH   3   4
ENDBRANCH   2   3
ENDBRANCH   1   2
BRANCH   1   6
HETATM    6  N   UNL     1      27.112  42.035  49.927  1.00  0.00    -0.344 N 
HETATM    7  C   UNL     1      26.828  40.705  50.110  1.00  0.00     0.254 C 
HETATM    8  O   UNL     1      25.904  40.338  50.830  1.00  0.00    -0.268 OA
HETATM    9  H   UNL     1      27.843  42.289  49.272  1.00  0.00     0.163 HD
BRANCH   7  10
HETATM   10  C   UNL     1      27.693  39.696  49.434  1.00  0.00     0.053 A 
HETATM   11  C   UNL     1      28.794  39.044  50.009  1.00  0.00     0.049 A 
HETATM   12 CL   UNL     1      29.366  39.351  51.612  1.00  0.00    -0.083 Cl
HETATM   13  C   UNL     1      29.519  38.103  49.265  1.00  0.00     0.025 A 
HETATM   14  C   UNL     1      29.163  37.809  47.949  1.00  0.00     0.002 A 
HETATM   15  C   UNL     1      28.083  38.460  47.364  1.00  0.00     0.001 A 
HETATM   16  C   UNL     1      27.356  39.397  48.099  1.00  0.00     0.019 A 
ENDBRANCH   7  10
ENDBRANCH   1   6
BRANCH   1  17
HETATM   17  C   UNL     1      26.937  43.479  51.983  1.00  0.00     0.259 C 
HETATM   18  N   UNL     1      28.276  43.786  52.072  1.00  0.00    -0.265 N 
HETATM   19  H   UNL     1      28.898  43.823  51.258  1.00  0.00     0.190 HD
HETATM   20  O   UNL     1      26.183  43.603  52.953  1.00  0.00    -0.269 OA
BRANCH  18  21
HETATM   21  N   UNL     1      28.790  44.186  53.308  1.00  0.00    -0.263 N 
HETATM   22  C   UNL     1      29.855  43.485  53.838  1.00  0.00     0.270 C 
HETATM   23  O   UNL     1      30.425  42.577  53.238  1.00  0.00    -0.266 OA
HETATM   24  H   UNL     1      28.167  44.762  53.870  1.00  0.00     0.190 HD
BRANCH  22  25
HETATM   25  C   UNL     1      30.290  43.870  55.212  1.00  0.00     0.033 A 
HETATM   26  C   UNL     1      31.136  43.064  55.990  1.00  0.00     0.020 A 
HETATM   27  C   UNL     1      31.496  43.464  57.283  1.00  0.00     0.037 A 
HETATM   28  C   UNL     1      31.005  44.661  57.794  1.00  0.00     0.065 A 
HETATM   29  C   UNL     1      30.160  45.464  57.039  1.00  0.00     0.037 A 
HETATM   30  C   UNL     1      29.800  45.069  55.750  1.00  0.00     0.020 A 
BRANCH  28  31
HETATM   31  O   UNL     1      31.327  45.081  59.050  1.00  0.00    -0.361 OA
HETATM   32  H   UNL     1      31.714  44.339  59.541  1.00  0.00     0.217 HD
ENDBRANCH  28  31
ENDBRANCH  22  25
ENDBRANCH  18  21
ENDBRANCH   1  17
TORSDOF 9
ENDMDL
MODEL 5
REMARK VINA RESULT:      -7.9      3.157      4.379
REMARK  9 active torsions:
REMARK  status: ('A' for Active; 'I' for Inactive)
REMARK    1  A    between atoms: S_2  and  C_3 
REMARK    2  A    between atoms: C_3  and  C_4 
REMARK    3  A    between atoms: C_4  and  C_5 
REMARK    4  A    between atoms: C_5  and  N_6 
REMARK    5  A    between atoms: C_5  and  C_16 
REMARK       I    between atoms: N_6  and  C_7 
REMARK    6  A    between atoms: C_7  and  C_8 
REMARK       I    between atoms: C_16  and  N_17 
REMARK    7  A    between atoms: N_17  and  N_18 
REMARK       I    between atoms: N_18  and  C_19 
REMARK    8  A    between atoms: C_19  and  C_20 
REMARK    9  A    between atoms: C_23  and  O_24 
ROOT
HETATM    1  C   UNL     1      24.925  45.602  50.564  1.00  0.00     0.179 C 
ENDROOT
BRANCH   1   2
HETATM    2  C   UNL     1      25.360  44.939  49.247  1.00  0.00     0.045 C 
BRANCH   2   3
HETATM    3  C   UNL     1      24.732  43.574  48.962  1.00  0.00     0.076 C 
BRANCH   3   4
HETATM    4  S   UNL     1      25.200  42.319  50.198  1.00  0.00    -0.173 SA
HETATM    5  C   UNL     1      26.998  42.508  50.111  1.00  0.00     0.089 C 
ENDBRANCH   3   4
ENDBRANCH   2   3
ENDBRANCH   1   2
BRANCH   1   6
HETATM    6  N   UNL     1      25.976  45.680  51.587  1.00  0.00    -0.344 N 
HETATM    7  C   UNL     1      25.884  45.180  52.861  1.00  0.00     0.254 C 
HETATM    8  O   UNL     1      24.886  44.576  53.244  1.00  0.00    -0.268 OA
HETATM    9  H   UNL     1      26.846  46.115  51.299  1.00  0.00     0.163 HD
BRANCH   7  10
HETATM   10  C   UNL     1      27.020  45.412  53.799  1.00  0.00     0.053 A 
HETATM   11  C   UNL     1      27.958  44.451  54.202  1.00  0.00     0.049 A 
HETATM   12 CL   UNL     1      27.918  42.796  53.705  1.00  0.00    -0.083 Cl
HETATM   13  C   UNL     1      28.990  44.806  55.084  1.00  0.00     0.025 A 
HETATM   14  C   UNL     1      29.091  46.107  55.575  1.00  0.00     0.002 A 
HETATM   15  C   UNL     1      28.157  47.064  55.193  1.00  0.00     0.001 A 
HETATM   16  C   UNL     1      27.129  46.719  54.315  1.00  0.00     0.019 A 
ENDBRANCH   7  10
ENDBRANCH   1   6
BRANCH   1  17
HETATM   17  C   UNL     1      24.252  46.959  50.270  1.00  0.00     0.259 C 
HETATM   18  N   UNL     1      23.082  46.911  49.545  1.00  0.00    -0.265 N 
HETATM   19  H   UNL     1      22.654  46.035  49.229  1.00  0.00     0.190 HD
HETATM   20  O   UNL     1      24.653  48.012  50.775  1.00  0.00    -0.269 OA
BRANCH  18  21
HETATM   21  N   UNL     1      22.378  48.100  49.332  1.00  0.00    -0.263 N 
HETATM   22  C   UNL     1      21.086  48.023  48.850  1.00  0.00     0.270 C 
HETATM   23  O   UNL     1      20.498  46.959  48.674  1.00  0.00    -0.266 OA
HETATM   24  H   UNL     1      22.952  48.936  49.257  1.00  0.00     0.190 HD
BRANCH  22  25
HETATM   25  C   UNL     1      20.418  49.317  48.523  1.00  0.00     0.033 A 
HETATM   26  C   UNL     1      20.938  50.557  48.924  1.00  0.00     0.020 A 
HETATM   27  C   UNL     1      20.260  51.741  48.609  1.00  0.00     0.037 A 
HETATM   28  C   UNL     1      19.063  51.679  47.902  1.00  0.00     0.065 A 
HETATM   29  C   UNL     1      18.532  50.459  47.506  1.00  0.00     0.037 A 
HETATM   30  C   UNL     1      19.206  49.277  47.818  1.00  0.00     0.020 A 
BRANCH  28  31
HETATM   31  O   UNL     1      18.370  52.808  47.582  1.00  0.00    -0.361 OA
HETATM   32  H   UNL     1      18.626  53.519  48.192  1.00  0.00     0.217 HD
ENDBRANCH  28  31
ENDBRANCH  22  25
ENDBRANCH  18  21
ENDBRANCH   1  17
TORSDOF 9
ENDMDL
MODEL 6
REMARK VINA RESULT:      -7.8      3.201      8.266
REMARK  9 active torsions:
REMARK  status: ('A' for Active; 'I' for Inactive)
REMARK    1  A    between atoms: S_2  and  C_3 
REMARK    2  A    between atoms: C_3  and  C_4 
REMARK    3  A    between atoms: C_4  and  C_5 
REMARK    4  A    between atoms: C_5  and  N_6 
REMARK    5  A    between atoms: C_5  and  C_16 
REMARK       I    between atoms: N_6  and  C_7 
REMARK    6  A    between atoms: C_7  and  C_8 
REMARK       I    between atoms: C_16  and  N_17 
REMARK    7  A    between atoms: N_17  and  N_18 
REMARK       I    between atoms: N_18  and  C_19 
REMARK    8  A    between atoms: C_19  and  C_20 
REMARK    9  A    between atoms: C_23  and  O_24 
ROOT
HETATM    1  C   UNL     1      25.160  46.146  51.150  1.00  0.00     0.179 C 
ENDROOT
BRANCH   1   2
HETATM    2  C   UNL     1      25.335  47.395  50.270  1.00  0.00     0.045 C 
BRANCH   2   3
HETATM    3  C   UNL     1      24.064  47.895  49.582  1.00  0.00     0.076 C 
BRANCH   3   4
HETATM    4  S   UNL     1      24.327  49.458  48.681  1.00  0.00    -0.173 SA
HETATM    5  C   UNL     1      22.622  50.065  48.688  1.00  0.00     0.089 C 
ENDBRANCH   3   4
ENDBRANCH   2   3
ENDBRANCH   1   2
BRANCH   1   6
HETATM    6  N   UNL     1      25.377  44.871  50.454  1.00  0.00    -0.344 N 
HETATM    7  C   UNL     1      24.527  43.795  50.484  1.00  0.00     0.254 C 
HETATM    8  O   UNL     1      23.463  43.833  51.094  1.00  0.00    -0.268 OA
HETATM    9  H   UNL     1      26.214  44.813  49.883  1.00  0.00     0.163 HD
BRANCH   7  10
HETATM   10  C   UNL     1      24.938  42.546  49.780  1.00  0.00     0.053 A 
HETATM   11  C   UNL     1      25.877  41.614  50.245  1.00  0.00     0.049 A 
HETATM   12 CL   UNL     1      26.764  41.793  51.718  1.00  0.00    -0.083 Cl
HETATM   13  C   UNL     1      26.165  40.470  49.486  1.00  0.00     0.025 A 
HETATM   14  C   UNL     1      25.531  40.249  48.264  1.00  0.00     0.002 A 
HETATM   15  C   UNL     1      24.610  41.174  47.786  1.00  0.00     0.001 A 
HETATM   16  C   UNL     1      24.318  42.314  48.536  1.00  0.00     0.019 A 
ENDBRANCH   7  10
ENDBRANCH   1   6
BRANCH   1  17
HETATM   17  C   UNL     1      25.995  46.293  52.439  1.00  0.00     0.259 C 
HETATM   18  N   UNL     1      26.757  45.203  52.795  1.00  0.00    -0.265 N 
HETATM   19  H   UNL     1      26.800  44.342  52.239  1.00  0.00     0.190 HD
HETATM   20  O   UNL     1      26.091  47.368  53.038  1.00  0.00    -0.269 OA
BRANCH  18  21
HETATM   21  N   UNL     1      27.607  45.313  53.899  1.00  0.00    -0.263 N 
HETATM   22  C   UNL     1      28.725  44.503  53.953  1.00  0.00     0.270 C 
HETATM   23  O   UNL     1      29.050  43.747  53.041  1.00  0.00    -0.266 OA
HETATM   24  H   UNL     1      27.198  45.753  54.720  1.00  0.00     0.190 HD
BRANCH  22  25
HETATM   25  C   UNL     1      29.535  44.568  55.204  1.00  0.00     0.033 A 
HETATM   26  C   UNL     1      30.521  43.619  55.516  1.00  0.00     0.020 A 
HETATM   27  C   UNL     1      31.239  43.716  56.714  1.00  0.00     0.037 A 
HETATM   28  C   UNL     1      30.962  44.754  57.598  1.00  0.00     0.065 A 
HETATM   29  C   UNL     1      29.983  45.695  57.308  1.00  0.00     0.037 A 
HETATM   30  C   UNL     1      29.267  45.602  56.114  1.00  0.00     0.020 A 
BRANCH  28  31
HETATM   31  O   UNL     1      31.634  44.878  58.778  1.00  0.00    -0.361 OA
HETATM   32  H   UNL     1      31.325  45.678  59.234  1.00  0.00     0.217 HD
ENDBRANCH  28  31
ENDBRANCH  22  25
ENDBRANCH  18  21
ENDBRANCH   1  17
TORSDOF 9
ENDMDL
MODEL 7
REMARK VINA RESULT:      -7.8      3.842      9.083
REMARK  9 active torsions:
REMARK  status: ('A' for Active; 'I' for Inactive)
REMARK    1  A    between atoms: S_2  and  C_3 
REMARK    2  A    between atoms: C_3  and  C_4 
REMARK    3  A    between atoms: C_4  and  C_5 
REMARK    4  A    between atoms: C_5  and  N_6 
REMARK    5  A    between atoms: C_5  and  C_16 
REMARK       I    between atoms: N_6  and  C_7 
REMARK    6  A    between atoms: C_7  and  C_8 
REMARK       I    between atoms: C_16  and  N_17 
REMARK    7  A    between atoms: N_17  and  N_18 
REMARK       I    between atoms: N_18  and  C_19 
REMARK    8  A    between atoms: C_19  and  C_20 
REMARK    9  A    between atoms: C_23  and  O_24 
ROOT
HETATM    1  C   UNL     1      23.480  46.774  49.153  1.00  0.00     0.179 C 
ENDROOT
BRANCH   1   2
HETATM    2  C   UNL     1      23.188  45.302  48.818  1.00  0.00     0.045 C 
BRANCH   2   3
HETATM    3  C   UNL     1      21.708  44.940  48.687  1.00  0.00     0.076 C 
BRANCH   3   4
HETATM    4  S   UNL     1      21.291  44.298  47.033  1.00  0.00    -0.173 SA
HETATM    5  C   UNL     1      21.341  45.856  46.115  1.00  0.00     0.089 C 
ENDBRANCH   3   4
ENDBRANCH   2   3
ENDBRANCH   1   2
BRANCH   1   6
HETATM    6  N   UNL     1      22.287  47.590  49.417  1.00  0.00    -0.344 N 
HETATM    7  C   UNL     1      21.835  48.614  48.623  1.00  0.00     0.254 C 
HETATM    8  O   UNL     1      22.399  48.912  47.574  1.00  0.00    -0.268 OA
HETATM    9  H   UNL     1      21.750  47.341  50.240  1.00  0.00     0.163 HD
BRANCH   7  10
HETATM   10  C   UNL     1      20.646  49.391  49.078  1.00  0.00     0.053 A 
HETATM   11  C   UNL     1      19.346  48.888  49.226  1.00  0.00     0.049 A 
HETATM   12 CL   UNL     1      18.893  47.262  48.848  1.00  0.00    -0.083 Cl
HETATM   13  C   UNL     1      18.315  49.727  49.675  1.00  0.00     0.025 A 
HETATM   14  C   UNL     1      18.567  51.066  49.972  1.00  0.00     0.002 A 
HETATM   15  C   UNL     1      19.849  51.579  49.814  1.00  0.00     0.001 A 
HETATM   16  C   UNL     1      20.879  50.750  49.369  1.00  0.00     0.019 A 
ENDBRANCH   7  10
ENDBRANCH   1   6
BRANCH   1  17
HETATM   17  C   UNL     1      24.540  46.856  50.272  1.00  0.00     0.259 C 
HETATM   18  N   UNL     1      25.203  45.686  50.566  1.00  0.00    -0.265 N 
HETATM   19  H   UNL     1      25.035  44.806  50.068  1.00  0.00     0.190 HD
HETATM   20  O   UNL     1      24.879  47.931  50.775  1.00  0.00    -0.269 OA
BRANCH  18  21
HETATM   21  N   UNL     1      26.241  45.722  51.501  1.00  0.00    -0.263 N 
HETATM   22  C   UNL     1      26.018  45.187  52.755  1.00  0.00     0.270 C 
HETATM   23  O   UNL     1      24.978  44.609  53.062  1.00  0.00    -0.266 OA
HETATM   24  H   UNL     1      26.976  46.398  51.306  1.00  0.00     0.190 HD
BRANCH  22  25
HETATM   25  C   UNL     1      27.111  45.358  53.757  1.00  0.00     0.033 A 
HETATM   26  C   UNL     1      28.066  44.361  54.009  1.00  0.00     0.020 A 
HETATM   27  C   UNL     1      29.059  44.566  54.975  1.00  0.00     0.037 A 
HETATM   28  C   UNL     1      29.087  45.759  55.690  1.00  0.00     0.065 A 
HETATM   29  C   UNL     1      28.142  46.750  55.457  1.00  0.00     0.037 A 
HETATM   30  C   UNL     1      27.152  46.550  54.494  1.00  0.00     0.020 A 
BRANCH  28  31
HETATM   31  O   UNL     1      30.032  45.993  56.643  1.00  0.00    -0.361 OA
HETATM   32  H   UNL     1      30.183  45.175  57.145  1.00  0.00     0.217 HD
ENDBRANCH  28  31
ENDBRANCH  22  25
ENDBRANCH  18  21
ENDBRANCH   1  17
TORSDOF 9
ENDMDL
MODEL 8
REMARK VINA RESULT:      -7.3      2.863      7.087
REMARK  9 active torsions:
REMARK  status: ('A' for Active; 'I' for Inactive)
REMARK    1  A    between atoms: S_2  and  C_3 
REMARK    2  A    between atoms: C_3  and  C_4 
REMARK    3  A    between atoms: C_4  and  C_5 
REMARK    4  A    between atoms: C_5  and  N_6 
REMARK    5  A    between atoms: C_5  and  C_16 
REMARK       I    between atoms: N_6  and  C_7 
REMARK    6  A    between atoms: C_7  and  C_8 
REMARK       I    between atoms: C_16  and  N_17 
REMARK    7  A    between atoms: N_17  and  N_18 
REMARK       I    between atoms: N_18  and  C_19 
REMARK    8  A    between atoms: C_19  and  C_20 
REMARK    9  A    between atoms: C_23  and  O_24 
ROOT
HETATM    1  C   UNL     1      26.651  44.294  51.498  1.00  0.00     0.179 C 
ENDROOT
BRANCH   1   2
HETATM    2  C   UNL     1      25.291  44.859  51.939  1.00  0.00     0.045 C 
BRANCH   2   3
HETATM    3  C   UNL     1      24.640  45.837  50.960  1.00  0.00     0.076 C 
BRANCH   3   4
HETATM    4  S   UNL     1      25.845  46.975  50.203  1.00  0.00    -0.173 SA
HETATM    5  C   UNL     1      24.683  48.149  49.464  1.00  0.00     0.089 C 
ENDBRANCH   3   4
ENDBRANCH   2   3
ENDBRANCH   1   2
BRANCH   1   6
HETATM    6  N   UNL     1      27.722  44.423  52.496  1.00  0.00    -0.344 N 
HETATM    7  C   UNL     1      27.698  43.889  53.759  1.00  0.00     0.254 C 
HETATM    8  O   UNL     1      26.755  43.208  54.152  1.00  0.00    -0.268 OA
HETATM    9  H   UNL     1      28.551  44.924  52.197  1.00  0.00     0.163 HD
BRANCH   7  10
HETATM   10  C   UNL     1      28.839  44.180  54.674  1.00  0.00     0.053 A 
HETATM   11  C   UNL     1      29.063  45.392  55.345  1.00  0.00     0.049 A 
HETATM   12 CL   UNL     1      28.057  46.788  55.175  1.00  0.00    -0.083 Cl
HETATM   13  C   UNL     1      30.174  45.530  56.189  1.00  0.00     0.025 A 
HETATM   14  C   UNL     1      31.069  44.476  56.368  1.00  0.00     0.002 A 
HETATM   15  C   UNL     1      30.864  43.276  55.696  1.00  0.00     0.001 A 
HETATM   16  C   UNL     1      29.761  43.130  54.855  1.00  0.00     0.019 A 
ENDBRANCH   7  10
ENDBRANCH   1   6
BRANCH   1  17
HETATM   17  C   UNL     1      26.474  42.854  50.971  1.00  0.00     0.259 C 
HETATM   18  N   UNL     1      27.630  42.177  50.654  1.00  0.00    -0.265 N 
HETATM   19  H   UNL     1      28.566  42.578  50.775  1.00  0.00     0.190 HD
HETATM   20  O   UNL     1      25.376  42.288  50.969  1.00  0.00    -0.269 OA
BRANCH  18  21
HETATM   21  N   UNL     1      27.536  40.838  50.265  1.00  0.00    -0.263 N 
HETATM   22  C   UNL     1      27.720  40.524  48.933  1.00  0.00     0.270 C 
HETATM   23  O   UNL     1      28.041  41.354  48.086  1.00  0.00    -0.266 OA
HETATM   24  H   UNL     1      27.047  40.231  50.919  1.00  0.00     0.190 HD
BRANCH  22  25
HETATM   25  C   UNL     1      27.490  39.102  48.545  1.00  0.00     0.033 A 
HETATM   26  C   UNL     1      26.912  38.166  49.417  1.00  0.00     0.020 A 
HETATM   27  C   UNL     1      26.737  36.837  49.009  1.00  0.00     0.037 A 
HETATM   28  C   UNL     1      27.148  36.449  47.738  1.00  0.00     0.065 A 
HETATM   29  C   UNL     1      27.729  37.363  46.868  1.00  0.00     0.037 A 
HETATM   30  C   UNL     1      27.903  38.687  47.270  1.00  0.00     0.020 A 
BRANCH  28  31
HETATM   31  O   UNL     1      27.002  35.165  47.307  1.00  0.00    -0.361 OA
HETATM   32  H   UNL     1      26.100  34.866  47.506  1.00  0.00     0.217 HD
ENDBRANCH  28  31
ENDBRANCH  22  25
ENDBRANCH  18  21
ENDBRANCH   1  17
TORSDOF 9
ENDMDL
MODEL 9
REMARK VINA RESULT:      -7.3      3.547      6.937
REMARK  9 active torsions:
REMARK  status: ('A' for Active; 'I' for Inactive)
REMARK    1  A    between atoms: S_2  and  C_3 
REMARK    2  A    between atoms: C_3  and  C_4 
REMARK    3  A    between atoms: C_4  and  C_5 
REMARK    4  A    between atoms: C_5  and  N_6 
REMARK    5  A    between atoms: C_5  and  C_16 
REMARK       I    between atoms: N_6  and  C_7 
REMARK    6  A    between atoms: C_7  and  C_8 
REMARK       I    between atoms: C_16  and  N_17 
REMARK    7  A    between atoms: N_17  and  N_18 
REMARK       I    between atoms: N_18  and  C_19 
REMARK    8  A    between atoms: C_19  and  C_20 
REMARK    9  A    between atoms: C_23  and  O_24 
ROOT
HETATM    1  C   UNL     1      27.544  43.380  53.261  1.00  0.00     0.179 C 
ENDROOT
BRANCH   1   2
HETATM    2  C   UNL     1      26.066  43.752  53.465  1.00  0.00     0.045 C 
BRANCH   2   3
HETATM    3  C   UNL     1      25.599  45.006  52.726  1.00  0.00     0.076 C 
BRANCH   3   4
HETATM    4  S   UNL     1      24.698  44.616  51.191  1.00  0.00    -0.173 SA
HETATM    5  C   UNL     1      26.074  44.759  50.024  1.00  0.00     0.089 C 
ENDBRANCH   3   4
ENDBRANCH   2   3
ENDBRANCH   1   2
BRANCH   1   6
HETATM    6  N   UNL     1      28.390  43.554  54.450  1.00  0.00    -0.344 N 
HETATM    7  C   UNL     1      28.868  44.753  54.914  1.00  0.00     0.254 C 
HETATM    8  O   UNL     1      28.584  45.815  54.367  1.00  0.00    -0.268 OA
HETATM    9  H   UNL     1      28.600  42.712  54.974  1.00  0.00     0.163 HD
BRANCH   7  10
HETATM   10  C   UNL     1      29.778  44.744  56.096  1.00  0.00     0.053 A 
HETATM   11  C   UNL     1      29.613  45.506  57.262  1.00  0.00     0.049 A 
HETATM   12 CL   UNL     1      28.329  46.638  57.501  1.00  0.00    -0.083 Cl
HETATM   13  C   UNL     1      30.540  45.394  58.309  1.00  0.00     0.025 A 
HETATM   14  C   UNL     1      31.634  44.536  58.203  1.00  0.00     0.002 A 
HETATM   15  C   UNL     1      31.815  43.788  57.045  1.00  0.00     0.001 A 
HETATM   16  C   UNL     1      30.897  43.893  55.999  1.00  0.00     0.019 A 
ENDBRANCH   7  10
ENDBRANCH   1   6
BRANCH   1  17
HETATM   17  C   UNL     1      27.648  41.973  52.635  1.00  0.00     0.259 C 
HETATM   18  N   UNL     1      26.553  41.546  51.917  1.00  0.00    -0.265 N 
HETATM   19  H   UNL     1      25.717  42.122  51.775  1.00  0.00     0.190 HD
HETATM   20  O   UNL     1      28.699  41.325  52.650  1.00  0.00    -0.269 OA
BRANCH  18  21
HETATM   21  N   UNL     1      26.628  40.323  51.247  1.00  0.00    -0.263 N 
HETATM   22  C   UNL     1      26.834  40.331  49.881  1.00  0.00     0.270 C 
HETATM   23  O   UNL     1      27.034  41.359  49.239  1.00  0.00    -0.266 OA
HETATM   24  H   UNL     1      26.230  39.530  51.746  1.00  0.00     0.190 HD
BRANCH  22  25
HETATM   25  C   UNL     1      26.784  39.008  49.192  1.00  0.00     0.033 A 
HETATM   26  C   UNL     1      26.292  38.855  47.886  1.00  0.00     0.020 A 
HETATM   27  C   UNL     1      26.249  37.587  47.294  1.00  0.00     0.037 A 
HETATM   28  C   UNL     1      26.688  36.479  48.010  1.00  0.00     0.065 A 
HETATM   29  C   UNL     1      27.169  36.614  49.306  1.00  0.00     0.037 A 
HETATM   30  C   UNL     1      27.215  37.876  49.899  1.00  0.00     0.020 A 
BRANCH  28  31
HETATM   31  O   UNL     1      26.656  35.227  47.471  1.00  0.00    -0.361 OA
HETATM   32  H   UNL     1      27.558  34.965  47.228  1.00  0.00     0.217 HD
ENDBRANCH  28  31
ENDBRANCH  22  25
ENDBRANCH  18  21
ENDBRANCH   1  17
TORSDOF 9
ENDMDL
MODEL 10
REMARK VINA RESULT:      -7.0      4.071      8.423
REMARK  9 active torsions:
REMARK  status: ('A' for Active; 'I' for Inactive)
REMARK    1  A    between atoms: S_2  and  C_3 
REMARK    2  A    between atoms: C_3  and  C_4 
REMARK    3  A    between atoms: C_4  and  C_5 
REMARK    4  A    between atoms: C_5  and  N_6 
REMARK    5  A    between atoms: C_5  and  C_16 
REMARK       I    between atoms: N_6  and  C_7 
REMARK    6  A    between atoms: C_7  and  C_8 
REMARK       I    between atoms: C_16  and  N_17 
REMARK    7  A    between atoms: N_17  and  N_18 
REMARK       I    between atoms: N_18  and  C_19 
REMARK    8  A    between atoms: C_19  and  C_20 
REMARK    9  A    between atoms: C_23  and  O_24 
ROOT
HETATM    1  C   UNL     1      26.162  41.089  50.512  1.00  0.00     0.179 C 
ENDROOT
BRANCH   1   2
HETATM    2  C   UNL     1      25.615  42.415  49.958  1.00  0.00     0.045 C 
BRANCH   2   3
HETATM    3  C   UNL     1      24.230  42.334  49.314  1.00  0.00     0.076 C 
BRANCH   3   4
HETATM    4  S   UNL     1      23.823  43.822  48.344  1.00  0.00    -0.173 SA
HETATM    5  C   UNL     1      22.300  44.295  49.198  1.00  0.00     0.089 C 
ENDBRANCH   3   4
ENDBRANCH   2   3
ENDBRANCH   1   2
BRANCH   1   6
HETATM    6  N   UNL     1      26.666  40.160  49.492  1.00  0.00    -0.344 N 
HETATM    7  C   UNL     1      27.507  40.493  48.461  1.00  0.00     0.254 C 
HETATM    8  O   UNL     1      27.944  41.633  48.330  1.00  0.00    -0.268 OA
HETATM    9  H   UNL     1      26.384  39.191  49.594  1.00  0.00     0.163 HD
BRANCH   7  10
HETATM   10  C   UNL     1      27.863  39.440  47.467  1.00  0.00     0.053 A 
HETATM   11  C   UNL     1      28.626  38.292  47.728  1.00  0.00     0.049 A 
HETATM   12 CL   UNL     1      29.332  37.933  49.265  1.00  0.00    -0.083 Cl
HETATM   13  C   UNL     1      28.879  37.371  46.702  1.00  0.00     0.025 A 
HETATM   14  C   UNL     1      28.386  37.584  45.415  1.00  0.00     0.002 A 
HETATM   15  C   UNL     1      27.642  38.727  45.142  1.00  0.00     0.001 A 
HETATM   16  C   UNL     1      27.385  39.648  46.159  1.00  0.00     0.019 A 
ENDBRANCH   7  10
ENDBRANCH   1   6
BRANCH   1  17
HETATM   17  C   UNL     1      27.176  41.372  51.640  1.00  0.00     0.259 C 
HETATM   18  N   UNL     1      26.838  42.374  52.522  1.00  0.00    -0.265 N 
HETATM   19  H   UNL     1      25.959  42.898  52.465  1.00  0.00     0.190 HD
HETATM   20  O   UNL     1      28.161  40.652  51.832  1.00  0.00    -0.269 OA
BRANCH  18  21
HETATM   21  N   UNL     1      27.671  42.609  53.620  1.00  0.00    -0.263 N 
HETATM   22  C   UNL     1      28.187  43.878  53.797  1.00  0.00     0.270 C 
HETATM   23  O   UNL     1      27.886  44.830  53.082  1.00  0.00    -0.266 OA
HETATM   24  H   UNL     1      28.082  41.776  54.037  1.00  0.00     0.190 HD
BRANCH  22  25
HETATM   25  C   UNL     1      29.167  44.050  54.909  1.00  0.00     0.033 A 
HETATM   26  C   UNL     1      29.209  45.204  55.706  1.00  0.00     0.020 A 
HETATM   27  C   UNL     1      30.163  45.323  56.724  1.00  0.00     0.037 A 
HETATM   28  C   UNL     1      31.074  44.293  56.936  1.00  0.00     0.065 A 
HETATM   29  C   UNL     1      31.049  43.148  56.150  1.00  0.00     0.037 A 
HETATM   30  C   UNL     1      30.099  43.026  55.135  1.00  0.00     0.020 A 
BRANCH  28  31
HETATM   31  O   UNL     1      32.021  44.373  57.912  1.00  0.00    -0.361 OA
HETATM   32  H   UNL     1      31.721  44.998  58.592  1.00  0.00     0.217 HD
ENDBRANCH  28  31
ENDBRANCH  22  25
ENDBRANCH  18  21
ENDBRANCH   1  17
TORSDOF 9
ENDMDL
