MODEL 1
REMARK VINA RESULT:     -10.6      0.000      0.000
REMARK  8 active torsions:
REMARK  status: ('A' for Active; 'I' for Inactive)
REMARK       I    between atoms: C_2  and  N_3 
REMARK    1  A    between atoms: N_6  and  C_7 
REMARK    2  A    between atoms: C_8  and  N_9 
REMARK    3  A    between atoms: N_9  and  C_10 
REMARK    4  A    between atoms: C_10  and  N_11 
REMARK       I    between atoms: N_11  and  C_12 
REMARK    5  A    between atoms: C_12  and  C_13 
REMARK    6  A    between atoms: C_15  and  O_16 
REMARK    7  A    between atoms: O_16  and  C_17 
REMARK    8  A    between atoms: C_17  and  C_18 
ROOT
HETATM    1  C   UNL     1      24.150  45.484  49.880  1.00  0.00     0.179 C 
HETATM    2  S   UNL     1      23.287  44.936  48.557  1.00  0.00    -0.040 SA
ENDROOT
BRANCH   1   3
HETATM    3  N   UNL     1      24.135  46.796  50.191  1.00  0.00    -0.331 N 
HETATM    4  H   UNL     1      23.332  47.126  50.722  1.00  0.00     0.168 HD
BRANCH   3   5
HETATM    5  C   UNL     1      24.894  47.875  49.675  1.00  0.00     0.061 A 
HETATM    6  C   UNL     1      24.153  48.950  49.106  1.00  0.00     0.057 A 
HETATM    7  C   UNL     1      24.868  49.918  48.387  1.00  0.00     0.031 A 
HETATM    8  C   UNL     1      26.262  49.863  48.284  1.00  0.00     0.002 A 
HETATM    9  C   UNL     1      26.971  48.832  48.892  1.00  0.00     0.002 A 
HETATM   10  C   UNL     1      26.289  47.832  49.581  1.00  0.00     0.032 A 
BRANCH   6  11
HETATM   11  N   UNL     1      22.755  49.001  49.289  1.00  0.00    -0.376 N 
HETATM   12  C   UNL     1      22.279  50.311  49.832  1.00  0.00     0.143 C 
HETATM   13  C   UNL     1      21.895  51.287  48.703  1.00  0.00     0.145 C 
HETATM   14  N   UNL     1      20.904  50.663  47.818  1.00  0.00    -0.349 N 
HETATM   15  C   UNL     1      19.536  50.842  47.941  1.00  0.00     0.215 C 
HETATM   16  C   UNL     1      21.396  49.429  47.200  1.00  0.00     0.145 C 
HETATM   17  C   UNL     1      19.068  52.058  48.699  1.00  0.00     0.117 C 
HETATM   18  O   UNL     1      18.717  50.062  47.455  1.00  0.00    -0.274 OA
HETATM   19  C   UNL     1      21.846  48.412  48.273  1.00  0.00     0.143 C 
ENDBRANCH   6  11
ENDBRANCH   3   5
ENDBRANCH   1   3
BRANCH   1  20
HETATM   20  N   UNL     1      24.799  44.565  50.646  1.00  0.00    -0.299 N 
HETATM   21  C   UNL     1      26.122  44.166  50.479  1.00  0.00     0.257 C 
HETATM   22  O   UNL     1      26.815  44.298  49.479  1.00  0.00    -0.267 OA
HETATM   23  H   UNL     1      24.507  44.636  51.612  1.00  0.00     0.171 HD
BRANCH  21  24
HETATM   24  C   UNL     1      26.738  43.596  51.706  1.00  0.00     0.035 A 
HETATM   25  C   UNL     1      26.902  44.366  52.860  1.00  0.00     0.053 A 
HETATM   26  C   UNL     1      27.573  43.821  53.951  1.00  0.00     0.070 A 
HETATM   27  C   UNL     1      28.038  42.507  53.927  1.00  0.00     0.037 A 
HETATM   28  C   UNL     1      27.846  41.729  52.785  1.00  0.00     0.004 A 
HETATM   29  C   UNL     1      27.196  42.271  51.674  1.00  0.00     0.017 A 
BRANCH  26  30
HETATM   30  O   UNL     1      27.703  44.594  55.070  1.00  0.00    -0.347 OA
BRANCH  30  31
HETATM   31  C   UNL     1      28.819  45.484  54.953  1.00  0.00     0.214 C 
BRANCH  31  32
HETATM   32  C   UNL     1      29.795  45.133  56.047  1.00  0.00    -0.034 A 
HETATM   33  C   UNL     1      30.704  44.081  55.876  1.00  0.00     0.009 A 
HETATM   34  C   UNL     1      31.581  43.731  56.904  1.00  0.00     0.001 A 
HETATM   35  C   UNL     1      31.552  44.422  58.113  1.00  0.00     0.000 A 
HETATM   36  C   UNL     1      30.645  45.464  58.297  1.00  0.00     0.001 A 
HETATM   37  C   UNL     1      29.768  45.817  57.271  1.00  0.00     0.009 A 
ENDBRANCH  31  32
ENDBRANCH  30  31
ENDBRANCH  26  30
ENDBRANCH  21  24
ENDBRANCH   1  20
TORSDOF 8
ENDMDL
MODEL 2
REMARK VINA RESULT:     -10.2      1.676      2.508
REMARK  8 active torsions:
REMARK  status: ('A' for Active; 'I' for Inactive)
REMARK       I    between atoms: C_2  and  N_3 
REMARK    1  A    between atoms: N_6  and  C_7 
REMARK    2  A    between atoms: C_8  and  N_9 
REMARK    3  A    between atoms: N_9  and  C_10 
REMARK    4  A    between atoms: C_10  and  N_11 
REMARK       I    between atoms: N_11  and  C_12 
REMARK    5  A    between atoms: C_12  and  C_13 
REMARK    6  A    between atoms: C_15  and  O_16 
REMARK    7  A    between atoms: O_16  and  C_17 
REMARK    8  A    between atoms: C_17  and  C_18 
ROOT
HETATM    1  C   UNL     1      23.287  45.840  49.328  1.00  0.00     0.179 C 
HETATM    2  S   UNL     1      23.193  44.649  48.158  1.00  0.00    -0.040 SA
ENDROOT
BRANCH   1   3
HETATM    3  N   UNL     1      22.570  46.974  49.187  1.00  0.00    -0.331 N 
HETATM    4  H   UNL     1      21.572  46.860  49.028  1.00  0.00     0.168 HD
BRANCH   3   5
HETATM    5  C   UNL     1      22.987  48.303  48.935  1.00  0.00     0.061 A 
HETATM    6  C   UNL     1      21.975  49.211  48.512  1.00  0.00     0.057 A 
HETATM    7  C   UNL     1      22.387  50.464  48.037  1.00  0.00     0.031 A 
HETATM    8  C   UNL     1      23.737  50.831  48.036  1.00  0.00     0.002 A 
HETATM    9  C   UNL     1      24.705  49.948  48.502  1.00  0.00     0.002 A 
HETATM   10  C   UNL     1      24.334  48.680  48.945  1.00  0.00     0.032 A 
BRANCH   6  11
HETATM   11  N   UNL     1      20.620  48.824  48.590  1.00  0.00    -0.376 N 
HETATM   12  C   UNL     1      19.801  49.717  49.467  1.00  0.00     0.143 C 
HETATM   13  C   UNL     1      19.148  50.857  48.661  1.00  0.00     0.145 C 
HETATM   14  N   UNL     1      18.363  50.300  47.552  1.00  0.00    -0.349 N 
HETATM   15  C   UNL     1      17.001  50.056  47.616  1.00  0.00     0.215 C 
HETATM   16  C   UNL     1      19.175  49.503  46.630  1.00  0.00     0.145 C 
HETATM   17  C   UNL     1      16.218  50.798  48.668  1.00  0.00     0.117 C 
HETATM   18  O   UNL     1      16.429  49.278  46.852  1.00  0.00    -0.274 OA
HETATM   19  C   UNL     1      19.903  48.361  47.374  1.00  0.00     0.143 C 
ENDBRANCH   6  11
ENDBRANCH   3   5
ENDBRANCH   1   3
BRANCH   1  20
HETATM   20  N   UNL     1      24.049  45.597  50.430  1.00  0.00    -0.299 N 
HETATM   21  C   UNL     1      25.437  45.683  50.485  1.00  0.00     0.257 C 
HETATM   22  O   UNL     1      26.219  45.664  49.544  1.00  0.00    -0.267 OA
HETATM   23  H   UNL     1      23.581  45.921  51.266  1.00  0.00     0.171 HD
BRANCH  21  24
HETATM   24  C   UNL     1      25.972  45.899  51.855  1.00  0.00     0.035 A 
HETATM   25  C   UNL     1      26.660  44.890  52.533  1.00  0.00     0.053 A 
HETATM   26  C   UNL     1      27.055  45.103  53.851  1.00  0.00     0.070 A 
HETATM   27  C   UNL     1      26.819  46.322  54.484  1.00  0.00     0.037 A 
HETATM   28  C   UNL     1      26.158  47.340  53.796  1.00  0.00     0.004 A 
HETATM   29  C   UNL     1      25.734  47.131  52.481  1.00  0.00     0.017 A 
BRANCH  26  30
HETATM   30  O   UNL     1      27.740  44.103  54.480  1.00  0.00    -0.347 OA
BRANCH  30  31
HETATM   31  C   UNL     1      29.136  44.160  54.168  1.00  0.00     0.214 C 
BRANCH  31  32
HETATM   32  C   UNL     1      29.888  44.253  55.471  1.00  0.00    -0.034 A 
HETATM   33  C   UNL     1      29.724  45.365  56.308  1.00  0.00     0.009 A 
HETATM   34  C   UNL     1      30.450  45.468  57.496  1.00  0.00     0.001 A 
HETATM   35  C   UNL     1      31.352  44.468  57.853  1.00  0.00     0.000 A 
HETATM   36  C   UNL     1      31.531  43.363  57.023  1.00  0.00     0.001 A 
HETATM   37  C   UNL     1      30.805  43.256  55.836  1.00  0.00     0.009 A 
ENDBRANCH  31  32
ENDBRANCH  30  31
ENDBRANCH  26  30
ENDBRANCH  21  24
ENDBRANCH   1  20
TORSDOF 8
ENDMDL
MODEL 3
REMARK VINA RESULT:      -9.9      2.105      3.167
REMARK  8 active torsions:
REMARK  status: ('A' for Active; 'I' for Inactive)
REMARK       I    between atoms: C_2  and  N_3 
REMARK    1  A    between atoms: N_6  and  C_7 
REMARK    2  A    between atoms: C_8  and  N_9 
REMARK    3  A    between atoms: N_9  and  C_10 
REMARK    4  A    between atoms: C_10  and  N_11 
REMARK       I    between atoms: N_11  and  C_12 
REMARK    5  A    between atoms: C_12  and  C_13 
REMARK    6  A    between atoms: C_15  and  O_16 
REMARK    7  A    between atoms: O_16  and  C_17 
REMARK    8  A    between atoms: C_17  and  C_18 
ROOT
HETATM    1  C   UNL     1      24.106  47.653  49.509  1.00  0.00     0.179 C 
HETATM    2  S   UNL     1      24.395  49.149  48.819  1.00  0.00    -0.040 SA
ENDROOT
BRANCH   1   3
HETATM    3  N   UNL     1      22.854  47.151  49.517  1.00  0.00    -0.331 N 
HETATM    4  H   UNL     1      22.484  46.874  50.423  1.00  0.00     0.168 HD
BRANCH   3   5
HETATM    5  C   UNL     1      22.049  46.668  48.458  1.00  0.00     0.061 A 
HETATM    6  C   UNL     1      20.745  47.232  48.349  1.00  0.00     0.057 A 
HETATM    7  C   UNL     1      19.847  46.621  47.464  1.00  0.00     0.031 A 
HETATM    8  C   UNL     1      20.234  45.534  46.673  1.00  0.00     0.002 A 
HETATM    9  C   UNL     1      21.528  45.031  46.757  1.00  0.00     0.002 A 
HETATM   10  C   UNL     1      22.435  45.590  47.654  1.00  0.00     0.032 A 
BRANCH   6  11
HETATM   11  N   UNL     1      20.417  48.369  49.119  1.00  0.00    -0.376 N 
HETATM   12  C   UNL     1      20.689  49.658  48.412  1.00  0.00     0.143 C 
HETATM   13  C   UNL     1      19.448  50.155  47.643  1.00  0.00     0.145 C 
HETATM   14  N   UNL     1      18.302  50.255  48.554  1.00  0.00    -0.349 N 
HETATM   15  C   UNL     1      17.922  51.424  49.193  1.00  0.00     0.215 C 
HETATM   16  C   UNL     1      17.963  48.974  49.179  1.00  0.00     0.145 C 
HETATM   17  C   UNL     1      18.401  52.722  48.594  1.00  0.00     0.117 C 
HETATM   18  O   UNL     1      17.217  51.431  50.203  1.00  0.00    -0.274 OA
HETATM   19  C   UNL     1      19.175  48.386  49.934  1.00  0.00     0.143 C 
ENDBRANCH   6  11
ENDBRANCH   3   5
ENDBRANCH   1   3
BRANCH   1  20
HETATM   20  N   UNL     1      25.169  46.956  49.995  1.00  0.00    -0.299 N 
HETATM   21  C   UNL     1      25.509  46.836  51.339  1.00  0.00     0.257 C 
HETATM   22  O   UNL     1      25.148  47.554  52.262  1.00  0.00    -0.267 OA
HETATM   23  H   UNL     1      25.322  46.116  49.452  1.00  0.00     0.171 HD
BRANCH  21  24
HETATM   24  C   UNL     1      26.338  45.640  51.645  1.00  0.00     0.035 A 
HETATM   25  C   UNL     1      26.871  45.435  52.920  1.00  0.00     0.053 A 
HETATM   26  C   UNL     1      27.723  44.355  53.135  1.00  0.00     0.070 A 
HETATM   27  C   UNL     1      28.011  43.451  52.113  1.00  0.00     0.037 A 
HETATM   28  C   UNL     1      27.454  43.641  50.848  1.00  0.00     0.004 A 
HETATM   29  C   UNL     1      26.617  44.735  50.612  1.00  0.00     0.017 A 
BRANCH  26  30
HETATM   30  O   UNL     1      28.215  44.172  54.396  1.00  0.00    -0.347 OA
BRANCH  30  31
HETATM   31  C   UNL     1      28.699  45.404  54.942  1.00  0.00     0.214 C 
BRANCH  31  32
HETATM   32  C   UNL     1      29.713  45.061  56.004  1.00  0.00    -0.034 A 
HETATM   33  C   UNL     1      30.575  43.969  55.836  1.00  0.00     0.009 A 
HETATM   34  C   UNL     1      31.487  43.628  56.836  1.00  0.00     0.001 A 
HETATM   35  C   UNL     1      31.540  44.369  58.015  1.00  0.00     0.000 A 
HETATM   36  C   UNL     1      30.680  45.450  58.197  1.00  0.00     0.001 A 
HETATM   37  C   UNL     1      29.768  45.794  57.199  1.00  0.00     0.009 A 
ENDBRANCH  31  32
ENDBRANCH  30  31
ENDBRANCH  26  30
ENDBRANCH  21  24
ENDBRANCH   1  20
TORSDOF 8
ENDMDL
MODEL 4
REMARK VINA RESULT:      -9.8      1.515      2.185
REMARK  8 active torsions:
REMARK  status: ('A' for Active; 'I' for Inactive)
REMARK       I    between atoms: C_2  and  N_3 
REMARK    1  A    between atoms: N_6  and  C_7 
REMARK    2  A    between atoms: C_8  and  N_9 
REMARK    3  A    between atoms: N_9  and  C_10 
REMARK    4  A    between atoms: C_10  and  N_11 
REMARK       I    between atoms: N_11  and  C_12 
REMARK    5  A    between atoms: C_12  and  C_13 
REMARK    6  A    between atoms: C_15  and  O_16 
REMARK    7  A    between atoms: O_16  and  C_17 
REMARK    8  A    between atoms: C_17  and  C_18 
ROOT
HETATM    1  C   UNL     1      23.293  45.986  49.211  1.00  0.00     0.179 C 
HETATM    2  S   UNL     1      22.116  45.278  48.257  1.00  0.00    -0.040 SA
ENDROOT
BRANCH   1   3
HETATM    3  N   UNL     1      23.114  47.241  49.673  1.00  0.00    -0.331 N 
HETATM    4  H   UNL     1      22.342  47.378  50.321  1.00  0.00     0.168 HD
BRANCH   3   5
HETATM    5  C   UNL     1      23.628  48.475  49.209  1.00  0.00     0.061 A 
HETATM    6  C   UNL     1      22.668  49.431  48.769  1.00  0.00     0.057 A 
HETATM    7  C   UNL     1      23.145  50.564  48.096  1.00  0.00     0.031 A 
HETATM    8  C   UNL     1      24.515  50.778  47.916  1.00  0.00     0.002 A 
HETATM    9  C   UNL     1      25.439  49.858  48.400  1.00  0.00     0.002 A 
HETATM   10  C   UNL     1      24.998  48.701  49.039  1.00  0.00     0.032 A 
BRANCH   6  11
HETATM   11  N   UNL     1      21.299  49.207  49.027  1.00  0.00    -0.376 N 
HETATM   12  C   UNL     1      20.701  50.217  49.955  1.00  0.00     0.143 C 
HETATM   13  C   UNL     1      20.084  51.399  49.183  1.00  0.00     0.145 C 
HETATM   14  N   UNL     1      19.109  50.904  48.204  1.00  0.00    -0.349 N 
HETATM   15  C   UNL     1      17.747  50.822  48.442  1.00  0.00     0.215 C 
HETATM   16  C   UNL     1      19.705  49.989  47.227  1.00  0.00     0.145 C 
HETATM   17  C   UNL     1      17.189  51.684  49.546  1.00  0.00     0.117 C 
HETATM   18  O   UNL     1      17.001  50.093  47.788  1.00  0.00    -0.274 OA
HETATM   19  C   UNL     1      20.388  48.794  47.928  1.00  0.00     0.143 C 
ENDBRANCH   6  11
ENDBRANCH   3   5
ENDBRANCH   1   3
BRANCH   1  20
HETATM   20  N   UNL     1      24.381  45.239  49.545  1.00  0.00    -0.299 N 
HETATM   21  C   UNL     1      24.928  45.137  50.821  1.00  0.00     0.257 C 
HETATM   22  O   UNL     1      24.763  45.902  51.762  1.00  0.00    -0.267 OA
HETATM   23  H   UNL     1      24.397  44.376  49.018  1.00  0.00     0.171 HD
BRANCH  21  24
HETATM   24  C   UNL     1      25.728  43.902  51.035  1.00  0.00     0.035 A 
HETATM   25  C   UNL     1      26.985  43.949  51.643  1.00  0.00     0.053 A 
HETATM   26  C   UNL     1      27.741  42.784  51.731  1.00  0.00     0.070 A 
HETATM   27  C   UNL     1      27.244  41.566  51.269  1.00  0.00     0.037 A 
HETATM   28  C   UNL     1      25.976  41.516  50.690  1.00  0.00     0.004 A 
HETATM   29  C   UNL     1      25.216  42.682  50.572  1.00  0.00     0.017 A 
BRANCH  26  30
HETATM   30  O   UNL     1      28.959  42.859  52.346  1.00  0.00    -0.347 OA
BRANCH  30  31
HETATM   31  C   UNL     1      28.902  42.314  53.669  1.00  0.00     0.214 C 
BRANCH  31  32
HETATM   32  C   UNL     1      29.424  43.366  54.614  1.00  0.00    -0.034 A 
HETATM   33  C   UNL     1      28.726  44.568  54.795  1.00  0.00     0.009 A 
HETATM   34  C   UNL     1      29.229  45.558  55.640  1.00  0.00     0.001 A 
HETATM   35  C   UNL     1      30.437  45.360  56.306  1.00  0.00     0.000 A 
HETATM   36  C   UNL     1      31.145  44.173  56.126  1.00  0.00     0.001 A 
HETATM   37  C   UNL     1      30.644  43.181  55.282  1.00  0.00     0.009 A 
ENDBRANCH  31  32
ENDBRANCH  30  31
ENDBRANCH  26  30
ENDBRANCH  21  24
ENDBRANCH   1  20
TORSDOF 8
ENDMDL
MODEL 5
REMARK VINA RESULT:      -9.6      3.222     11.991
REMARK  8 active torsions:
REMARK  status: ('A' for Active; 'I' for Inactive)
REMARK       I    between atoms: C_2  and  N_3 
REMARK    1  A    between atoms: N_6  and  C_7 
REMARK    2  A    between atoms: C_8  and  N_9 
REMARK    3  A    between atoms: N_9  and  C_10 
REMARK    4  A    between atoms: C_10  and  N_11 
REMARK       I    between atoms: N_11  and  C_12 
REMARK    5  A    between atoms: C_12  and  C_13 
REMARK    6  A    between atoms: C_15  and  O_16 
REMARK    7  A    between atoms: O_16  and  C_17 
REMARK    8  A    between atoms: C_17  and  C_18 
ROOT
HETATM    1  C   UNL     1      21.888  48.151  48.933  1.00  0.00     0.179 C 
HETATM    2  S   UNL     1      21.861  46.904  47.819  1.00  0.00    -0.040 SA
ENDROOT
BRANCH   1   3
HETATM    3  N   UNL     1      23.016  48.399  49.631  1.00  0.00    -0.331 N 
HETATM    4  H   UNL     1      22.897  48.634  50.614  1.00  0.00     0.168 HD
BRANCH   3   5
HETATM    5  C   UNL     1      24.332  48.674  49.188  1.00  0.00     0.061 A 
HETATM    6  C   UNL     1      25.359  47.833  49.704  1.00  0.00     0.057 A 
HETATM    7  C   UNL     1      26.687  48.216  49.470  1.00  0.00     0.031 A 
HETATM    8  C   UNL     1      26.992  49.347  48.707  1.00  0.00     0.002 A 
HETATM    9  C   UNL     1      25.974  50.126  48.168  1.00  0.00     0.002 A 
HETATM   10  C   UNL     1      24.643  49.797  48.414  1.00  0.00     0.032 A 
BRANCH   6  11
HETATM   11  N   UNL     1      25.006  46.666  50.414  1.00  0.00    -0.376 N 
HETATM   12  C   UNL     1      25.367  45.406  49.693  1.00  0.00     0.143 C 
HETATM   13  C   UNL     1      26.767  44.903  50.097  1.00  0.00     0.145 C 
HETATM   14  N   UNL     1      26.841  44.746  51.554  1.00  0.00    -0.349 N 
HETATM   15  C   UNL     1      26.620  43.548  52.215  1.00  0.00     0.215 C 
HETATM   16  C   UNL     1      26.587  45.998  52.271  1.00  0.00     0.145 C 
HETATM   17  C   UNL     1      26.763  42.282  51.410  1.00  0.00     0.117 C 
HETATM   18  O   UNL     1      26.329  43.493  53.410  1.00  0.00    -0.274 OA
HETATM   19  C   UNL     1      25.215  46.592  51.883  1.00  0.00     0.143 C 
ENDBRANCH   6  11
ENDBRANCH   3   5
ENDBRANCH   1   3
BRANCH   1  20
HETATM   20  N   UNL     1      20.775  48.923  49.058  1.00  0.00    -0.299 N 
HETATM   21  C   UNL     1      20.757  50.252  49.472  1.00  0.00     0.257 C 
HETATM   22  O   UNL     1      21.631  50.849  50.085  1.00  0.00    -0.267 OA
HETATM   23  H   UNL     1      20.108  48.707  48.329  1.00  0.00     0.171 HD
BRANCH  21  24
HETATM   24  C   UNL     1      19.555  51.004  49.025  1.00  0.00     0.035 A 
HETATM   25  C   UNL     1      18.603  51.461  49.940  1.00  0.00     0.053 A 
HETATM   26  C   UNL     1      17.445  52.073  49.468  1.00  0.00     0.070 A 
HETATM   27  C   UNL     1      17.246  52.280  48.104  1.00  0.00     0.037 A 
HETATM   28  C   UNL     1      18.211  51.851  47.194  1.00  0.00     0.004 A 
HETATM   29  C   UNL     1      19.367  51.213  47.651  1.00  0.00     0.017 A 
BRANCH  26  30
HETATM   30  O   UNL     1      16.542  52.522  50.389  1.00  0.00    -0.347 OA
BRANCH  30  31
HETATM   31  C   UNL     1      15.202  52.393  49.900  1.00  0.00     0.214 C 
BRANCH  31  32
HETATM   32  C   UNL     1      14.408  53.553  50.444  1.00  0.00    -0.034 A 
HETATM   33  C   UNL     1      14.907  54.319  51.507  1.00  0.00     0.009 A 
HETATM   34  C   UNL     1      14.154  55.369  52.036  1.00  0.00     0.001 A 
HETATM   35  C   UNL     1      12.894  55.656  51.516  1.00  0.00     0.000 A 
HETATM   36  C   UNL     1      12.383  54.894  50.467  1.00  0.00     0.001 A 
HETATM   37  C   UNL     1      13.134  53.846  49.934  1.00  0.00     0.009 A 
ENDBRANCH  31  32
ENDBRANCH  30  31
ENDBRANCH  26  30
ENDBRANCH  21  24
ENDBRANCH   1  20
TORSDOF 8
ENDMDL
MODEL 6
REMARK VINA RESULT:      -9.5      2.231      3.347
REMARK  8 active torsions:
REMARK  status: ('A' for Active; 'I' for Inactive)
REMARK       I    between atoms: C_2  and  N_3 
REMARK    1  A    between atoms: N_6  and  C_7 
REMARK    2  A    between atoms: C_8  and  N_9 
REMARK    3  A    between atoms: N_9  and  C_10 
REMARK    4  A    between atoms: C_10  and  N_11 
REMARK       I    between atoms: N_11  and  C_12 
REMARK    5  A    between atoms: C_12  and  C_13 
REMARK    6  A    between atoms: C_15  and  O_16 
REMARK    7  A    between atoms: O_16  and  C_17 
REMARK    8  A    between atoms: C_17  and  C_18 
ROOT
HETATM    1  C   UNL     1      23.527  45.046  49.907  1.00  0.00     0.179 C 
HETATM    2  S   UNL     1      22.784  43.548  49.936  1.00  0.00    -0.040 SA
ENDROOT
BRANCH   1   3
HETATM    3  N   UNL     1      23.053  46.012  49.093  1.00  0.00    -0.331 N 
HETATM    4  H   UNL     1      22.950  46.937  49.503  1.00  0.00     0.168 HD
BRANCH   3   5
HETATM    5  C   UNL     1      22.399  45.923  47.841  1.00  0.00     0.061 A 
HETATM    6  C   UNL     1      21.238  46.732  47.677  1.00  0.00     0.057 A 
HETATM    7  C   UNL     1      20.443  46.501  46.547  1.00  0.00     0.031 A 
HETATM    8  C   UNL     1      20.806  45.553  45.585  1.00  0.00     0.002 A 
HETATM    9  C   UNL     1      21.972  44.810  45.737  1.00  0.00     0.002 A 
HETATM   10  C   UNL     1      22.766  44.986  46.869  1.00  0.00     0.032 A 
BRANCH   6  11
HETATM   11  N   UNL     1      20.942  47.720  48.640  1.00  0.00    -0.376 N 
HETATM   12  C   UNL     1      21.304  49.102  48.196  1.00  0.00     0.143 C 
HETATM   13  C   UNL     1      20.118  49.804  47.506  1.00  0.00     0.145 C 
HETATM   14  N   UNL     1      18.948  49.797  48.392  1.00  0.00    -0.349 N 
HETATM   15  C   UNL     1      18.607  50.845  49.231  1.00  0.00     0.215 C 
HETATM   16  C   UNL     1      18.522  48.443  48.755  1.00  0.00     0.145 C 
HETATM   17  C   UNL     1      19.172  52.202  48.899  1.00  0.00     0.117 C 
HETATM   18  O   UNL     1      17.869  50.703  50.206  1.00  0.00    -0.274 OA
HETATM   19  C   UNL     1      19.676  47.655  49.414  1.00  0.00     0.143 C 
ENDBRANCH   6  11
ENDBRANCH   3   5
ENDBRANCH   1   3
BRANCH   1  20
HETATM   20  N   UNL     1      24.563  45.263  50.762  1.00  0.00    -0.299 N 
HETATM   21  C   UNL     1      24.970  46.507  51.236  1.00  0.00     0.257 C 
HETATM   22  O   UNL     1      24.715  47.603  50.756  1.00  0.00    -0.267 OA
HETATM   23  H   UNL     1      24.624  44.520  51.445  1.00  0.00     0.171 HD
BRANCH  21  24
HETATM   24  C   UNL     1      25.727  46.445  52.514  1.00  0.00     0.035 A 
HETATM   25  C   UNL     1      26.448  45.304  52.875  1.00  0.00     0.053 A 
HETATM   26  C   UNL     1      27.059  45.252  54.125  1.00  0.00     0.070 A 
HETATM   27  C   UNL     1      27.002  46.337  54.998  1.00  0.00     0.037 A 
HETATM   28  C   UNL     1      26.307  47.487  54.625  1.00  0.00     0.004 A 
HETATM   29  C   UNL     1      25.669  47.544  53.383  1.00  0.00     0.017 A 
BRANCH  26  30
HETATM   30  O   UNL     1      27.770  44.129  54.441  1.00  0.00    -0.347 OA
BRANCH  30  31
HETATM   31  C   UNL     1      29.150  44.279  54.088  1.00  0.00     0.214 C 
BRANCH  31  32
HETATM   32  C   UNL     1      29.949  44.254  55.366  1.00  0.00    -0.034 A 
HETATM   33  C   UNL     1      30.720  43.133  55.699  1.00  0.00     0.009 A 
HETATM   34  C   UNL     1      31.429  43.095  56.901  1.00  0.00     0.001 A 
HETATM   35  C   UNL     1      31.366  44.172  57.784  1.00  0.00     0.000 A 
HETATM   36  C   UNL     1      30.594  45.287  57.467  1.00  0.00     0.001 A 
HETATM   37  C   UNL     1      29.885  45.329  56.266  1.00  0.00     0.009 A 
ENDBRANCH  31  32
ENDBRANCH  30  31
ENDBRANCH  26  30
ENDBRANCH  21  24
ENDBRANCH   1  20
TORSDOF 8
ENDMDL
MODEL 7
REMARK VINA RESULT:      -9.3      2.888      4.656
REMARK  8 active torsions:
REMARK  status: ('A' for Active; 'I' for Inactive)
REMARK       I    between atoms: C_2  and  N_3 
REMARK    1  A    between atoms: N_6  and  C_7 
REMARK    2  A    between atoms: C_8  and  N_9 
REMARK    3  A    between atoms: N_9  and  C_10 
REMARK    4  A    between atoms: C_10  and  N_11 
REMARK       I    between atoms: N_11  and  C_12 
REMARK    5  A    between atoms: C_12  and  C_13 
REMARK    6  A    between atoms: C_15  and  O_16 
REMARK    7  A    between atoms: O_16  and  C_17 
REMARK    8  A    between atoms: C_17  and  C_18 
ROOT
HETATM    1  C   UNL     1      22.963  48.517  49.213  1.00  0.00     0.179 C 
HETATM    2  S   UNL     1      23.802  49.682  48.355  1.00  0.00    -0.040 SA
ENDROOT
BRANCH   1   3
HETATM    3  N   UNL     1      21.705  48.769  49.627  1.00  0.00    -0.331 N 
HETATM    4  H   UNL     1      21.301  48.099  50.279  1.00  0.00     0.168 HD
BRANCH   3   5
HETATM    5  C   UNL     1      20.721  49.644  49.108  1.00  0.00     0.061 A 
HETATM    6  C   UNL     1      19.873  49.110  48.095  1.00  0.00     0.057 A 
HETATM    7  C   UNL     1      19.048  50.006  47.404  1.00  0.00     0.031 A 
HETATM    8  C   UNL     1      19.013  51.365  47.735  1.00  0.00     0.002 A 
HETATM    9  C   UNL     1      19.811  51.857  48.763  1.00  0.00     0.002 A 
HETATM   10  C   UNL     1      20.672  51.001  49.445  1.00  0.00     0.032 A 
BRANCH   6  11
HETATM   11  N   UNL     1      19.894  47.723  47.837  1.00  0.00    -0.376 N 
HETATM   12  C   UNL     1      18.567  47.064  48.049  1.00  0.00     0.143 C 
HETATM   13  C   UNL     1      17.742  47.021  46.747  1.00  0.00     0.145 C 
HETATM   14  N   UNL     1      18.518  46.371  45.684  1.00  0.00    -0.349 N 
HETATM   15  C   UNL     1      18.416  45.027  45.363  1.00  0.00     0.215 C 
HETATM   16  C   UNL     1      19.777  47.065  45.398  1.00  0.00     0.145 C 
HETATM   17  C   UNL     1      17.160  44.312  45.791  1.00  0.00     0.117 C 
HETATM   18  O   UNL     1      19.294  44.422  44.748  1.00  0.00    -0.274 OA
HETATM   19  C   UNL     1      20.644  47.190  46.670  1.00  0.00     0.143 C 
ENDBRANCH   6  11
ENDBRANCH   3   5
ENDBRANCH   1   3
BRANCH   1  20
HETATM   20  N   UNL     1      23.566  47.314  49.416  1.00  0.00    -0.299 N 
HETATM   21  C   UNL     1      24.519  47.044  50.394  1.00  0.00     0.257 C 
HETATM   22  O   UNL     1      25.205  47.853  51.005  1.00  0.00    -0.267 OA
HETATM   23  H   UNL     1      22.916  46.557  49.251  1.00  0.00     0.171 HD
BRANCH  21  24
HETATM   24  C   UNL     1      24.617  45.606  50.757  1.00  0.00     0.035 A 
HETATM   25  C   UNL     1      25.558  45.155  51.687  1.00  0.00     0.053 A 
HETATM   26  C   UNL     1      25.681  43.788  51.921  1.00  0.00     0.070 A 
HETATM   27  C   UNL     1      24.850  42.870  51.280  1.00  0.00     0.037 A 
HETATM   28  C   UNL     1      23.891  43.325  50.375  1.00  0.00     0.004 A 
HETATM   29  C   UNL     1      23.772  44.692  50.112  1.00  0.00     0.017 A 
BRANCH  26  30
HETATM   30  O   UNL     1      26.598  43.381  52.847  1.00  0.00    -0.347 OA
BRANCH  30  31
HETATM   31  C   UNL     1      27.932  43.664  52.408  1.00  0.00     0.214 C 
BRANCH  31  32
HETATM   32  C   UNL     1      28.773  43.896  53.638  1.00  0.00    -0.034 A 
HETATM   33  C   UNL     1      28.515  44.987  54.479  1.00  0.00     0.009 A 
HETATM   34  C   UNL     1      29.319  45.224  55.595  1.00  0.00     0.001 A 
HETATM   35  C   UNL     1      30.390  44.379  55.877  1.00  0.00     0.000 A 
HETATM   36  C   UNL     1      30.662  43.298  55.042  1.00  0.00     0.001 A 
HETATM   37  C   UNL     1      29.860  43.058  53.926  1.00  0.00     0.009 A 
ENDBRANCH  31  32
ENDBRANCH  30  31
ENDBRANCH  26  30
ENDBRANCH  21  24
ENDBRANCH   1  20
TORSDOF 8
ENDMDL
MODEL 8
REMARK VINA RESULT:      -9.2      3.051     11.921
REMARK  8 active torsions:
REMARK  status: ('A' for Active; 'I' for Inactive)
REMARK       I    between atoms: C_2  and  N_3 
REMARK    1  A    between atoms: N_6  and  C_7 
REMARK    2  A    between atoms: C_8  and  N_9 
REMARK    3  A    between atoms: N_9  and  C_10 
REMARK    4  A    between atoms: C_10  and  N_11 
REMARK       I    between atoms: N_11  and  C_12 
REMARK    5  A    between atoms: C_12  and  C_13 
REMARK    6  A    between atoms: C_15  and  O_16 
REMARK    7  A    between atoms: O_16  and  C_17 
REMARK    8  A    between atoms: C_17  and  C_18 
ROOT
HETATM    1  C   UNL     1      21.923  48.078  48.955  1.00  0.00     0.179 C 
HETATM    2  S   UNL     1      21.833  46.900  47.771  1.00  0.00    -0.040 SA
ENDROOT
BRANCH   1   3
HETATM    3  N   UNL     1      23.068  48.242  49.648  1.00  0.00    -0.331 N 
HETATM    4  H   UNL     1      22.973  48.385  50.651  1.00  0.00     0.168 HD
BRANCH   3   5
HETATM    5  C   UNL     1      24.380  48.538  49.205  1.00  0.00     0.061 A 
HETATM    6  C   UNL     1      25.420  47.712  49.720  1.00  0.00     0.057 A 
HETATM    7  C   UNL     1      26.741  48.115  49.486  1.00  0.00     0.031 A 
HETATM    8  C   UNL     1      27.029  49.252  48.724  1.00  0.00     0.002 A 
HETATM    9  C   UNL     1      25.999  50.016  48.186  1.00  0.00     0.002 A 
HETATM   10  C   UNL     1      24.673  49.666  48.432  1.00  0.00     0.032 A 
BRANCH   6  11
HETATM   11  N   UNL     1      25.085  46.538  50.428  1.00  0.00    -0.376 N 
HETATM   12  C   UNL     1      25.564  45.289  49.759  1.00  0.00     0.143 C 
HETATM   13  C   UNL     1      26.959  44.874  50.267  1.00  0.00     0.145 C 
HETATM   14  N   UNL     1      26.942  44.746  51.729  1.00  0.00    -0.349 N 
HETATM   15  C   UNL     1      26.744  43.549  52.398  1.00  0.00     0.215 C 
HETATM   16  C   UNL     1      26.570  45.993  52.401  1.00  0.00     0.145 C 
HETATM   17  C   UNL     1      27.012  42.280  51.630  1.00  0.00     0.117 C 
HETATM   18  O   UNL     1      26.375  43.497  53.571  1.00  0.00    -0.274 OA
HETATM   19  C   UNL     1      25.197  46.502  51.909  1.00  0.00     0.143 C 
ENDBRANCH   6  11
ENDBRANCH   3   5
ENDBRANCH   1   3
BRANCH   1  20
HETATM   20  N   UNL     1      20.842  48.883  49.141  1.00  0.00    -0.299 N 
HETATM   21  C   UNL     1      20.890  50.235  49.468  1.00  0.00     0.257 C 
HETATM   22  O   UNL     1      21.833  50.848  49.950  1.00  0.00    -0.267 OA
HETATM   23  H   UNL     1      20.100  48.638  48.498  1.00  0.00     0.171 HD
BRANCH  21  24
HETATM   24  C   UNL     1      19.662  50.987  49.096  1.00  0.00     0.035 A 
HETATM   25  C   UNL     1      19.272  51.124  47.761  1.00  0.00     0.053 A 
HETATM   26  C   UNL     1      18.172  51.920  47.453  1.00  0.00     0.070 A 
HETATM   27  C   UNL     1      17.428  52.539  48.456  1.00  0.00     0.037 A 
HETATM   28  C   UNL     1      17.801  52.377  49.790  1.00  0.00     0.004 A 
HETATM   29  C   UNL     1      18.917  51.601  50.113  1.00  0.00     0.017 A 
BRANCH  26  30
HETATM   30  O   UNL     1      17.807  52.021  46.141  1.00  0.00    -0.347 OA
BRANCH  30  31
HETATM   31  C   UNL     1      18.234  50.872  45.399  1.00  0.00     0.214 C 
BRANCH  31  32
HETATM   32  C   UNL     1      18.194  51.237  43.937  1.00  0.00    -0.034 A 
HETATM   33  C   UNL     1      19.082  50.641  43.031  1.00  0.00     0.009 A 
HETATM   34  C   UNL     1      19.070  51.007  41.685  1.00  0.00     0.001 A 
HETATM   35  C   UNL     1      18.179  51.978  41.233  1.00  0.00     0.000 A 
HETATM   36  C   UNL     1      17.299  52.585  42.126  1.00  0.00     0.001 A 
HETATM   37  C   UNL     1      17.307  52.220  43.473  1.00  0.00     0.009 A 
ENDBRANCH  31  32
ENDBRANCH  30  31
ENDBRANCH  26  30
ENDBRANCH  21  24
ENDBRANCH   1  20
TORSDOF 8
ENDMDL
MODEL 9
REMARK VINA RESULT:      -9.1      1.641      2.282
REMARK  8 active torsions:
REMARK  status: ('A' for Active; 'I' for Inactive)
REMARK       I    between atoms: C_2  and  N_3 
REMARK    1  A    between atoms: N_6  and  C_7 
REMARK    2  A    between atoms: C_8  and  N_9 
REMARK    3  A    between atoms: N_9  and  C_10 
REMARK    4  A    between atoms: C_10  and  N_11 
REMARK       I    between atoms: N_11  and  C_12 
REMARK    5  A    between atoms: C_12  and  C_13 
REMARK    6  A    between atoms: C_15  and  O_16 
REMARK    7  A    between atoms: O_16  and  C_17 
REMARK    8  A    between atoms: C_17  and  C_18 
ROOT
HETATM    1  C   UNL     1      24.154  45.377  50.041  1.00  0.00     0.179 C 
HETATM    2  S   UNL     1      23.053  44.876  48.886  1.00  0.00    -0.040 SA
ENDROOT
BRANCH   1   3
HETATM    3  N   UNL     1      24.240  46.684  50.361  1.00  0.00    -0.331 N 
HETATM    4  H   UNL     1      23.482  47.063  50.925  1.00  0.00     0.168 HD
BRANCH   3   5
HETATM    5  C   UNL     1      25.049  47.713  49.822  1.00  0.00     0.061 A 
HETATM    6  C   UNL     1      24.361  48.819  49.245  1.00  0.00     0.057 A 
HETATM    7  C   UNL     1      25.117  49.737  48.505  1.00  0.00     0.031 A 
HETATM    8  C   UNL     1      26.506  49.607  48.388  1.00  0.00     0.002 A 
HETATM    9  C   UNL     1      27.165  48.548  49.003  1.00  0.00     0.002 A 
HETATM   10  C   UNL     1      26.439  47.595  49.714  1.00  0.00     0.032 A 
BRANCH   6  11
HETATM   11  N   UNL     1      22.969  48.947  49.441  1.00  0.00    -0.376 N 
HETATM   12  C   UNL     1      22.551  50.335  49.809  1.00  0.00     0.143 C 
HETATM   13  C   UNL     1      22.178  51.163  48.564  1.00  0.00     0.145 C 
HETATM   14  N   UNL     1      21.148  50.463  47.788  1.00  0.00    -0.349 N 
HETATM   15  C   UNL     1      19.789  50.708  47.908  1.00  0.00     0.215 C 
HETATM   16  C   UNL     1      21.582  49.139  47.336  1.00  0.00     0.145 C 
HETATM   17  C   UNL     1      19.380  52.032  48.500  1.00  0.00     0.117 C 
HETATM   18  O   UNL     1      18.934  49.901  47.545  1.00  0.00    -0.274 OA
HETATM   19  C   UNL     1      22.019  48.260  48.529  1.00  0.00     0.143 C 
ENDBRANCH   6  11
ENDBRANCH   3   5
ENDBRANCH   1   3
BRANCH   1  20
HETATM   20  N   UNL     1      24.895  44.426  50.673  1.00  0.00    -0.299 N 
HETATM   21  C   UNL     1      25.606  43.408  50.045  1.00  0.00     0.257 C 
HETATM   22  O   UNL     1      25.449  42.988  48.906  1.00  0.00    -0.267 OA
HETATM   23  H   UNL     1      25.359  44.816  51.484  1.00  0.00     0.171 HD
BRANCH  21  24
HETATM   24  C   UNL     1      26.720  42.860  50.863  1.00  0.00     0.035 A 
HETATM   25  C   UNL     1      27.445  43.673  51.738  1.00  0.00     0.053 A 
HETATM   26  C   UNL     1      28.543  43.140  52.408  1.00  0.00     0.070 A 
HETATM   27  C   UNL     1      28.898  41.800  52.257  1.00  0.00     0.037 A 
HETATM   28  C   UNL     1      28.154  40.982  51.406  1.00  0.00     0.004 A 
HETATM   29  C   UNL     1      27.065  41.509  50.708  1.00  0.00     0.017 A 
BRANCH  26  30
HETATM   30  O   UNL     1      29.222  43.956  53.268  1.00  0.00    -0.347 OA
BRANCH  30  31
HETATM   31  C   UNL     1      28.578  44.004  54.546  1.00  0.00     0.214 C 
BRANCH  31  32
HETATM   32  C   UNL     1      27.887  45.340  54.655  1.00  0.00    -0.034 A 
HETATM   33  C   UNL     1      26.508  45.446  54.434  1.00  0.00     0.009 A 
HETATM   34  C   UNL     1      25.875  46.689  54.497  1.00  0.00     0.001 A 
HETATM   35  C   UNL     1      26.617  47.836  54.772  1.00  0.00     0.000 A 
HETATM   36  C   UNL     1      27.991  47.744  54.983  1.00  0.00     0.001 A 
HETATM   37  C   UNL     1      28.625  46.503  54.922  1.00  0.00     0.009 A 
ENDBRANCH  31  32
ENDBRANCH  30  31
ENDBRANCH  26  30
ENDBRANCH  21  24
ENDBRANCH   1  20
TORSDOF 8
ENDMDL
MODEL 10
REMARK VINA RESULT:      -9.1      2.813      3.564
REMARK  8 active torsions:
REMARK  status: ('A' for Active; 'I' for Inactive)
REMARK       I    between atoms: C_2  and  N_3 
REMARK    1  A    between atoms: N_6  and  C_7 
REMARK    2  A    between atoms: C_8  and  N_9 
REMARK    3  A    between atoms: N_9  and  C_10 
REMARK    4  A    between atoms: C_10  and  N_11 
REMARK       I    between atoms: N_11  and  C_12 
REMARK    5  A    between atoms: C_12  and  C_13 
REMARK    6  A    between atoms: C_15  and  O_16 
REMARK    7  A    between atoms: O_16  and  C_17 
REMARK    8  A    between atoms: C_17  and  C_18 
ROOT
HETATM    1  C   UNL     1      24.007  43.256  49.131  1.00  0.00     0.179 C 
HETATM    2  S   UNL     1      23.067  42.013  48.525  1.00  0.00    -0.040 SA
ENDROOT
BRANCH   1   3
HETATM    3  N   UNL     1      24.073  44.429  48.468  1.00  0.00    -0.331 N 
HETATM    4  H   UNL     1      24.737  44.477  47.698  1.00  0.00     0.168 HD
BRANCH   3   5
HETATM    5  C   UNL     1      23.591  45.713  48.817  1.00  0.00     0.061 A 
HETATM    6  C   UNL     1      22.429  46.161  48.125  1.00  0.00     0.057 A 
HETATM    7  C   UNL     1      22.062  47.504  48.278  1.00  0.00     0.031 A 
HETATM    8  C   UNL     1      22.773  48.359  49.126  1.00  0.00     0.002 A 
HETATM    9  C   UNL     1      23.875  47.888  49.834  1.00  0.00     0.002 A 
HETATM   10  C   UNL     1      24.291  46.568  49.675  1.00  0.00     0.032 A 
BRANCH   6  11
HETATM   11  N   UNL     1      21.703  45.248  47.330  1.00  0.00    -0.376 N 
HETATM   12  C   UNL     1      20.349  44.934  47.881  1.00  0.00     0.143 C 
HETATM   13  C   UNL     1      19.271  45.874  47.307  1.00  0.00     0.145 C 
HETATM   14  N   UNL     1      19.295  45.827  45.841  1.00  0.00    -0.349 N 
HETATM   15  C   UNL     1      18.471  45.014  45.079  1.00  0.00     0.215 C 
HETATM   16  C   UNL     1      20.589  46.229  45.283  1.00  0.00     0.145 C 
HETATM   17  C   UNL     1      17.209  44.511  45.733  1.00  0.00     0.117 C 
HETATM   18  O   UNL     1      18.730  44.709  43.915  1.00  0.00    -0.274 OA
HETATM   19  C   UNL     1      21.733  45.359  45.849  1.00  0.00     0.143 C 
ENDBRANCH   6  11
ENDBRANCH   3   5
ENDBRANCH   1   3
BRANCH   1  20
HETATM   20  N   UNL     1      24.637  43.061  50.321  1.00  0.00    -0.299 N 
HETATM   21  C   UNL     1      25.969  43.364  50.588  1.00  0.00     0.257 C 
HETATM   22  O   UNL     1      26.867  43.539  49.775  1.00  0.00    -0.267 OA
HETATM   23  H   UNL     1      24.008  43.245  51.092  1.00  0.00     0.171 HD
BRANCH  21  24
HETATM   24  C   UNL     1      26.262  43.565  52.032  1.00  0.00     0.035 A 
HETATM   25  C   UNL     1      27.430  43.062  52.612  1.00  0.00     0.053 A 
HETATM   26  C   UNL     1      27.614  43.188  53.986  1.00  0.00     0.070 A 
HETATM   27  C   UNL     1      26.679  43.849  54.780  1.00  0.00     0.037 A 
HETATM   28  C   UNL     1      25.528  44.377  54.195  1.00  0.00     0.004 A 
HETATM   29  C   UNL     1      25.318  44.237  52.821  1.00  0.00     0.017 A 
BRANCH  26  30
HETATM   30  O   UNL     1      28.773  42.700  54.520  1.00  0.00    -0.347 OA
BRANCH  30  31
HETATM   31  C   UNL     1      29.863  43.601  54.294  1.00  0.00     0.214 C 
BRANCH  31  32
HETATM   32  C   UNL     1      30.331  44.092  55.640  1.00  0.00    -0.034 A 
HETATM   33  C   UNL     1      31.238  43.336  56.395  1.00  0.00     0.009 A 
HETATM   34  C   UNL     1      31.642  43.771  57.658  1.00  0.00     0.001 A 
HETATM   35  C   UNL     1      31.137  44.959  58.182  1.00  0.00     0.000 A 
HETATM   36  C   UNL     1      30.226  45.713  57.445  1.00  0.00     0.001 A 
HETATM   37  C   UNL     1      29.821  45.281  56.181  1.00  0.00     0.009 A 
ENDBRANCH  31  32
ENDBRANCH  30  31
ENDBRANCH  26  30
ENDBRANCH  21  24
ENDBRANCH   1  20
TORSDOF 8
ENDMDL
