MODEL 1
REMARK VINA RESULT:      -9.4      0.000      0.000
REMARK  6 active torsions:
REMARK  status: ('A' for Active; 'I' for Inactive)
REMARK    1  A    between atoms: O_2  and  C_3 
REMARK    2  A    between atoms: C_6  and  C_7 
REMARK    3  A    between atoms: C_9  and  N_10 
REMARK    4  A    between atoms: N_10  and  N_11 
REMARK       I    between atoms: N_10  and  C_22 
REMARK       I    between atoms: N_11  and  C_12 
REMARK       I    between atoms: C_12  and  N_13 
REMARK    5  A    between atoms: N_13  and  C_14 
REMARK       I    between atoms: C_22  and  N_23 
REMARK    6  A    between atoms: N_23  and  C_24 
ROOT
HETATM    1  N   UNL     1      25.238  46.500  51.156  1.00  0.00    -0.195 N 
HETATM    2  C   UNL     1      25.450  46.468  52.543  1.00  0.00     0.340 C 
HETATM    3  N   UNL     1      25.807  45.255  53.092  1.00  0.00    -0.337 N 
HETATM    4  O   UNL     1      25.393  47.492  53.233  1.00  0.00    -0.245 OA
HETATM    5  H   UNL     1      26.043  44.518  52.445  1.00  0.00     0.164 HD
ENDROOT
BRANCH   1   6
HETATM    6  C   UNL     1      25.267  45.351  50.380  1.00  0.00     0.193 A 
HETATM    7  N   UNL     1      26.286  44.524  50.328  1.00  0.00    -0.222 NA
HETATM    8  C   UNL     1      25.960  43.431  49.542  1.00  0.00     0.076 A 
HETATM    9  C   UNL     1      24.738  43.520  48.902  1.00  0.00     0.085 A 
HETATM   10  S   UNL     1      23.944  44.973  49.363  1.00  0.00    -0.060 SA
BRANCH   8  11
HETATM   11  C   UNL     1      26.839  42.271  49.491  1.00  0.00    -0.007 A 
HETATM   12  C   UNL     1      27.385  41.787  50.690  1.00  0.00     0.016 A 
HETATM   13  C   UNL     1      28.217  40.663  50.702  1.00  0.00     0.037 A 
HETATM   14  C   UNL     1      28.525  40.012  49.510  1.00  0.00     0.068 A 
HETATM   15  C   UNL     1      27.983  40.488  48.313  1.00  0.00     0.037 A 
HETATM   16  C   UNL     1      27.147  41.611  48.298  1.00  0.00     0.016 A 
BRANCH  14  17
HETATM   17  O   UNL     1      29.328  38.913  49.383  1.00  0.00    -0.356 OA
HETATM   18  C   UNL     1      29.616  38.193  50.576  1.00  0.00     0.210 C 
ENDBRANCH  14  17
ENDBRANCH   8  11
ENDBRANCH   1   6
BRANCH   1  19
HETATM   19  N   UNL     1      25.759  47.661  50.487  1.00  0.00    -0.142 NA
HETATM   20  C   UNL     1      24.980  48.341  49.574  1.00  0.00     0.317 C 
HETATM   21  N   UNL     1      23.673  48.509  49.948  1.00  0.00    -0.312 N 
HETATM   22  O   UNL     1      25.510  48.769  48.553  1.00  0.00    -0.252 OA
HETATM   23  H   UNL     1      23.500  48.333  50.936  1.00  0.00     0.170 HD
HETATM   24  H   UNL     1      26.703  47.510  50.134  1.00  0.00     0.158 HD
BRANCH  21  25
HETATM   25  C   UNL     1      22.643  49.146  49.231  1.00  0.00     0.036 A 
HETATM   26  C   UNL     1      22.449  50.529  49.213  1.00  0.00     0.031 A 
HETATM   27  C   UNL     1      21.394  51.087  48.483  1.00  0.00     0.026 A 
HETATM   28  C   UNL     1      20.533  50.262  47.766  1.00  0.00     0.034 A 
HETATM   29 CL   UNL     1      19.231  50.949  46.875  1.00  0.00    -0.084 Cl
HETATM   30  C   UNL     1      20.722  48.883  47.765  1.00  0.00     0.026 A 
HETATM   31  C   UNL     1      21.777  48.328  48.493  1.00  0.00     0.031 A 
ENDBRANCH  21  25
ENDBRANCH   1  19
BRANCH   3  32
HETATM   32  C   UNL     1      26.459  45.166  54.395  1.00  0.00     0.086 C 
HETATM   33  C   UNL     1      26.198  43.797  55.035  1.00  0.00     0.025 C 
HETATM   34  C   UNL     1      26.925  42.655  54.321  1.00  0.00     0.002 C 
HETATM   35  C   UNL     1      28.417  42.934  54.163  1.00  0.00     0.000 C 
HETATM   36  C   UNL     1      28.682  44.289  53.512  1.00  0.00     0.002 C 
HETATM   37  C   UNL     1      27.969  45.419  54.257  1.00  0.00     0.025 C 
ENDBRANCH   3  32
TORSDOF 6
ENDMDL
MODEL 2
REMARK VINA RESULT:      -8.9      4.453     10.054
REMARK  6 active torsions:
REMARK  status: ('A' for Active; 'I' for Inactive)
REMARK    1  A    between atoms: O_2  and  C_3 
REMARK    2  A    between atoms: C_6  and  C_7 
REMARK    3  A    between atoms: C_9  and  N_10 
REMARK    4  A    between atoms: N_10  and  N_11 
REMARK       I    between atoms: N_10  and  C_22 
REMARK       I    between atoms: N_11  and  C_12 
REMARK       I    between atoms: C_12  and  N_13 
REMARK    5  A    between atoms: N_13  and  C_14 
REMARK       I    between atoms: C_22  and  N_23 
REMARK    6  A    between atoms: N_23  and  C_24 
ROOT
HETATM    1  N   UNL     1      23.760  47.443  49.580  1.00  0.00    -0.195 N 
HETATM    2  C   UNL     1      23.107  46.213  49.411  1.00  0.00     0.340 C 
HETATM    3  N   UNL     1      21.907  46.231  48.731  1.00  0.00    -0.337 N 
HETATM    4  O   UNL     1      23.615  45.150  49.785  1.00  0.00    -0.245 OA
HETATM    5  H   UNL     1      21.661  47.094  48.270  1.00  0.00     0.164 HD
ENDROOT
BRANCH   1   6
HETATM    6  C   UNL     1      23.182  48.644  49.192  1.00  0.00     0.193 A 
HETATM    7  N   UNL     1      21.898  48.905  49.284  1.00  0.00    -0.222 NA
HETATM    8  C   UNL     1      21.661  50.218  48.908  1.00  0.00     0.076 A 
HETATM    9  C   UNL     1      22.764  50.886  48.410  1.00  0.00     0.085 A 
HETATM   10  S   UNL     1      24.148  49.869  48.491  1.00  0.00    -0.060 SA
BRANCH   8  11
HETATM   11  C   UNL     1      20.352  50.819  49.117  1.00  0.00    -0.007 A 
HETATM   12  C   UNL     1      19.455  50.191  49.994  1.00  0.00     0.016 A 
HETATM   13  C   UNL     1      18.193  50.738  50.250  1.00  0.00     0.037 A 
HETATM   14  C   UNL     1      17.806  51.920  49.620  1.00  0.00     0.068 A 
HETATM   15  C   UNL     1      18.697  52.551  48.748  1.00  0.00     0.037 A 
HETATM   16  C   UNL     1      19.962  52.007  48.493  1.00  0.00     0.016 A 
BRANCH  14  17
HETATM   17  O   UNL     1      16.604  52.552  49.775  1.00  0.00    -0.356 OA
HETATM   18  C   UNL     1      15.549  52.134  48.917  1.00  0.00     0.210 C 
ENDBRANCH  14  17
ENDBRANCH   8  11
ENDBRANCH   1   6
BRANCH   1  19
HETATM   19  N   UNL     1      25.185  47.406  49.400  1.00  0.00    -0.142 NA
HETATM   20  C   UNL     1      26.023  47.489  50.493  1.00  0.00     0.317 C 
HETATM   21  N   UNL     1      25.623  46.754  51.579  1.00  0.00    -0.312 N 
HETATM   22  O   UNL     1      27.050  48.155  50.397  1.00  0.00    -0.252 OA
HETATM   23  H   UNL     1      24.909  46.061  51.367  1.00  0.00     0.170 HD
HETATM   24  H   UNL     1      25.494  48.017  48.646  1.00  0.00     0.158 HD
BRANCH  21  25
HETATM   25  C   UNL     1      26.257  46.647  52.831  1.00  0.00     0.036 A 
HETATM   26  C   UNL     1      26.171  47.618  53.831  1.00  0.00     0.031 A 
HETATM   27  C   UNL     1      26.840  47.444  55.047  1.00  0.00     0.026 A 
HETATM   28  C   UNL     1      27.594  46.295  55.267  1.00  0.00     0.034 A 
HETATM   29 CL   UNL     1      28.423  46.085  56.760  1.00  0.00    -0.084 Cl
HETATM   30  C   UNL     1      27.678  45.314  54.283  1.00  0.00     0.026 A 
HETATM   31  C   UNL     1      27.008  45.489  53.070  1.00  0.00     0.031 A 
ENDBRANCH  21  25
ENDBRANCH   1  19
BRANCH   3  32
HETATM   32  C   UNL     1      21.354  45.026  48.123  1.00  0.00     0.086 C 
HETATM   33  C   UNL     1      19.820  45.063  48.155  1.00  0.00     0.025 C 
HETATM   34  C   UNL     1      19.228  46.108  47.207  1.00  0.00     0.002 C 
HETATM   35  C   UNL     1      19.764  45.964  45.785  1.00  0.00     0.000 C 
HETATM   36  C   UNL     1      21.289  45.943  45.746  1.00  0.00     0.002 C 
HETATM   37  C   UNL     1      21.860  44.873  46.679  1.00  0.00     0.025 C 
ENDBRANCH   3  32
TORSDOF 6
ENDMDL
MODEL 3
REMARK VINA RESULT:      -8.7      2.875      6.492
REMARK  6 active torsions:
REMARK  status: ('A' for Active; 'I' for Inactive)
REMARK    1  A    between atoms: O_2  and  C_3 
REMARK    2  A    between atoms: C_6  and  C_7 
REMARK    3  A    between atoms: C_9  and  N_10 
REMARK    4  A    between atoms: N_10  and  N_11 
REMARK       I    between atoms: N_10  and  C_22 
REMARK       I    between atoms: N_11  and  C_12 
REMARK       I    between atoms: C_12  and  N_13 
REMARK    5  A    between atoms: N_13  and  C_14 
REMARK       I    between atoms: C_22  and  N_23 
REMARK    6  A    between atoms: N_23  and  C_24 
ROOT
HETATM    1  N   UNL     1      26.538  42.535  50.447  1.00  0.00    -0.195 N 
HETATM    2  C   UNL     1      26.695  41.868  49.222  1.00  0.00     0.340 C 
HETATM    3  N   UNL     1      27.684  40.910  49.156  1.00  0.00    -0.337 N 
HETATM    4  O   UNL     1      25.936  42.073  48.269  1.00  0.00    -0.245 OA
HETATM    5  H   UNL     1      28.118  40.646  50.028  1.00  0.00     0.164 HD
ENDROOT
BRANCH   1   6
HETATM    6  C   UNL     1      27.406  42.335  51.511  1.00  0.00     0.193 A 
HETATM    7  N   UNL     1      27.937  43.305  52.219  1.00  0.00    -0.222 NA
HETATM    8  C   UNL     1      28.674  42.771  53.264  1.00  0.00     0.076 A 
HETATM    9  C   UNL     1      28.792  41.394  53.245  1.00  0.00     0.085 A 
HETATM   10  S   UNL     1      27.890  40.749  51.931  1.00  0.00    -0.060 SA
BRANCH   8  11
HETATM   11  C   UNL     1      29.193  43.633  54.315  1.00  0.00    -0.007 A 
HETATM   12  C   UNL     1      28.493  44.808  54.631  1.00  0.00     0.016 A 
HETATM   13  C   UNL     1      28.934  45.660  55.648  1.00  0.00     0.037 A 
HETATM   14  C   UNL     1      30.093  45.354  56.359  1.00  0.00     0.068 A 
HETATM   15  C   UNL     1      30.793  44.185  56.051  1.00  0.00     0.037 A 
HETATM   16  C   UNL     1      30.351  43.328  55.036  1.00  0.00     0.016 A 
BRANCH  14  17
HETATM   17  O   UNL     1      30.635  46.104  57.366  1.00  0.00    -0.356 OA
HETATM   18  C   UNL     1      30.902  45.428  58.589  1.00  0.00     0.210 C 
ENDBRANCH  14  17
ENDBRANCH   8  11
ENDBRANCH   1   6
BRANCH   1  19
HETATM   19  N   UNL     1      25.176  42.759  50.848  1.00  0.00    -0.142 NA
HETATM   20  C   UNL     1      24.661  44.039  50.862  1.00  0.00     0.317 C 
HETATM   21  N   UNL     1      25.012  44.811  49.786  1.00  0.00    -0.312 N 
HETATM   22  O   UNL     1      23.916  44.362  51.783  1.00  0.00    -0.252 OA
HETATM   23  H   UNL     1      25.397  44.281  49.006  1.00  0.00     0.170 HD
HETATM   24  H   UNL     1      24.937  42.250  51.697  1.00  0.00     0.158 HD
BRANCH  21  25
HETATM   25  C   UNL     1      24.655  46.147  49.527  1.00  0.00     0.036 A 
HETATM   26  C   UNL     1      23.378  46.545  49.122  1.00  0.00     0.031 A 
HETATM   27  C   UNL     1      23.104  47.894  48.873  1.00  0.00     0.026 A 
HETATM   28  C   UNL     1      24.105  48.848  49.032  1.00  0.00     0.034 A 
HETATM   29 CL   UNL     1      23.767  50.506  48.717  1.00  0.00    -0.084 Cl
HETATM   30  C   UNL     1      25.377  48.466  49.446  1.00  0.00     0.026 A 
HETATM   31  C   UNL     1      25.649  47.119  49.696  1.00  0.00     0.031 A 
ENDBRANCH  21  25
ENDBRANCH   1  19
BRANCH   3  32
HETATM   32  C   UNL     1      27.678  39.872  48.130  1.00  0.00     0.086 C 
HETATM   33  C   UNL     1      29.015  39.121  48.116  1.00  0.00     0.025 C 
HETATM   34  C   UNL     1      29.218  38.240  49.351  1.00  0.00     0.002 C 
HETATM   35  C   UNL     1      28.039  37.300  49.586  1.00  0.00     0.000 C 
HETATM   36  C   UNL     1      26.708  38.045  49.617  1.00  0.00     0.002 C 
HETATM   37  C   UNL     1      26.512  38.897  48.361  1.00  0.00     0.025 C 
ENDBRANCH   3  32
TORSDOF 6
ENDMDL
MODEL 4
REMARK VINA RESULT:      -8.6      1.891      2.285
REMARK  6 active torsions:
REMARK  status: ('A' for Active; 'I' for Inactive)
REMARK    1  A    between atoms: O_2  and  C_3 
REMARK    2  A    between atoms: C_6  and  C_7 
REMARK    3  A    between atoms: C_9  and  N_10 
REMARK    4  A    between atoms: N_10  and  N_11 
REMARK       I    between atoms: N_10  and  C_22 
REMARK       I    between atoms: N_11  and  C_12 
REMARK       I    between atoms: C_12  and  N_13 
REMARK    5  A    between atoms: N_13  and  C_14 
REMARK       I    between atoms: C_22  and  N_23 
REMARK    6  A    between atoms: N_23  and  C_24 
ROOT
HETATM    1  N   UNL     1      23.864  46.165  49.885  1.00  0.00    -0.195 N 
HETATM    2  C   UNL     1      24.651  46.511  50.994  1.00  0.00     0.340 C 
HETATM    3  N   UNL     1      25.344  45.491  51.611  1.00  0.00    -0.337 N 
HETATM    4  O   UNL     1      24.780  47.685  51.357  1.00  0.00    -0.245 OA
HETATM    5  H   UNL     1      25.362  44.603  51.133  1.00  0.00     0.164 HD
ENDROOT
BRANCH   1   6
HETATM    6  C   UNL     1      23.687  44.846  49.489  1.00  0.00     0.193 A 
HETATM    7  N   UNL     1      24.666  43.981  49.359  1.00  0.00    -0.222 NA
HETATM    8  C   UNL     1      24.148  42.734  49.048  1.00  0.00     0.076 A 
HETATM    9  C   UNL     1      22.785  42.713  48.818  1.00  0.00     0.085 A 
HETATM   10  S   UNL     1      22.127  44.280  49.078  1.00  0.00    -0.060 SA
BRANCH   8  11
HETATM   11  C   UNL     1      25.006  41.557  49.054  1.00  0.00    -0.007 A 
HETATM   12  C   UNL     1      25.696  41.234  50.232  1.00  0.00     0.016 A 
HETATM   13  C   UNL     1      26.515  40.102  50.300  1.00  0.00     0.037 A 
HETATM   14  C   UNL     1      26.664  39.282  49.184  1.00  0.00     0.068 A 
HETATM   15  C   UNL     1      25.977  39.598  48.009  1.00  0.00     0.037 A 
HETATM   16  C   UNL     1      25.154  40.728  47.939  1.00  0.00     0.016 A 
BRANCH  14  17
HETATM   17  O   UNL     1      27.437  38.156  49.116  1.00  0.00    -0.356 OA
HETATM   18  C   UNL     1      28.689  38.201  49.791  1.00  0.00     0.210 C 
ENDBRANCH  14  17
ENDBRANCH   8  11
ENDBRANCH   1   6
BRANCH   1  19
HETATM   19  N   UNL     1      23.914  47.093  48.788  1.00  0.00    -0.142 NA
HETATM   20  C   UNL     1      22.813  47.869  48.488  1.00  0.00     0.317 C 
HETATM   21  N   UNL     1      22.168  48.395  49.576  1.00  0.00    -0.312 N 
HETATM   22  O   UNL     1      22.533  48.059  47.308  1.00  0.00    -0.252 OA
HETATM   23  H   UNL     1      22.710  48.353  50.437  1.00  0.00     0.170 HD
HETATM   24  H   UNL     1      24.318  46.677  47.951  1.00  0.00     0.158 HD
BRANCH  21  25
HETATM   25  C   UNL     1      21.021  49.209  49.591  1.00  0.00     0.036 A 
HETATM   26  C   UNL     1      19.719  48.715  49.709  1.00  0.00     0.031 A 
HETATM   27  C   UNL     1      18.627  49.589  49.704  1.00  0.00     0.026 A 
HETATM   28  C   UNL     1      18.835  50.960  49.586  1.00  0.00     0.034 A 
HETATM   29 CL   UNL     1      17.490  52.033  49.572  1.00  0.00    -0.084 Cl
HETATM   30  C   UNL     1      20.127  51.466  49.480  1.00  0.00     0.026 A 
HETATM   31  C   UNL     1      21.216  50.592  49.486  1.00  0.00     0.031 A 
ENDBRANCH  21  25
ENDBRANCH   1  19
BRANCH   3  32
HETATM   32  C   UNL     1      26.495  45.756  52.466  1.00  0.00     0.086 C 
HETATM   33  C   UNL     1      26.048  45.968  53.919  1.00  0.00     0.025 C 
HETATM   34  C   UNL     1      25.542  44.685  54.582  1.00  0.00     0.002 C 
HETATM   35  C   UNL     1      26.544  43.540  54.456  1.00  0.00     0.000 C 
HETATM   36  C   UNL     1      26.979  43.315  53.011  1.00  0.00     0.002 C 
HETATM   37  C   UNL     1      27.508  44.602  52.376  1.00  0.00     0.025 C 
ENDBRANCH   3  32
TORSDOF 6
ENDMDL
MODEL 5
REMARK VINA RESULT:      -8.3      4.651      8.598
REMARK  6 active torsions:
REMARK  status: ('A' for Active; 'I' for Inactive)
REMARK    1  A    between atoms: O_2  and  C_3 
REMARK    2  A    between atoms: C_6  and  C_7 
REMARK    3  A    between atoms: C_9  and  N_10 
REMARK    4  A    between atoms: N_10  and  N_11 
REMARK       I    between atoms: N_10  and  C_22 
REMARK       I    between atoms: N_11  and  C_12 
REMARK       I    between atoms: C_12  and  N_13 
REMARK    5  A    between atoms: N_13  and  C_14 
REMARK       I    between atoms: C_22  and  N_23 
REMARK    6  A    between atoms: N_23  and  C_24 
ROOT
HETATM    1  N   UNL     1      26.629  42.214  49.818  1.00  0.00    -0.195 N 
HETATM    2  C   UNL     1      25.484  43.015  49.947  1.00  0.00     0.340 C 
HETATM    3  N   UNL     1      25.341  43.714  51.127  1.00  0.00    -0.337 N 
HETATM    4  O   UNL     1      24.677  43.149  49.021  1.00  0.00    -0.245 OA
HETATM    5  H   UNL     1      26.138  43.726  51.745  1.00  0.00     0.164 HD
ENDROOT
BRANCH   1   6
HETATM    6  C   UNL     1      27.523  42.032  50.864  1.00  0.00     0.193 A 
HETATM    7  N   UNL     1      27.967  43.003  51.628  1.00  0.00    -0.222 NA
HETATM    8  C   UNL     1      28.763  42.478  52.634  1.00  0.00     0.076 A 
HETATM    9  C   UNL     1      29.012  41.122  52.529  1.00  0.00     0.085 A 
HETATM   10  S   UNL     1      28.161  40.477  51.181  1.00  0.00    -0.060 SA
BRANCH   8  11
HETATM   11  C   UNL     1      29.209  43.320  53.735  1.00  0.00    -0.007 A 
HETATM   12  C   UNL     1      28.437  44.438  54.084  1.00  0.00     0.016 A 
HETATM   13  C   UNL     1      28.807  45.267  55.148  1.00  0.00     0.037 A 
HETATM   14  C   UNL     1      29.965  44.994  55.873  1.00  0.00     0.068 A 
HETATM   15  C   UNL     1      30.737  43.880  55.531  1.00  0.00     0.037 A 
HETATM   16  C   UNL     1      30.367  43.047  54.469  1.00  0.00     0.016 A 
BRANCH  14  17
HETATM   17  O   UNL     1      30.441  45.726  56.925  1.00  0.00    -0.356 OA
HETATM   18  C   UNL     1      30.796  45.001  58.097  1.00  0.00     0.210 C 
ENDBRANCH  14  17
ENDBRANCH   8  11
ENDBRANCH   1   6
BRANCH   1  19
HETATM   19  N   UNL     1      27.256  42.251  48.525  1.00  0.00    -0.142 NA
HETATM   20  C   UNL     1      27.619  41.077  47.898  1.00  0.00     0.317 C 
HETATM   21  N   UNL     1      26.696  40.068  47.992  1.00  0.00    -0.312 N 
HETATM   22  O   UNL     1      28.682  41.042  47.286  1.00  0.00    -0.252 OA
HETATM   23  H   UNL     1      25.774  40.378  48.293  1.00  0.00     0.170 HD
HETATM   24  H   UNL     1      28.000  42.946  48.478  1.00  0.00     0.158 HD
BRANCH  21  25
HETATM   25  C   UNL     1      26.785  38.764  47.470  1.00  0.00     0.036 A 
HETATM   26  C   UNL     1      27.055  38.481  46.129  1.00  0.00     0.031 A 
HETATM   27  C   UNL     1      27.116  37.156  45.683  1.00  0.00     0.026 A 
HETATM   28  C   UNL     1      26.911  36.112  46.580  1.00  0.00     0.034 A 
HETATM   29 CL   UNL     1      26.979  34.483  46.028  1.00  0.00    -0.084 Cl
HETATM   30  C   UNL     1      26.653  36.379  47.921  1.00  0.00     0.026 A 
HETATM   31  C   UNL     1      26.594  37.703  48.364  1.00  0.00     0.031 A 
ENDBRANCH  21  25
ENDBRANCH   1  19
BRANCH   3  32
HETATM   32  C   UNL     1      24.465  44.876  51.227  1.00  0.00     0.086 C 
HETATM   33  C   UNL     1      24.787  45.687  52.488  1.00  0.00     0.025 C 
HETATM   34  C   UNL     1      26.136  46.406  52.408  1.00  0.00     0.002 C 
HETATM   35  C   UNL     1      26.262  47.249  51.142  1.00  0.00     0.000 C 
HETATM   36  C   UNL     1      25.958  46.443  49.883  1.00  0.00     0.002 C 
HETATM   37  C   UNL     1      24.594  45.755  49.972  1.00  0.00     0.025 C 
ENDBRANCH   3  32
TORSDOF 6
ENDMDL
MODEL 6
REMARK VINA RESULT:      -8.2      6.776      9.832
REMARK  6 active torsions:
REMARK  status: ('A' for Active; 'I' for Inactive)
REMARK    1  A    between atoms: O_2  and  C_3 
REMARK    2  A    between atoms: C_6  and  C_7 
REMARK    3  A    between atoms: C_9  and  N_10 
REMARK    4  A    between atoms: N_10  and  N_11 
REMARK       I    between atoms: N_10  and  C_22 
REMARK       I    between atoms: N_11  and  C_12 
REMARK       I    between atoms: C_12  and  N_13 
REMARK    5  A    between atoms: N_13  and  C_14 
REMARK       I    between atoms: C_22  and  N_23 
REMARK    6  A    between atoms: N_23  and  C_24 
ROOT
HETATM    1  N   UNL     1      16.858  47.251  47.607  1.00  0.00    -0.195 N 
HETATM    2  C   UNL     1      16.295  48.448  48.075  1.00  0.00     0.340 C 
HETATM    3  N   UNL     1      17.163  49.384  48.597  1.00  0.00    -0.337 N 
HETATM    4  O   UNL     1      15.089  48.687  47.958  1.00  0.00    -0.245 OA
HETATM    5  H   UNL     1      18.148  49.211  48.464  1.00  0.00     0.164 HD
ENDROOT
BRANCH   1   6
HETATM    6  C   UNL     1      18.206  46.960  47.764  1.00  0.00     0.193 A 
HETATM    7  N   UNL     1      19.168  47.847  47.650  1.00  0.00    -0.222 NA
HETATM    8  C   UNL     1      20.384  47.259  47.960  1.00  0.00     0.076 A 
HETATM    9  C   UNL     1      20.330  45.895  48.176  1.00  0.00     0.085 A 
HETATM   10  S   UNL     1      18.703  45.351  48.066  1.00  0.00    -0.060 SA
BRANCH   8  11
HETATM   11  C   UNL     1      21.579  48.076  48.112  1.00  0.00    -0.007 A 
HETATM   12  C   UNL     1      21.548  49.405  47.662  1.00  0.00     0.016 A 
HETATM   13  C   UNL     1      22.661  50.241  47.804  1.00  0.00     0.037 A 
HETATM   14  C   UNL     1      23.828  49.754  48.389  1.00  0.00     0.068 A 
HETATM   15  C   UNL     1      23.863  48.432  48.841  1.00  0.00     0.037 A 
HETATM   16  C   UNL     1      22.750  47.594  48.704  1.00  0.00     0.016 A 
BRANCH  14  17
HETATM   17  O   UNL     1      24.983  50.460  48.579  1.00  0.00    -0.356 OA
HETATM   18  C   UNL     1      26.191  49.825  48.177  1.00  0.00     0.210 C 
ENDBRANCH  14  17
ENDBRANCH   8  11
ENDBRANCH   1   6
BRANCH   1  19
HETATM   19  N   UNL     1      16.302  46.755  46.378  1.00  0.00    -0.142 NA
HETATM   20  C   UNL     1      16.464  47.468  45.208  1.00  0.00     0.317 C 
HETATM   21  N   UNL     1      17.714  47.998  45.028  1.00  0.00    -0.312 N 
HETATM   22  O   UNL     1      15.521  47.533  44.424  1.00  0.00    -0.252 OA
HETATM   23  H   UNL     1      18.423  47.604  45.644  1.00  0.00     0.170 HD
HETATM   24  H   UNL     1      15.341  46.436  46.491  1.00  0.00     0.158 HD
BRANCH  21  25
HETATM   25  C   UNL     1      18.177  48.776  43.950  1.00  0.00     0.036 A 
HETATM   26  C   UNL     1      18.691  48.237  42.768  1.00  0.00     0.031 A 
HETATM   27  C   UNL     1      19.142  49.078  41.744  1.00  0.00     0.026 A 
HETATM   28  C   UNL     1      19.076  50.459  41.900  1.00  0.00     0.034 A 
HETATM   29 CL   UNL     1      19.639  51.492  40.644  1.00  0.00    -0.084 Cl
HETATM   30  C   UNL     1      18.556  51.009  43.068  1.00  0.00     0.026 A 
HETATM   31  C   UNL     1      18.104  50.168  44.088  1.00  0.00     0.031 A 
ENDBRANCH  21  25
ENDBRANCH   1  19
BRANCH   3  32
HETATM   32  C   UNL     1      16.791  50.790  48.715  1.00  0.00     0.086 C 
HETATM   33  C   UNL     1      17.457  51.421  49.945  1.00  0.00     0.025 C 
HETATM   34  C   UNL     1      18.971  51.581  49.788  1.00  0.00     0.002 C 
HETATM   35  C   UNL     1      19.341  52.314  48.502  1.00  0.00     0.000 C 
HETATM   36  C   UNL     1      18.694  51.681  47.274  1.00  0.00     0.002 C 
HETATM   37  C   UNL     1      17.178  51.555  47.438  1.00  0.00     0.025 C 
ENDBRANCH   3  32
TORSDOF 6
ENDMDL
MODEL 7
REMARK VINA RESULT:      -8.2      3.573      8.604
REMARK  6 active torsions:
REMARK  status: ('A' for Active; 'I' for Inactive)
REMARK    1  A    between atoms: O_2  and  C_3 
REMARK    2  A    between atoms: C_6  and  C_7 
REMARK    3  A    between atoms: C_9  and  N_10 
REMARK    4  A    between atoms: N_10  and  N_11 
REMARK       I    between atoms: N_10  and  C_22 
REMARK       I    between atoms: N_11  and  C_12 
REMARK       I    between atoms: C_12  and  N_13 
REMARK    5  A    between atoms: N_13  and  C_14 
REMARK       I    between atoms: C_22  and  N_23 
REMARK    6  A    between atoms: N_23  and  C_24 
ROOT
HETATM    1  N   UNL     1      25.525  44.931  50.707  1.00  0.00    -0.195 N 
HETATM    2  C   UNL     1      25.880  44.748  52.052  1.00  0.00     0.340 C 
HETATM    3  N   UNL     1      26.039  45.885  52.816  1.00  0.00    -0.337 N 
HETATM    4  O   UNL     1      25.973  43.622  52.553  1.00  0.00    -0.245 OA
HETATM    5  H   UNL     1      25.738  46.755  52.401  1.00  0.00     0.164 HD
ENDROOT
BRANCH   1   6
HETATM    6  C   UNL     1      25.450  46.191  50.129  1.00  0.00     0.193 A 
HETATM    7  N   UNL     1      24.324  46.789  49.816  1.00  0.00    -0.222 NA
HETATM    8  C   UNL     1      24.589  48.068  49.351  1.00  0.00     0.076 A 
HETATM    9  C   UNL     1      25.931  48.362  49.199  1.00  0.00     0.085 A 
HETATM   10  S   UNL     1      26.883  47.032  49.727  1.00  0.00    -0.060 SA
BRANCH   8  11
HETATM   11  C   UNL     1      23.503  49.012  49.133  1.00  0.00    -0.007 A 
HETATM   12  C   UNL     1      23.820  50.343  48.822  1.00  0.00     0.016 A 
HETATM   13  C   UNL     1      22.816  51.286  48.580  1.00  0.00     0.037 A 
HETATM   14  C   UNL     1      21.476  50.913  48.658  1.00  0.00     0.068 A 
HETATM   15  C   UNL     1      21.154  49.588  48.965  1.00  0.00     0.037 A 
HETATM   16  C   UNL     1      22.157  48.641  49.204  1.00  0.00     0.016 A 
BRANCH  14  17
HETATM   17  O   UNL     1      20.403  51.735  48.453  1.00  0.00    -0.356 OA
HETATM   18  C   UNL     1      19.387  51.716  49.449  1.00  0.00     0.210 C 
ENDBRANCH  14  17
ENDBRANCH   8  11
ENDBRANCH   1   6
BRANCH   1  19
HETATM   19  N   UNL     1      24.544  44.008  50.205  1.00  0.00    -0.142 NA
HETATM   20  C   UNL     1      24.933  42.949  49.411  1.00  0.00     0.317 C 
HETATM   21  N   UNL     1      26.074  42.312  49.823  1.00  0.00    -0.312 N 
HETATM   22  O   UNL     1      24.227  42.641  48.455  1.00  0.00    -0.252 OA
HETATM   23  H   UNL     1      26.350  42.535  50.778  1.00  0.00     0.170 HD
HETATM   24  H   UNL     1      23.729  44.483  49.821  1.00  0.00     0.158 HD
BRANCH  21  25
HETATM   25  C   UNL     1      26.719  41.216  49.219  1.00  0.00     0.036 A 
HETATM   26  C   UNL     1      27.521  41.319  48.080  1.00  0.00     0.031 A 
HETATM   27  C   UNL     1      28.120  40.179  47.531  1.00  0.00     0.026 A 
HETATM   28  C   UNL     1      27.921  38.936  48.124  1.00  0.00     0.034 A 
HETATM   29 CL   UNL     1      28.652  37.535  47.443  1.00  0.00    -0.084 Cl
HETATM   30  C   UNL     1      27.134  38.822  49.266  1.00  0.00     0.026 A 
HETATM   31  C   UNL     1      26.538  39.961  49.813  1.00  0.00     0.031 A 
ENDBRANCH  21  25
ENDBRANCH   1  19
BRANCH   3  32
HETATM   32  C   UNL     1      25.980  45.843  54.273  1.00  0.00     0.086 C 
HETATM   33  C   UNL     1      26.994  44.831  54.823  1.00  0.00     0.025 C 
HETATM   34  C   UNL     1      28.445  45.286  54.651  1.00  0.00     0.002 C 
HETATM   35  C   UNL     1      28.678  46.686  55.211  1.00  0.00     0.000 C 
HETATM   36  C   UNL     1      27.683  47.700  54.654  1.00  0.00     0.002 C 
HETATM   37  C   UNL     1      26.238  47.240  54.861  1.00  0.00     0.025 C 
ENDBRANCH   3  32
TORSDOF 6
ENDMDL
MODEL 8
REMARK VINA RESULT:      -7.6      4.597      8.969
REMARK  6 active torsions:
REMARK  status: ('A' for Active; 'I' for Inactive)
REMARK    1  A    between atoms: O_2  and  C_3 
REMARK    2  A    between atoms: C_6  and  C_7 
REMARK    3  A    between atoms: C_9  and  N_10 
REMARK    4  A    between atoms: N_10  and  N_11 
REMARK       I    between atoms: N_10  and  C_22 
REMARK       I    between atoms: N_11  and  C_12 
REMARK       I    between atoms: C_12  and  N_13 
REMARK    5  A    between atoms: N_13  and  C_14 
REMARK       I    between atoms: C_22  and  N_23 
REMARK    6  A    between atoms: N_23  and  C_24 
ROOT
HETATM    1  N   UNL     1      26.876  40.920  49.627  1.00  0.00    -0.195 N 
HETATM    2  C   UNL     1      27.998  40.649  50.425  1.00  0.00     0.340 C 
HETATM    3  N   UNL     1      28.263  41.531  51.451  1.00  0.00    -0.337 N 
HETATM    4  O   UNL     1      28.677  39.629  50.266  1.00  0.00    -0.245 OA
HETATM    5  H   UNL     1      27.550  42.216  51.655  1.00  0.00     0.164 HD
ENDROOT
BRANCH   1   6
HETATM    6  C   UNL     1      26.128  42.080  49.778  1.00  0.00     0.193 A 
HETATM    7  N   UNL     1      26.171  42.849  50.840  1.00  0.00    -0.222 NA
HETATM    8  C   UNL     1      25.385  43.972  50.636  1.00  0.00     0.076 A 
HETATM    9  C   UNL     1      24.653  43.961  49.463  1.00  0.00     0.085 A 
HETATM   10  S   UNL     1      25.022  42.546  48.559  1.00  0.00    -0.060 SA
BRANCH   8  11
HETATM   11  C   UNL     1      25.425  45.081  51.577  1.00  0.00    -0.007 A 
HETATM   12  C   UNL     1      25.619  44.803  52.938  1.00  0.00     0.016 A 
HETATM   13  C   UNL     1      25.690  45.833  53.883  1.00  0.00     0.037 A 
HETATM   14  C   UNL     1      25.555  47.159  53.478  1.00  0.00     0.068 A 
HETATM   15  C   UNL     1      25.363  47.442  52.123  1.00  0.00     0.037 A 
HETATM   16  C   UNL     1      25.296  46.414  51.175  1.00  0.00     0.016 A 
BRANCH  14  17
HETATM   17  O   UNL     1      25.595  48.253  54.297  1.00  0.00    -0.356 OA
HETATM   18  C   UNL     1      26.458  48.172  55.426  1.00  0.00     0.210 C 
ENDBRANCH  14  17
ENDBRANCH   8  11
ENDBRANCH   1   6
BRANCH   1  19
HETATM   19  N   UNL     1      26.091  39.771  49.270  1.00  0.00    -0.142 NA
HETATM   20  C   UNL     1      26.281  39.156  48.050  1.00  0.00     0.317 C 
HETATM   21  N   UNL     1      27.591  39.018  47.675  1.00  0.00    -0.312 N 
HETATM   22  O   UNL     1      25.297  38.751  47.436  1.00  0.00    -0.252 OA
HETATM   23  H   UNL     1      28.255  39.160  48.434  1.00  0.00     0.170 HD
HETATM   24  H   UNL     1      25.101  39.903  49.472  1.00  0.00     0.158 HD
BRANCH  21  25
HETATM   25  C   UNL     1      28.097  38.448  46.492  1.00  0.00     0.036 A 
HETATM   26  C   UNL     1      28.077  39.088  45.250  1.00  0.00     0.031 A 
HETATM   27  C   UNL     1      28.590  38.449  44.116  1.00  0.00     0.026 A 
HETATM   28  C   UNL     1      29.127  37.169  44.222  1.00  0.00     0.034 A 
HETATM   29 CL   UNL     1      29.750  36.382  42.825  1.00  0.00    -0.084 Cl
HETATM   30  C   UNL     1      29.164  36.525  45.455  1.00  0.00     0.026 A 
HETATM   31  C   UNL     1      28.653  37.165  46.587  1.00  0.00     0.031 A 
ENDBRANCH  21  25
ENDBRANCH   1  19
BRANCH   3  32
HETATM   32  C   UNL     1      29.102  41.157  52.584  1.00  0.00     0.086 C 
HETATM   33  C   UNL     1      30.189  42.214  52.820  1.00  0.00     0.025 C 
HETATM   34  C   UNL     1      29.632  43.535  53.355  1.00  0.00     0.002 C 
HETATM   35  C   UNL     1      28.759  43.332  54.590  1.00  0.00     0.000 C 
HETATM   36  C   UNL     1      27.666  42.294  54.355  1.00  0.00     0.002 C 
HETATM   37  C   UNL     1      28.246  40.972  53.848  1.00  0.00     0.025 C 
ENDBRANCH   3  32
TORSDOF 6
ENDMDL
MODEL 9
REMARK VINA RESULT:      -7.6      8.329     12.131
REMARK  6 active torsions:
REMARK  status: ('A' for Active; 'I' for Inactive)
REMARK    1  A    between atoms: O_2  and  C_3 
REMARK    2  A    between atoms: C_6  and  C_7 
REMARK    3  A    between atoms: C_9  and  N_10 
REMARK    4  A    between atoms: N_10  and  N_11 
REMARK       I    between atoms: N_10  and  C_22 
REMARK       I    between atoms: N_11  and  C_12 
REMARK       I    between atoms: C_12  and  N_13 
REMARK    5  A    between atoms: N_13  and  C_14 
REMARK       I    between atoms: C_22  and  N_23 
REMARK    6  A    between atoms: N_23  and  C_24 
ROOT
HETATM    1  N   UNL     1      15.855  50.442  47.781  1.00  0.00    -0.195 N 
HETATM    2  C   UNL     1      15.821  49.046  47.645  1.00  0.00     0.340 C 
HETATM    3  N   UNL     1      16.128  48.532  46.403  1.00  0.00    -0.337 N 
HETATM    4  O   UNL     1      15.599  48.304  48.608  1.00  0.00    -0.245 OA
HETATM    5  H   UNL     1      16.506  49.178  45.727  1.00  0.00     0.164 HD
ENDROOT
BRANCH   1   6
HETATM    6  C   UNL     1      16.071  51.283  46.698  1.00  0.00     0.193 A 
HETATM    7  N   UNL     1      16.986  51.078  45.780  1.00  0.00    -0.222 NA
HETATM    8  C   UNL     1      16.877  52.041  44.789  1.00  0.00     0.076 A 
HETATM    9  C   UNL     1      15.958  53.041  45.051  1.00  0.00     0.085 A 
HETATM   10  S   UNL     1      15.155  52.719  46.537  1.00  0.00    -0.060 SA
BRANCH   8  11
HETATM   11  C   UNL     1      17.638  51.918  43.555  1.00  0.00    -0.007 A 
HETATM   12  C   UNL     1      18.468  50.800  43.384  1.00  0.00     0.016 A 
HETATM   13  C   UNL     1      19.203  50.619  42.208  1.00  0.00     0.037 A 
HETATM   14  C   UNL     1      19.127  51.565  41.187  1.00  0.00     0.068 A 
HETATM   15  C   UNL     1      18.301  52.680  41.351  1.00  0.00     0.037 A 
HETATM   16  C   UNL     1      17.561  52.861  42.526  1.00  0.00     0.016 A 
BRANCH  14  17
HETATM   17  O   UNL     1      19.798  51.513  39.997  1.00  0.00    -0.356 OA
HETATM   18  C   UNL     1      21.219  51.481  40.067  1.00  0.00     0.210 C 
ENDBRANCH  14  17
ENDBRANCH   8  11
ENDBRANCH   1   6
BRANCH   1  19
HETATM   19  N   UNL     1      16.436  50.920  49.006  1.00  0.00    -0.142 NA
HETATM   20  C   UNL     1      17.719  50.552  49.353  1.00  0.00     0.317 C 
HETATM   21  N   UNL     1      18.619  50.564  48.320  1.00  0.00    -0.312 N 
HETATM   22  O   UNL     1      17.958  50.294  50.530  1.00  0.00    -0.252 OA
HETATM   23  H   UNL     1      18.295  51.068  47.497  1.00  0.00     0.170 HD
HETATM   24  H   UNL     1      15.796  50.835  49.794  1.00  0.00     0.158 HD
BRANCH  21  25
HETATM   25  C   UNL     1      19.985  50.231  48.359  1.00  0.00     0.036 A 
HETATM   26  C   UNL     1      20.463  48.919  48.426  1.00  0.00     0.031 A 
HETATM   27  C   UNL     1      21.839  48.669  48.473  1.00  0.00     0.026 A 
HETATM   28  C   UNL     1      22.740  49.730  48.450  1.00  0.00     0.034 A 
HETATM   29 CL   UNL     1      24.431  49.420  48.516  1.00  0.00    -0.084 Cl
HETATM   30  C   UNL     1      22.277  51.040  48.372  1.00  0.00     0.026 A 
HETATM   31  C   UNL     1      20.903  51.288  48.323  1.00  0.00     0.031 A 
ENDBRANCH  21  25
ENDBRANCH   1  19
BRANCH   3  32
HETATM   32  C   UNL     1      16.543  47.144  46.230  1.00  0.00     0.086 C 
HETATM   33  C   UNL     1      16.167  46.640  44.831  1.00  0.00     0.025 C 
HETATM   34  C   UNL     1      17.001  47.283  43.721  1.00  0.00     0.002 C 
HETATM   35  C   UNL     1      18.499  47.163  43.985  1.00  0.00     0.000 C 
HETATM   36  C   UNL     1      18.880  47.678  45.370  1.00  0.00     0.002 C 
HETATM   37  C   UNL     1      18.055  47.002  46.467  1.00  0.00     0.025 C 
ENDBRANCH   3  32
TORSDOF 6
ENDMDL
MODEL 10
REMARK VINA RESULT:      -7.5     18.652     21.921
REMARK  6 active torsions:
REMARK  status: ('A' for Active; 'I' for Inactive)
REMARK    1  A    between atoms: O_2  and  C_3 
REMARK    2  A    between atoms: C_6  and  C_7 
REMARK    3  A    between atoms: C_9  and  N_10 
REMARK    4  A    between atoms: N_10  and  N_11 
REMARK       I    between atoms: N_10  and  C_22 
REMARK       I    between atoms: N_11  and  C_12 
REMARK       I    between atoms: C_12  and  N_13 
REMARK    5  A    between atoms: N_13  and  C_14 
REMARK       I    between atoms: C_22  and  N_23 
REMARK    6  A    between atoms: N_23  and  C_24 
ROOT
HETATM    1  N   UNL     1      37.046  47.082  66.327  1.00  0.00    -0.195 N 
HETATM    2  C   UNL     1      36.490  46.639  67.537  1.00  0.00     0.340 C 
HETATM    3  N   UNL     1      36.486  47.533  68.586  1.00  0.00    -0.337 N 
HETATM    4  O   UNL     1      35.960  45.528  67.640  1.00  0.00    -0.245 OA
HETATM    5  H   UNL     1      36.737  48.486  68.370  1.00  0.00     0.164 HD
ENDROOT
BRANCH   1   6
HETATM    6  C   UNL     1      37.671  48.316  66.211  1.00  0.00     0.193 A 
HETATM    7  N   UNL     1      37.112  49.457  66.540  1.00  0.00    -0.222 NA
HETATM    8  C   UNL     1      38.031  50.485  66.399  1.00  0.00     0.076 A 
HETATM    9  C   UNL     1      39.237  50.111  65.835  1.00  0.00     0.085 A 
HETATM   10  S   UNL     1      39.246  48.416  65.550  1.00  0.00    -0.060 SA
BRANCH   8  11
HETATM   11  C   UNL     1      37.727  51.819  66.896  1.00  0.00    -0.007 A 
HETATM   12  C   UNL     1      37.243  51.956  68.205  1.00  0.00     0.016 A 
HETATM   13  C   UNL     1      36.956  53.215  68.741  1.00  0.00     0.037 A 
HETATM   14  C   UNL     1      37.139  54.359  67.967  1.00  0.00     0.068 A 
HETATM   15  C   UNL     1      37.623  54.229  66.662  1.00  0.00     0.037 A 
HETATM   16  C   UNL     1      37.915  52.970  66.125  1.00  0.00     0.016 A 
BRANCH  14  17
HETATM   17  O   UNL     1      36.890  55.643  68.365  1.00  0.00    -0.356 OA
HETATM   18  C   UNL     1      36.722  56.609  67.334  1.00  0.00     0.210 C 
ENDBRANCH  14  17
ENDBRANCH   8  11
ENDBRANCH   1   6
BRANCH   1  19
HETATM   19  N   UNL     1      36.327  46.689  65.146  1.00  0.00    -0.142 NA
HETATM   20  C   UNL     1      36.822  45.688  64.336  1.00  0.00     0.317 C 
HETATM   21  N   UNL     1      37.336  44.610  65.007  1.00  0.00    -0.312 N 
HETATM   22  O   UNL     1      36.725  45.815  63.119  1.00  0.00    -0.252 OA
HETATM   23  H   UNL     1      37.073  44.570  65.989  1.00  0.00     0.170 HD
HETATM   24  H   UNL     1      36.014  47.491  64.601  1.00  0.00     0.158 HD
BRANCH  21  25
HETATM   25  C   UNL     1      37.918  43.449  64.462  1.00  0.00     0.036 A 
HETATM   26  C   UNL     1      38.793  43.457  63.373  1.00  0.00     0.031 A 
HETATM   27  C   UNL     1      39.322  42.259  62.881  1.00  0.00     0.026 A 
HETATM   28  C   UNL     1      38.978  41.050  63.480  1.00  0.00     0.034 A 
HETATM   29 CL   UNL     1      39.623  39.577  62.868  1.00  0.00    -0.084 Cl
HETATM   30  C   UNL     1      38.116  41.030  64.572  1.00  0.00     0.026 A 
HETATM   31  C   UNL     1      37.591  42.227  65.063  1.00  0.00     0.031 A 
ENDBRANCH  21  25
ENDBRANCH   1  19
BRANCH   3  32
HETATM   32  C   UNL     1      35.587  47.374  69.724  1.00  0.00     0.086 C 
HETATM   33  C   UNL     1      36.240  47.909  71.005  1.00  0.00     0.025 C 
HETATM   34  C   UNL     1      36.376  49.434  71.014  1.00  0.00     0.002 C 
HETATM   35  C   UNL     1      35.050  50.130  70.717  1.00  0.00     0.000 C 
HETATM   36  C   UNL     1      34.405  49.612  69.436  1.00  0.00     0.002 C 
HETATM   37  C   UNL     1      34.253  48.090  69.458  1.00  0.00     0.025 C 
ENDBRANCH   3  32
TORSDOF 6
ENDMDL
