MODEL 1
REMARK VINA RESULT:      -9.0      0.000      0.000
REMARK  14 active torsions:
REMARK  status: ('A' for Active; 'I' for Inactive)
REMARK    1  A    between atoms: C_2  and  N_3 
REMARK    2  A    between atoms: N_3  and  C_5 
REMARK    3  A    between atoms: N_3  and  C_39 
REMARK    4  A    between atoms: C_5  and  C_6 
REMARK    5  A    between atoms: C_6  and  C_7 
REMARK    6  A    between atoms: C_7  and  N_8 
REMARK    7  A    between atoms: C_11  and  O_12 
REMARK    8  A    between atoms: C_13  and  C_14 
REMARK    9  A    between atoms: C_14  and  C_15 
REMARK   10  A    between atoms: C_18  and  O_19 
REMARK   11  A    between atoms: O_19  and  C_20 
REMARK   12  A    between atoms: C_20  and  C_21 
REMARK   13  A    between atoms: C_31  and  C_32 
REMARK   14  A    between atoms: C_35  and  O_36 
ROOT
HETATM    1  N   UNL     1      23.636  49.248  48.614  1.00  0.00    -0.333 N 
HETATM    2  C   UNL     1      24.962  49.408  48.260  1.00  0.00     0.278 C 
HETATM    3  O   UNL     1      25.441  50.156  47.429  1.00  0.00    -0.265 OA
HETATM    4  C   UNL     1      25.766  48.557  49.165  1.00  0.00     0.146 C 
HETATM    5  C   UNL     1      24.908  47.911  49.962  1.00  0.00     0.059 C 
HETATM    6  C   UNL     1      23.484  48.119  49.524  1.00  0.00     0.161 C 
ENDROOT
BRANCH   5   7
HETATM    7  C   UNL     1      25.132  47.121  51.194  1.00  0.00     0.193 C 
HETATM    8  O   UNL     1      25.067  47.688  52.284  1.00  0.00    -0.287 OA
BRANCH   7   9
HETATM    9  C   UNL     1      25.581  45.707  51.167  1.00  0.00     0.015 A 
HETATM   10  C   UNL     1      24.743  44.642  51.515  1.00  0.00     0.018 A 
HETATM   11  C   UNL     1      25.180  43.318  51.380  1.00  0.00     0.038 A 
HETATM   12  C   UNL     1      26.439  43.044  50.848  1.00  0.00     0.069 A 
HETATM   13  C   UNL     1      27.268  44.106  50.479  1.00  0.00     0.038 A 
HETATM   14  C   UNL     1      26.844  45.430  50.634  1.00  0.00     0.018 A 
BRANCH  12  15
HETATM   15  O   UNL     1      26.961  41.802  50.614  1.00  0.00    -0.347 OA
BRANCH  15  16
HETATM   16  C   UNL     1      27.305  41.011  51.750  1.00  0.00     0.214 C 
BRANCH  16  17
HETATM   17  C   UNL     1      28.169  41.822  52.685  1.00  0.00    -0.034 A 
HETATM   18  C   UNL     1      27.623  42.438  53.819  1.00  0.00     0.010 A 
HETATM   19  C   UNL     1      28.442  43.132  54.713  1.00  0.00     0.007 A 
HETATM   20  C   UNL     1      29.820  43.225  54.489  1.00  0.00    -0.062 A 
HETATM   21  C   UNL     1      30.713  43.939  55.460  1.00  0.00     0.048 C 
HETATM   22  C   UNL     1      30.368  42.610  53.359  1.00  0.00     0.007 A 
HETATM   23  C   UNL     1      29.550  41.917  52.464  1.00  0.00     0.010 A 
ENDBRANCH  16  17
ENDBRANCH  15  16
ENDBRANCH  12  15
ENDBRANCH   7   9
ENDBRANCH   5   7
BRANCH   4  24
HETATM   24  O   UNL     1      27.126  48.585  49.184  1.00  0.00    -0.355 OA
HETATM   25  H   UNL     1      27.424  47.895  48.555  1.00  0.00     0.218 HD
ENDBRANCH   4  24
BRANCH   6  26
HETATM   26  C   UNL     1      22.827  46.912  48.872  1.00  0.00    -0.030 A 
HETATM   27  C   UNL     1      21.424  46.844  48.802  1.00  0.00     0.012 A 
HETATM   28  C   UNL     1      20.784  45.755  48.203  1.00  0.00     0.037 A 
HETATM   29  C   UNL     1      21.547  44.723  47.673  1.00  0.00     0.065 A 
HETATM   30  C   UNL     1      22.933  44.758  47.741  1.00  0.00     0.037 A 
HETATM   31  C   UNL     1      23.573  45.843  48.345  1.00  0.00     0.012 A 
BRANCH  29  32
HETATM   32  O   UNL     1      20.970  43.642  47.079  1.00  0.00    -0.361 OA
HETATM   33  H   UNL     1      21.455  43.429  46.265  1.00  0.00     0.217 HD
ENDBRANCH  29  32
ENDBRANCH   6  26
BRANCH   1  34
HETATM   34  C   UNL     1      22.549  49.862  47.865  1.00  0.00     0.129 C 
BRANCH  34  35
HETATM   35  C   UNL     1      21.925  51.086  48.540  1.00  0.00     0.048 C 
BRANCH  35  36
HETATM   36  C   UNL     1      21.019  50.698  49.705  1.00  0.00     0.236 C 
BRANCH  36  37
HETATM   37  N   UNL     1      19.582  50.435  49.265  1.00  0.00    -0.072 N 
HETATM   38  H   UNL     1      19.596  50.442  48.236  1.00  0.00     0.279 HD
BRANCH  37  39
HETATM   39  C   UNL     1      18.636  51.558  49.676  1.00  0.00     0.230 C 
HETATM   40  C   UNL     1      18.503  52.596  48.576  1.00  0.00     0.034 C 
ENDBRANCH  37  39
BRANCH  37  41
HETATM   41  C   UNL     1      19.010  49.073  49.630  1.00  0.00     0.230 C 
HETATM   42  C   UNL     1      18.757  48.922  51.119  1.00  0.00     0.034 C 
ENDBRANCH  37  41
ENDBRANCH  36  37
ENDBRANCH  35  36
ENDBRANCH  34  35
ENDBRANCH   1  34
TORSDOF 14
ENDMDL
MODEL 2
REMARK VINA RESULT:      -8.8      2.923     10.095
REMARK  14 active torsions:
REMARK  status: ('A' for Active; 'I' for Inactive)
REMARK    1  A    between atoms: C_2  and  N_3 
REMARK    2  A    between atoms: N_3  and  C_5 
REMARK    3  A    between atoms: N_3  and  C_39 
REMARK    4  A    between atoms: C_5  and  C_6 
REMARK    5  A    between atoms: C_6  and  C_7 
REMARK    6  A    between atoms: C_7  and  N_8 
REMARK    7  A    between atoms: C_11  and  O_12 
REMARK    8  A    between atoms: C_13  and  C_14 
REMARK    9  A    between atoms: C_14  and  C_15 
REMARK   10  A    between atoms: C_18  and  O_19 
REMARK   11  A    between atoms: O_19  and  C_20 
REMARK   12  A    between atoms: C_20  and  C_21 
REMARK   13  A    between atoms: C_31  and  C_32 
REMARK   14  A    between atoms: C_35  and  O_36 
ROOT
HETATM    1  N   UNL     1      27.417  43.265  53.105  1.00  0.00    -0.333 N 
HETATM    2  C   UNL     1      26.299  43.872  53.645  1.00  0.00     0.278 C 
HETATM    3  O   UNL     1      25.893  43.832  54.791  1.00  0.00    -0.265 OA
HETATM    4  C   UNL     1      25.693  44.706  52.584  1.00  0.00     0.146 C 
HETATM    5  C   UNL     1      26.426  44.528  51.478  1.00  0.00     0.059 C 
HETATM    6  C   UNL     1      27.433  43.426  51.655  1.00  0.00     0.161 C 
ENDROOT
BRANCH   5   7
HETATM    7  C   UNL     1      26.443  45.267  50.195  1.00  0.00     0.193 C 
HETATM    8  O   UNL     1      27.508  45.385  49.591  1.00  0.00    -0.287 OA
BRANCH   7   9
HETATM    9  C   UNL     1      25.260  45.999  49.678  1.00  0.00     0.015 A 
HETATM   10  C   UNL     1      24.128  45.348  49.179  1.00  0.00     0.018 A 
HETATM   11  C   UNL     1      22.997  46.079  48.793  1.00  0.00     0.038 A 
HETATM   12  C   UNL     1      22.968  47.465  48.949  1.00  0.00     0.069 A 
HETATM   13  C   UNL     1      24.090  48.114  49.469  1.00  0.00     0.038 A 
HETATM   14  C   UNL     1      25.230  47.389  49.834  1.00  0.00     0.018 A 
BRANCH  12  15
HETATM   15  O   UNL     1      21.912  48.285  48.665  1.00  0.00    -0.347 OA
BRANCH  15  16
HETATM   16  C   UNL     1      22.132  49.692  48.759  1.00  0.00     0.214 C 
BRANCH  16  17
HETATM   17  C   UNL     1      20.817  50.390  49.010  1.00  0.00    -0.034 A 
HETATM   18  C   UNL     1      19.873  49.854  49.894  1.00  0.00     0.010 A 
HETATM   19  C   UNL     1      18.688  50.541  50.169  1.00  0.00     0.007 A 
HETATM   20  C   UNL     1      18.424  51.774  49.564  1.00  0.00    -0.062 A 
HETATM   21  C   UNL     1      17.171  52.536  49.878  1.00  0.00     0.048 C 
HETATM   22  C   UNL     1      19.366  52.313  48.681  1.00  0.00     0.007 A 
HETATM   23  C   UNL     1      20.550  51.626  48.404  1.00  0.00     0.010 A 
ENDBRANCH  16  17
ENDBRANCH  15  16
ENDBRANCH  12  15
ENDBRANCH   7   9
ENDBRANCH   5   7
BRANCH   4  24
HETATM   24  O   UNL     1      24.655  45.554  52.817  1.00  0.00    -0.355 OA
HETATM   25  H   UNL     1      24.503  46.040  51.980  1.00  0.00     0.218 HD
ENDBRANCH   4  24
BRANCH   6  26
HETATM   26  C   UNL     1      27.120  42.139  50.908  1.00  0.00    -0.030 A 
HETATM   27  C   UNL     1      28.144  41.199  50.693  1.00  0.00     0.012 A 
HETATM   28  C   UNL     1      27.892  40.001  50.018  1.00  0.00     0.037 A 
HETATM   29  C   UNL     1      26.611  39.738  49.551  1.00  0.00     0.065 A 
HETATM   30  C   UNL     1      25.585  40.654  49.738  1.00  0.00     0.037 A 
HETATM   31  C   UNL     1      25.838  41.855  50.406  1.00  0.00     0.012 A 
BRANCH  29  32
HETATM   32  O   UNL     1      26.316  38.585  48.889  1.00  0.00    -0.361 OA
HETATM   33  H   UNL     1      25.479  38.228  49.228  1.00  0.00     0.217 HD
ENDBRANCH  29  32
ENDBRANCH   6  26
BRANCH   1  34
HETATM   34  C   UNL     1      28.207  42.288  53.840  1.00  0.00     0.129 C 
BRANCH  34  35
HETATM   35  C   UNL     1      29.557  42.808  54.339  1.00  0.00     0.048 C 
BRANCH  35  36
HETATM   36  C   UNL     1      29.475  44.261  54.800  1.00  0.00     0.236 C 
BRANCH  36  37
HETATM   37  N   UNL     1      30.626  44.645  55.724  1.00  0.00    -0.072 N 
HETATM   38  H   UNL     1      31.312  45.134  55.134  1.00  0.00     0.279 HD
BRANCH  37  39
HETATM   39  C   UNL     1      31.351  43.426  56.284  1.00  0.00     0.230 C 
HETATM   40  C   UNL     1      31.838  43.678  57.700  1.00  0.00     0.034 C 
ENDBRANCH  37  39
BRANCH  37  41
HETATM   41  C   UNL     1      30.293  45.641  56.827  1.00  0.00     0.230 C 
HETATM   42  C   UNL     1      28.838  46.072  56.810  1.00  0.00     0.034 C 
ENDBRANCH  37  41
ENDBRANCH  36  37
ENDBRANCH  35  36
ENDBRANCH  34  35
ENDBRANCH   1  34
TORSDOF 14
ENDMDL
MODEL 3
REMARK VINA RESULT:      -8.8      2.234      3.415
REMARK  14 active torsions:
REMARK  status: ('A' for Active; 'I' for Inactive)
REMARK    1  A    between atoms: C_2  and  N_3 
REMARK    2  A    between atoms: N_3  and  C_5 
REMARK    3  A    between atoms: N_3  and  C_39 
REMARK    4  A    between atoms: C_5  and  C_6 
REMARK    5  A    between atoms: C_6  and  C_7 
REMARK    6  A    between atoms: C_7  and  N_8 
REMARK    7  A    between atoms: C_11  and  O_12 
REMARK    8  A    between atoms: C_13  and  C_14 
REMARK    9  A    between atoms: C_14  and  C_15 
REMARK   10  A    between atoms: C_18  and  O_19 
REMARK   11  A    between atoms: O_19  and  C_20 
REMARK   12  A    between atoms: C_20  and  C_21 
REMARK   13  A    between atoms: C_31  and  C_32 
REMARK   14  A    between atoms: C_35  and  O_36 
ROOT
HETATM    1  N   UNL     1      21.025  50.067  49.341  1.00  0.00    -0.333 N 
HETATM    2  C   UNL     1      22.005  50.615  48.534  1.00  0.00     0.278 C 
HETATM    3  O   UNL     1      22.232  51.789  48.307  1.00  0.00    -0.265 OA
HETATM    4  C   UNL     1      22.847  49.502  48.043  1.00  0.00     0.146 C 
HETATM    5  C   UNL     1      22.319  48.370  48.524  1.00  0.00     0.059 C 
HETATM    6  C   UNL     1      20.993  48.617  49.189  1.00  0.00     0.161 C 
ENDROOT
BRANCH   5   7
HETATM    7  C   UNL     1      22.853  46.989  48.562  1.00  0.00     0.193 C 
HETATM    8  O   UNL     1      22.359  46.140  47.821  1.00  0.00    -0.287 OA
BRANCH   7   9
HETATM    9  C   UNL     1      23.858  46.548  49.560  1.00  0.00     0.015 A 
HETATM   10  C   UNL     1      24.650  47.447  50.283  1.00  0.00     0.018 A 
HETATM   11  C   UNL     1      25.515  46.989  51.285  1.00  0.00     0.038 A 
HETATM   12  C   UNL     1      25.560  45.633  51.609  1.00  0.00     0.069 A 
HETATM   13  C   UNL     1      24.753  44.738  50.904  1.00  0.00     0.038 A 
HETATM   14  C   UNL     1      23.905  45.189  49.887  1.00  0.00     0.018 A 
BRANCH  12  15
HETATM   15  O   UNL     1      26.316  45.067  52.598  1.00  0.00    -0.347 OA
BRANCH  15  16
HETATM   16  C   UNL     1      27.299  44.111  52.205  1.00  0.00     0.214 C 
BRANCH  16  17
HETATM   17  C   UNL     1      28.376  44.034  53.260  1.00  0.00    -0.034 A 
HETATM   18  C   UNL     1      28.330  44.848  54.399  1.00  0.00     0.010 A 
HETATM   19  C   UNL     1      29.295  44.723  55.401  1.00  0.00     0.007 A 
HETATM   20  C   UNL     1      30.326  43.785  55.281  1.00  0.00    -0.062 A 
HETATM   21  C   UNL     1      31.348  43.619  56.367  1.00  0.00     0.048 C 
HETATM   22  C   UNL     1      30.374  42.969  54.146  1.00  0.00     0.007 A 
HETATM   23  C   UNL     1      29.410  43.094  53.144  1.00  0.00     0.010 A 
ENDBRANCH  16  17
ENDBRANCH  15  16
ENDBRANCH  12  15
ENDBRANCH   7   9
ENDBRANCH   5   7
BRANCH   4  24
HETATM   24  O   UNL     1      23.992  49.702  47.337  1.00  0.00    -0.355 OA
HETATM   25  H   UNL     1      23.718  49.855  46.408  1.00  0.00     0.218 HD
ENDBRANCH   4  24
BRANCH   6  26
HETATM   26  C   UNL     1      19.781  48.125  48.414  1.00  0.00    -0.030 A 
HETATM   27  C   UNL     1      18.737  47.479  49.102  1.00  0.00     0.012 A 
HETATM   28  C   UNL     1      17.604  47.021  48.426  1.00  0.00     0.037 A 
HETATM   29  C   UNL     1      17.509  47.203  47.053  1.00  0.00     0.065 A 
HETATM   30  C   UNL     1      18.530  47.824  46.347  1.00  0.00     0.037 A 
HETATM   31  C   UNL     1      19.666  48.277  47.021  1.00  0.00     0.012 A 
BRANCH  29  32
HETATM   32  O   UNL     1      16.424  46.774  46.350  1.00  0.00    -0.361 OA
HETATM   33  H   UNL     1      16.059  45.982  46.779  1.00  0.00     0.217 HD
ENDBRANCH  29  32
ENDBRANCH   6  26
BRANCH   1  34
HETATM   34  C   UNL     1      19.953  50.865  49.917  1.00  0.00     0.129 C 
BRANCH  34  35
HETATM   35  C   UNL     1      19.422  51.972  49.003  1.00  0.00     0.048 C 
BRANCH  35  36
HETATM   36  C   UNL     1      18.218  51.512  48.186  1.00  0.00     0.236 C 
BRANCH  36  37
HETATM   37  N   UNL     1      16.992  52.391  48.408  1.00  0.00    -0.072 N 
HETATM   38  H   UNL     1      17.155  53.246  47.859  1.00  0.00     0.279 HD
BRANCH  37  39
HETATM   39  C   UNL     1      16.858  52.845  49.857  1.00  0.00     0.230 C 
HETATM   40  C   UNL     1      15.466  53.380  50.140  1.00  0.00     0.034 C 
ENDBRANCH  37  39
BRANCH  37  41
HETATM   41  C   UNL     1      15.673  51.844  47.879  1.00  0.00     0.230 C 
HETATM   42  C   UNL     1      15.686  50.336  47.713  1.00  0.00     0.034 C 
ENDBRANCH  37  41
ENDBRANCH  36  37
ENDBRANCH  35  36
ENDBRANCH  34  35
ENDBRANCH   1  34
TORSDOF 14
ENDMDL
MODEL 4
REMARK VINA RESULT:      -8.8      2.725      9.561
REMARK  14 active torsions:
REMARK  status: ('A' for Active; 'I' for Inactive)
REMARK    1  A    between atoms: C_2  and  N_3 
REMARK    2  A    between atoms: N_3  and  C_5 
REMARK    3  A    between atoms: N_3  and  C_39 
REMARK    4  A    between atoms: C_5  and  C_6 
REMARK    5  A    between atoms: C_6  and  C_7 
REMARK    6  A    between atoms: C_7  and  N_8 
REMARK    7  A    between atoms: C_11  and  O_12 
REMARK    8  A    between atoms: C_13  and  C_14 
REMARK    9  A    between atoms: C_14  and  C_15 
REMARK   10  A    between atoms: C_18  and  O_19 
REMARK   11  A    between atoms: O_19  and  C_20 
REMARK   12  A    between atoms: C_20  and  C_21 
REMARK   13  A    between atoms: C_31  and  C_32 
REMARK   14  A    between atoms: C_35  and  O_36 
ROOT
HETATM    1  N   UNL     1      27.009  42.802  52.691  1.00  0.00    -0.333 N 
HETATM    2  C   UNL     1      27.933  41.989  52.063  1.00  0.00     0.278 C 
HETATM    3  O   UNL     1      29.013  41.608  52.474  1.00  0.00    -0.265 OA
HETATM    4  C   UNL     1      27.333  41.542  50.786  1.00  0.00     0.146 C 
HETATM    5  C   UNL     1      26.134  42.130  50.689  1.00  0.00     0.059 C 
HETATM    6  C   UNL     1      25.932  43.154  51.772  1.00  0.00     0.161 C 
ENDROOT
BRANCH   5   7
HETATM    7  C   UNL     1      25.004  41.883  49.766  1.00  0.00     0.193 C 
HETATM    8  O   UNL     1      24.931  40.797  49.192  1.00  0.00    -0.287 OA
BRANCH   7   9
HETATM    9  C   UNL     1      24.035  42.941  49.387  1.00  0.00     0.015 A 
HETATM   10  C   UNL     1      22.867  43.191  50.115  1.00  0.00     0.018 A 
HETATM   11  C   UNL     1      22.032  44.264  49.777  1.00  0.00     0.038 A 
HETATM   12  C   UNL     1      22.383  45.128  48.740  1.00  0.00     0.069 A 
HETATM   13  C   UNL     1      23.560  44.893  48.028  1.00  0.00     0.038 A 
HETATM   14  C   UNL     1      24.385  43.809  48.347  1.00  0.00     0.018 A 
BRANCH  12  15
HETATM   15  O   UNL     1      21.687  46.238  48.348  1.00  0.00    -0.347 OA
BRANCH  15  16
HETATM   16  C   UNL     1      22.446  47.370  47.923  1.00  0.00     0.214 C 
BRANCH  16  17
HETATM   17  C   UNL     1      21.604  48.616  48.052  1.00  0.00    -0.034 A 
HETATM   18  C   UNL     1      20.212  48.536  48.187  1.00  0.00     0.010 A 
HETATM   19  C   UNL     1      19.450  49.692  48.372  1.00  0.00     0.007 A 
HETATM   20  C   UNL     1      20.063  50.948  48.422  1.00  0.00    -0.062 A 
HETATM   21  C   UNL     1      19.258  52.192  48.653  1.00  0.00     0.048 C 
HETATM   22  C   UNL     1      21.453  51.031  48.288  1.00  0.00     0.007 A 
HETATM   23  C   UNL     1      22.216  49.876  48.102  1.00  0.00     0.010 A 
ENDBRANCH  16  17
ENDBRANCH  15  16
ENDBRANCH  12  15
ENDBRANCH   7   9
ENDBRANCH   5   7
BRANCH   4  24
HETATM   24  O   UNL     1      27.918  40.613  49.984  1.00  0.00    -0.355 OA
HETATM   25  H   UNL     1      27.523  39.750  50.228  1.00  0.00     0.218 HD
ENDBRANCH   4  24
BRANCH   6  26
HETATM   26  C   UNL     1      25.991  44.601  51.310  1.00  0.00    -0.030 A 
HETATM   27  C   UNL     1      26.944  44.980  50.346  1.00  0.00     0.012 A 
HETATM   28  C   UNL     1      27.024  46.299  49.891  1.00  0.00     0.037 A 
HETATM   29  C   UNL     1      26.150  47.250  50.400  1.00  0.00     0.065 A 
HETATM   30  C   UNL     1      25.209  46.906  51.362  1.00  0.00     0.037 A 
HETATM   31  C   UNL     1      25.134  45.590  51.823  1.00  0.00     0.012 A 
BRANCH  29  32
HETATM   32  O   UNL     1      26.188  48.547  49.987  1.00  0.00    -0.361 OA
HETATM   33  H   UNL     1      26.470  48.577  49.058  1.00  0.00     0.217 HD
ENDBRANCH  29  32
ENDBRANCH   6  26
BRANCH   1  34
HETATM   34  C   UNL     1      27.303  43.504  53.932  1.00  0.00     0.129 C 
BRANCH  34  35
HETATM   35  C   UNL     1      28.515  44.436  53.862  1.00  0.00     0.048 C 
BRANCH  35  36
HETATM   36  C   UNL     1      28.674  45.265  55.134  1.00  0.00     0.236 C 
BRANCH  36  37
HETATM   37  N   UNL     1      30.069  45.145  55.739  1.00  0.00    -0.072 N 
HETATM   38  H   UNL     1      30.677  45.747  55.168  1.00  0.00     0.279 HD
BRANCH  37  39
HETATM   39  C   UNL     1      30.637  43.736  55.608  1.00  0.00     0.230 C 
HETATM   40  C   UNL     1      31.408  43.336  56.854  1.00  0.00     0.034 C 
ENDBRANCH  37  39
BRANCH  37  41
HETATM   41  C   UNL     1      30.230  45.673  57.157  1.00  0.00     0.230 C 
HETATM   42  C   UNL     1      28.912  46.092  57.782  1.00  0.00     0.034 C 
ENDBRANCH  37  41
ENDBRANCH  36  37
ENDBRANCH  35  36
ENDBRANCH  34  35
ENDBRANCH   1  34
TORSDOF 14
ENDMDL
MODEL 5
REMARK VINA RESULT:      -8.6      1.599      2.474
REMARK  14 active torsions:
REMARK  status: ('A' for Active; 'I' for Inactive)
REMARK    1  A    between atoms: C_2  and  N_3 
REMARK    2  A    between atoms: N_3  and  C_5 
REMARK    3  A    between atoms: N_3  and  C_39 
REMARK    4  A    between atoms: C_5  and  C_6 
REMARK    5  A    between atoms: C_6  and  C_7 
REMARK    6  A    between atoms: C_7  and  N_8 
REMARK    7  A    between atoms: C_11  and  O_12 
REMARK    8  A    between atoms: C_13  and  C_14 
REMARK    9  A    between atoms: C_14  and  C_15 
REMARK   10  A    between atoms: C_18  and  O_19 
REMARK   11  A    between atoms: O_19  and  C_20 
REMARK   12  A    between atoms: C_20  and  C_21 
REMARK   13  A    between atoms: C_31  and  C_32 
REMARK   14  A    between atoms: C_35  and  O_36 
ROOT
HETATM    1  N   UNL     1      22.981  49.396  49.322  1.00  0.00    -0.333 N 
HETATM    2  C   UNL     1      23.503  50.196  48.324  1.00  0.00     0.278 C 
HETATM    3  O   UNL     1      22.986  51.144  47.763  1.00  0.00    -0.265 OA
HETATM    4  C   UNL     1      24.901  49.768  48.100  1.00  0.00     0.146 C 
HETATM    5  C   UNL     1      25.129  48.731  48.914  1.00  0.00     0.059 C 
HETATM    6  C   UNL     1      23.865  48.265  49.582  1.00  0.00     0.161 C 
ENDROOT
BRANCH   5   7
HETATM    7  C   UNL     1      26.389  48.053  49.294  1.00  0.00     0.193 C 
HETATM    8  O   UNL     1      27.425  48.345  48.697  1.00  0.00    -0.287 OA
BRANCH   7   9
HETATM    9  C   UNL     1      26.432  46.929  50.261  1.00  0.00     0.015 A 
HETATM   10  C   UNL     1      26.881  45.650  49.914  1.00  0.00     0.018 A 
HETATM   11  C   UNL     1      26.996  44.647  50.884  1.00  0.00     0.038 A 
HETATM   12  C   UNL     1      26.711  44.926  52.221  1.00  0.00     0.069 A 
HETATM   13  C   UNL     1      26.285  46.208  52.573  1.00  0.00     0.038 A 
HETATM   14  C   UNL     1      26.147  47.206  51.602  1.00  0.00     0.018 A 
BRANCH  12  15
HETATM   15  O   UNL     1      26.836  44.056  53.269  1.00  0.00    -0.347 OA
BRANCH  15  16
HETATM   16  C   UNL     1      28.123  43.483  53.496  1.00  0.00     0.214 C 
BRANCH  16  17
HETATM   17  C   UNL     1      28.754  44.128  54.706  1.00  0.00    -0.034 A 
HETATM   18  C   UNL     1      30.042  43.771  55.125  1.00  0.00     0.010 A 
HETATM   19  C   UNL     1      30.642  44.420  56.206  1.00  0.00     0.007 A 
HETATM   20  C   UNL     1      29.965  45.436  56.890  1.00  0.00    -0.062 A 
HETATM   21  C   UNL     1      30.614  46.163  58.031  1.00  0.00     0.048 C 
HETATM   22  C   UNL     1      28.679  45.796  56.473  1.00  0.00     0.007 A 
HETATM   23  C   UNL     1      28.078  45.146  55.393  1.00  0.00     0.010 A 
ENDBRANCH  16  17
ENDBRANCH  15  16
ENDBRANCH  12  15
ENDBRANCH   7   9
ENDBRANCH   5   7
BRANCH   4  24
HETATM   24  O   UNL     1      25.754  50.441  47.281  1.00  0.00    -0.355 OA
HETATM   25  H   UNL     1      26.589  50.549  47.784  1.00  0.00     0.218 HD
ENDBRANCH   4  24
BRANCH   6  26
HETATM   26  C   UNL     1      23.312  46.945  49.068  1.00  0.00    -0.030 A 
HETATM   27  C   UNL     1      22.603  46.919  47.853  1.00  0.00     0.012 A 
HETATM   28  C   UNL     1      22.088  45.725  47.344  1.00  0.00     0.037 A 
HETATM   29  C   UNL     1      22.276  44.545  48.051  1.00  0.00     0.065 A 
HETATM   30  C   UNL     1      22.960  44.543  49.259  1.00  0.00     0.037 A 
HETATM   31  C   UNL     1      23.469  45.739  49.772  1.00  0.00     0.012 A 
BRANCH  29  32
HETATM   32  O   UNL     1      21.793  43.355  47.596  1.00  0.00    -0.361 OA
HETATM   33  H   UNL     1      22.190  42.633  48.111  1.00  0.00     0.217 HD
ENDBRANCH  29  32
ENDBRANCH   6  26
BRANCH   1  34
HETATM   34  C   UNL     1      21.586  49.470  49.733  1.00  0.00     0.129 C 
BRANCH  34  35
HETATM   35  C   UNL     1      21.192  50.787  50.404  1.00  0.00     0.048 C 
BRANCH  35  36
HETATM   36  C   UNL     1      19.746  51.173  50.102  1.00  0.00     0.236 C 
BRANCH  36  37
HETATM   37  N   UNL     1      19.132  50.319  48.998  1.00  0.00    -0.072 N 
HETATM   38  H   UNL     1      19.855  49.637  48.734  1.00  0.00     0.279 HD
BRANCH  37  39
HETATM   39  C   UNL     1      18.839  51.125  47.737  1.00  0.00     0.230 C 
HETATM   40  C   UNL     1      18.630  52.594  48.060  1.00  0.00     0.034 C 
ENDBRANCH  37  39
BRANCH  37  41
HETATM   41  C   UNL     1      17.934  49.470  49.399  1.00  0.00     0.230 C 
HETATM   42  C   UNL     1      17.667  48.335  48.428  1.00  0.00     0.034 C 
ENDBRANCH  37  41
ENDBRANCH  36  37
ENDBRANCH  35  36
ENDBRANCH  34  35
ENDBRANCH   1  34
TORSDOF 14
ENDMDL
MODEL 6
REMARK VINA RESULT:      -8.4      2.866      9.749
REMARK  14 active torsions:
REMARK  status: ('A' for Active; 'I' for Inactive)
REMARK    1  A    between atoms: C_2  and  N_3 
REMARK    2  A    between atoms: N_3  and  C_5 
REMARK    3  A    between atoms: N_3  and  C_39 
REMARK    4  A    between atoms: C_5  and  C_6 
REMARK    5  A    between atoms: C_6  and  C_7 
REMARK    6  A    between atoms: C_7  and  N_8 
REMARK    7  A    between atoms: C_11  and  O_12 
REMARK    8  A    between atoms: C_13  and  C_14 
REMARK    9  A    between atoms: C_14  and  C_15 
REMARK   10  A    between atoms: C_18  and  O_19 
REMARK   11  A    between atoms: O_19  and  C_20 
REMARK   12  A    between atoms: C_20  and  C_21 
REMARK   13  A    between atoms: C_31  and  C_32 
REMARK   14  A    between atoms: C_35  and  O_36 
ROOT
HETATM    1  N   UNL     1      26.611  41.464  50.645  1.00  0.00    -0.333 N 
HETATM    2  C   UNL     1      27.071  41.265  49.357  1.00  0.00     0.278 C 
HETATM    3  O   UNL     1      28.120  40.766  48.994  1.00  0.00    -0.265 OA
HETATM    4  C   UNL     1      25.992  41.679  48.433  1.00  0.00     0.146 C 
HETATM    5  C   UNL     1      24.985  42.138  49.186  1.00  0.00     0.059 C 
HETATM    6  C   UNL     1      25.386  42.256  50.631  1.00  0.00     0.161 C 
ENDROOT
BRANCH   5   7
HETATM    7  C   UNL     1      23.583  42.462  48.840  1.00  0.00     0.193 C 
HETATM    8  O   UNL     1      22.742  41.564  48.864  1.00  0.00    -0.287 OA
BRANCH   7   9
HETATM    9  C   UNL     1      23.174  43.791  48.322  1.00  0.00     0.015 A 
HETATM   10  C   UNL     1      22.797  43.999  46.991  1.00  0.00     0.018 A 
HETATM   11  C   UNL     1      22.325  45.249  46.571  1.00  0.00     0.038 A 
HETATM   12  C   UNL     1      22.177  46.289  47.487  1.00  0.00     0.069 A 
HETATM   13  C   UNL     1      22.531  46.076  48.821  1.00  0.00     0.038 A 
HETATM   14  C   UNL     1      23.025  44.836  49.240  1.00  0.00     0.018 A 
BRANCH  12  15
HETATM   15  O   UNL     1      21.678  47.534  47.219  1.00  0.00    -0.347 OA
BRANCH  15  16
HETATM   16  C   UNL     1      22.314  48.645  47.850  1.00  0.00     0.214 C 
BRANCH  16  17
HETATM   17  C   UNL     1      21.264  49.573  48.410  1.00  0.00    -0.034 A 
HETATM   18  C   UNL     1      21.247  50.932  48.071  1.00  0.00     0.010 A 
HETATM   19  C   UNL     1      20.233  51.769  48.543  1.00  0.00     0.007 A 
HETATM   20  C   UNL     1      19.219  51.264  49.363  1.00  0.00    -0.062 A 
HETATM   21  C   UNL     1      18.106  52.146  49.847  1.00  0.00     0.048 C 
HETATM   22  C   UNL     1      19.232  49.906  49.702  1.00  0.00     0.007 A 
HETATM   23  C   UNL     1      20.246  49.070  49.232  1.00  0.00     0.010 A 
ENDBRANCH  16  17
ENDBRANCH  15  16
ENDBRANCH  12  15
ENDBRANCH   7   9
ENDBRANCH   5   7
BRANCH   4  24
HETATM   24  O   UNL     1      26.058  41.481  47.089  1.00  0.00    -0.355 OA
HETATM   25  H   UNL     1      27.005  41.344  46.878  1.00  0.00     0.218 HD
ENDBRANCH   4  24
BRANCH   6  26
HETATM   26  C   UNL     1      25.590  43.678  51.130  1.00  0.00    -0.030 A 
HETATM   27  C   UNL     1      26.302  44.594  50.335  1.00  0.00     0.012 A 
HETATM   28  C   UNL     1      26.502  45.911  50.756  1.00  0.00     0.037 A 
HETATM   29  C   UNL     1      25.992  46.320  51.981  1.00  0.00     0.065 A 
HETATM   30  C   UNL     1      25.297  45.433  52.792  1.00  0.00     0.037 A 
HETATM   31  C   UNL     1      25.103  44.114  52.375  1.00  0.00     0.012 A 
BRANCH  29  32
HETATM   32  O   UNL     1      26.160  47.593  52.434  1.00  0.00    -0.361 OA
HETATM   33  H   UNL     1      25.344  48.097  52.279  1.00  0.00     0.217 HD
ENDBRANCH  29  32
ENDBRANCH   6  26
BRANCH   1  34
HETATM   34  C   UNL     1      27.452  41.257  51.814  1.00  0.00     0.129 C 
BRANCH  34  35
HETATM   35  C   UNL     1      28.482  42.361  52.060  1.00  0.00     0.048 C 
BRANCH  35  36
HETATM   36  C   UNL     1      29.521  41.954  53.101  1.00  0.00     0.236 C 
BRANCH  36  37
HETATM   37  N   UNL     1      29.373  42.727  54.408  1.00  0.00    -0.072 N 
HETATM   38  H   UNL     1      29.209  42.021  55.137  1.00  0.00     0.279 HD
BRANCH  37  39
HETATM   39  C   UNL     1      28.140  43.625  54.413  1.00  0.00     0.230 C 
HETATM   40  C   UNL     1      28.526  45.089  54.522  1.00  0.00     0.034 C 
ENDBRANCH  37  39
BRANCH  37  41
HETATM   41  C   UNL     1      30.606  43.485  54.879  1.00  0.00     0.230 C 
HETATM   42  C   UNL     1      30.980  43.164  56.314  1.00  0.00     0.034 C 
ENDBRANCH  37  41
ENDBRANCH  36  37
ENDBRANCH  35  36
ENDBRANCH  34  35
ENDBRANCH   1  34
TORSDOF 14
ENDMDL
MODEL 7
REMARK VINA RESULT:      -8.2      2.469      9.740
REMARK  14 active torsions:
REMARK  status: ('A' for Active; 'I' for Inactive)
REMARK    1  A    between atoms: C_2  and  N_3 
REMARK    2  A    between atoms: N_3  and  C_5 
REMARK    3  A    between atoms: N_3  and  C_39 
REMARK    4  A    between atoms: C_5  and  C_6 
REMARK    5  A    between atoms: C_6  and  C_7 
REMARK    6  A    between atoms: C_7  and  N_8 
REMARK    7  A    between atoms: C_11  and  O_12 
REMARK    8  A    between atoms: C_13  and  C_14 
REMARK    9  A    between atoms: C_14  and  C_15 
REMARK   10  A    between atoms: C_18  and  O_19 
REMARK   11  A    between atoms: O_19  and  C_20 
REMARK   12  A    between atoms: C_20  and  C_21 
REMARK   13  A    between atoms: C_31  and  C_32 
REMARK   14  A    between atoms: C_35  and  O_36 
ROOT
HETATM    1  N   UNL     1      25.904  44.468  51.945  1.00  0.00    -0.333 N 
HETATM    2  C   UNL     1      25.588  45.340  52.970  1.00  0.00     0.278 C 
HETATM    3  O   UNL     1      25.473  45.104  54.158  1.00  0.00    -0.265 OA
HETATM    4  C   UNL     1      25.507  46.697  52.387  1.00  0.00     0.146 C 
HETATM    5  C   UNL     1      25.723  46.573  51.072  1.00  0.00     0.059 C 
HETATM    6  C   UNL     1      25.760  45.129  50.653  1.00  0.00     0.161 C 
ENDROOT
BRANCH   5   7
HETATM    7  C   UNL     1      25.991  47.592  50.032  1.00  0.00     0.193 C 
HETATM    8  O   UNL     1      27.159  47.860  49.750  1.00  0.00    -0.287 OA
BRANCH   7   9
HETATM    9  C   UNL     1      24.917  48.411  49.419  1.00  0.00     0.015 A 
HETATM   10  C   UNL     1      25.180  49.553  48.655  1.00  0.00     0.018 A 
HETATM   11  C   UNL     1      24.139  50.238  48.016  1.00  0.00     0.038 A 
HETATM   12  C   UNL     1      22.832  49.760  48.091  1.00  0.00     0.069 A 
HETATM   13  C   UNL     1      22.571  48.607  48.834  1.00  0.00     0.038 A 
HETATM   14  C   UNL     1      23.604  47.933  49.493  1.00  0.00     0.018 A 
BRANCH  12  15
HETATM   15  O   UNL     1      21.740  50.301  47.471  1.00  0.00    -0.347 OA
BRANCH  15  16
HETATM   16  C   UNL     1      20.501  49.604  47.597  1.00  0.00     0.214 C 
BRANCH  16  17
HETATM   17  C   UNL     1      19.493  50.490  48.287  1.00  0.00    -0.034 A 
HETATM   18  C   UNL     1      19.540  51.883  48.144  1.00  0.00     0.010 A 
HETATM   19  C   UNL     1      18.564  52.690  48.733  1.00  0.00     0.007 A 
HETATM   20  C   UNL     1      17.524  52.120  49.477  1.00  0.00    -0.062 A 
HETATM   21  C   UNL     1      16.452  52.975  50.084  1.00  0.00     0.048 C 
HETATM   22  C   UNL     1      17.474  50.730  49.619  1.00  0.00     0.007 A 
HETATM   23  C   UNL     1      18.450  49.922  49.032  1.00  0.00     0.010 A 
ENDBRANCH  16  17
ENDBRANCH  15  16
ENDBRANCH  12  15
ENDBRANCH   7   9
ENDBRANCH   5   7
BRANCH   4  24
HETATM   24  O   UNL     1      25.353  47.815  53.146  1.00  0.00    -0.355 OA
HETATM   25  H   UNL     1      24.526  48.244  52.840  1.00  0.00     0.218 HD
ENDBRANCH   4  24
BRANCH   6  26
HETATM   26  C   UNL     1      24.546  44.653  49.871  1.00  0.00    -0.030 A 
HETATM   27  C   UNL     1      24.658  44.437  48.485  1.00  0.00     0.012 A 
HETATM   28  C   UNL     1      23.567  43.992  47.734  1.00  0.00     0.037 A 
HETATM   29  C   UNL     1      22.352  43.763  48.367  1.00  0.00     0.065 A 
HETATM   30  C   UNL     1      22.210  43.981  49.730  1.00  0.00     0.037 A 
HETATM   31  C   UNL     1      23.299  44.433  50.480  1.00  0.00     0.012 A 
BRANCH  29  32
HETATM   32  O   UNL     1      21.261  43.328  47.678  1.00  0.00    -0.361 OA
HETATM   33  H   UNL     1      21.153  43.868  46.878  1.00  0.00     0.217 HD
ENDBRANCH  29  32
ENDBRANCH   6  26
BRANCH   1  34
HETATM   34  C   UNL     1      25.966  43.027  52.137  1.00  0.00     0.129 C 
BRANCH  34  35
HETATM   35  C   UNL     1      26.559  42.254  50.957  1.00  0.00     0.048 C 
BRANCH  35  36
HETATM   36  C   UNL     1      28.079  42.384  50.893  1.00  0.00     0.236 C 
BRANCH  36  37
HETATM   37  N   UNL     1      28.792  41.095  51.286  1.00  0.00    -0.072 N 
HETATM   38  H   UNL     1      29.773  41.216  50.999  1.00  0.00     0.279 HD
BRANCH  37  39
HETATM   39  C   UNL     1      28.278  39.888  50.509  1.00  0.00     0.230 C 
HETATM   40  C   UNL     1      29.243  38.720  50.603  1.00  0.00     0.034 C 
ENDBRANCH  37  39
BRANCH  37  41
HETATM   41  C   UNL     1      28.864  40.799  52.777  1.00  0.00     0.230 C 
HETATM   42  C   UNL     1      29.255  42.012  53.600  1.00  0.00     0.034 C 
ENDBRANCH  37  41
ENDBRANCH  36  37
ENDBRANCH  35  36
ENDBRANCH  34  35
ENDBRANCH   1  34
TORSDOF 14
ENDMDL
MODEL 8
REMARK VINA RESULT:      -8.1      2.526      4.119
REMARK  14 active torsions:
REMARK  status: ('A' for Active; 'I' for Inactive)
REMARK    1  A    between atoms: C_2  and  N_3 
REMARK    2  A    between atoms: N_3  and  C_5 
REMARK    3  A    between atoms: N_3  and  C_39 
REMARK    4  A    between atoms: C_5  and  C_6 
REMARK    5  A    between atoms: C_6  and  C_7 
REMARK    6  A    between atoms: C_7  and  N_8 
REMARK    7  A    between atoms: C_11  and  O_12 
REMARK    8  A    between atoms: C_13  and  C_14 
REMARK    9  A    between atoms: C_14  and  C_15 
REMARK   10  A    between atoms: C_18  and  O_19 
REMARK   11  A    between atoms: O_19  and  C_20 
REMARK   12  A    between atoms: C_20  and  C_21 
REMARK   13  A    between atoms: C_31  and  C_32 
REMARK   14  A    between atoms: C_35  and  O_36 
ROOT
HETATM    1  N   UNL     1      21.333  46.853  47.210  1.00  0.00    -0.333 N 
HETATM    2  C   UNL     1      21.282  45.696  47.964  1.00  0.00     0.278 C 
HETATM    3  O   UNL     1      20.636  44.685  47.761  1.00  0.00    -0.265 OA
HETATM    4  C   UNL     1      22.263  45.841  49.063  1.00  0.00     0.146 C 
HETATM    5  C   UNL     1      22.804  47.059  48.947  1.00  0.00     0.059 C 
HETATM    6  C   UNL     1      22.094  47.883  47.908  1.00  0.00     0.161 C 
ENDROOT
BRANCH   5   7
HETATM    7  C   UNL     1      23.986  47.663  49.603  1.00  0.00     0.193 C 
HETATM    8  O   UNL     1      24.194  48.867  49.461  1.00  0.00    -0.287 OA
BRANCH   7   9
HETATM    9  C   UNL     1      25.013  46.853  50.302  1.00  0.00     0.015 A 
HETATM   10  C   UNL     1      25.077  46.753  51.696  1.00  0.00     0.018 A 
HETATM   11  C   UNL     1      26.003  45.899  52.308  1.00  0.00     0.038 A 
HETATM   12  C   UNL     1      26.841  45.098  51.532  1.00  0.00     0.069 A 
HETATM   13  C   UNL     1      26.762  45.179  50.140  1.00  0.00     0.038 A 
HETATM   14  C   UNL     1      25.854  46.048  49.526  1.00  0.00     0.018 A 
BRANCH  12  15
HETATM   15  O   UNL     1      27.745  44.186  52.003  1.00  0.00    -0.347 OA
BRANCH  15  16
HETATM   16  C   UNL     1      27.450  43.552  53.246  1.00  0.00     0.214 C 
BRANCH  16  17
HETATM   17  C   UNL     1      28.600  43.758  54.201  1.00  0.00    -0.034 A 
HETATM   18  C   UNL     1      28.664  44.893  55.020  1.00  0.00     0.010 A 
HETATM   19  C   UNL     1      29.698  45.042  55.947  1.00  0.00     0.007 A 
HETATM   20  C   UNL     1      30.689  44.062  56.071  1.00  0.00    -0.062 A 
HETATM   21  C   UNL     1      31.785  44.196  57.086  1.00  0.00     0.048 C 
HETATM   22  C   UNL     1      30.627  42.927  55.255  1.00  0.00     0.007 A 
HETATM   23  C   UNL     1      29.594  42.778  54.328  1.00  0.00     0.010 A 
ENDBRANCH  16  17
ENDBRANCH  15  16
ENDBRANCH  12  15
ENDBRANCH   7   9
ENDBRANCH   5   7
BRANCH   4  24
HETATM   24  O   UNL     1      22.571  44.824  49.912  1.00  0.00    -0.355 OA
HETATM   25  H   UNL     1      21.861  44.806  50.588  1.00  0.00     0.218 HD
ENDBRANCH   4  24
BRANCH   6  26
HETATM   26  C   UNL     1      21.220  49.000  48.457  1.00  0.00    -0.030 A 
HETATM   27  C   UNL     1      21.341  50.296  47.923  1.00  0.00     0.012 A 
HETATM   28  C   UNL     1      20.550  51.347  48.396  1.00  0.00     0.037 A 
HETATM   29  C   UNL     1      19.633  51.107  49.411  1.00  0.00     0.065 A 
HETATM   30  C   UNL     1      19.502  49.840  49.964  1.00  0.00     0.037 A 
HETATM   31  C   UNL     1      20.298  48.791  49.497  1.00  0.00     0.012 A 
BRANCH  29  32
HETATM   32  O   UNL     1      18.839  52.098  49.904  1.00  0.00    -0.361 OA
HETATM   33  H   UNL     1      19.338  52.605  50.566  1.00  0.00     0.217 HD
ENDBRANCH  29  32
ENDBRANCH   6  26
BRANCH   1  34
HETATM   34  C   UNL     1      20.426  47.101  46.099  1.00  0.00     0.129 C 
BRANCH  34  35
HETATM   35  C   UNL     1      18.964  47.303  46.506  1.00  0.00     0.048 C 
BRANCH  35  36
HETATM   36  C   UNL     1      18.437  48.673  46.088  1.00  0.00     0.236 C 
BRANCH  36  37
HETATM   37  N   UNL     1      16.914  48.729  46.062  1.00  0.00    -0.072 N 
HETATM   38  H   UNL     1      16.636  48.445  45.113  1.00  0.00     0.279 HD
BRANCH  37  39
HETATM   39  C   UNL     1      16.383  50.148  46.243  1.00  0.00     0.230 C 
HETATM   40  C   UNL     1      15.090  50.353  45.477  1.00  0.00     0.034 C 
ENDBRANCH  37  39
BRANCH  37  41
HETATM   41  C   UNL     1      16.193  47.752  46.980  1.00  0.00     0.230 C 
HETATM   42  C   UNL     1      16.033  48.281  48.393  1.00  0.00     0.034 C 
ENDBRANCH  37  41
ENDBRANCH  36  37
ENDBRANCH  35  36
ENDBRANCH  34  35
ENDBRANCH   1  34
TORSDOF 14
ENDMDL
MODEL 9
REMARK VINA RESULT:      -7.9      2.213      4.879
REMARK  14 active torsions:
REMARK  status: ('A' for Active; 'I' for Inactive)
REMARK    1  A    between atoms: C_2  and  N_3 
REMARK    2  A    between atoms: N_3  and  C_5 
REMARK    3  A    between atoms: N_3  and  C_39 
REMARK    4  A    between atoms: C_5  and  C_6 
REMARK    5  A    between atoms: C_6  and  C_7 
REMARK    6  A    between atoms: C_7  and  N_8 
REMARK    7  A    between atoms: C_11  and  O_12 
REMARK    8  A    between atoms: C_13  and  C_14 
REMARK    9  A    between atoms: C_14  and  C_15 
REMARK   10  A    between atoms: C_18  and  O_19 
REMARK   11  A    between atoms: O_19  and  C_20 
REMARK   12  A    between atoms: C_20  and  C_21 
REMARK   13  A    between atoms: C_31  and  C_32 
REMARK   14  A    between atoms: C_35  and  O_36 
ROOT
HETATM    1  N   UNL     1      18.780  47.776  46.939  1.00  0.00    -0.333 N 
HETATM    2  C   UNL     1      18.243  46.593  47.413  1.00  0.00     0.278 C 
HETATM    3  O   UNL     1      17.074  46.264  47.481  1.00  0.00    -0.265 OA
HETATM    4  C   UNL     1      19.373  45.699  47.748  1.00  0.00     0.146 C 
HETATM    5  C   UNL     1      20.499  46.383  47.513  1.00  0.00     0.059 C 
HETATM    6  C   UNL     1      20.213  47.827  47.205  1.00  0.00     0.161 C 
ENDROOT
BRANCH   5   7
HETATM    7  C   UNL     1      21.909  45.938  47.442  1.00  0.00     0.193 C 
HETATM    8  O   UNL     1      22.376  45.615  46.350  1.00  0.00    -0.287 OA
BRANCH   7   9
HETATM    9  C   UNL     1      22.741  45.722  48.651  1.00  0.00     0.015 A 
HETATM   10  C   UNL     1      22.881  44.470  49.258  1.00  0.00     0.018 A 
HETATM   11  C   UNL     1      23.755  44.295  50.339  1.00  0.00     0.038 A 
HETATM   12  C   UNL     1      24.535  45.358  50.792  1.00  0.00     0.069 A 
HETATM   13  C   UNL     1      24.413  46.603  50.172  1.00  0.00     0.038 A 
HETATM   14  C   UNL     1      23.525  46.788  49.107  1.00  0.00     0.018 A 
BRANCH  12  15
HETATM   15  O   UNL     1      25.461  45.306  51.796  1.00  0.00    -0.347 OA
BRANCH  15  16
HETATM   16  C   UNL     1      25.454  44.151  52.635  1.00  0.00     0.214 C 
BRANCH  16  17
HETATM   17  C   UNL     1      26.811  43.987  53.276  1.00  0.00    -0.034 A 
HETATM   18  C   UNL     1      27.335  44.976  54.118  1.00  0.00     0.010 A 
HETATM   19  C   UNL     1      28.562  44.785  54.758  1.00  0.00     0.007 A 
HETATM   20  C   UNL     1      29.289  43.605  54.566  1.00  0.00    -0.062 A 
HETATM   21  C   UNL     1      30.591  43.376  55.275  1.00  0.00     0.048 C 
HETATM   22  C   UNL     1      28.767  42.616  53.726  1.00  0.00     0.007 A 
HETATM   23  C   UNL     1      27.541  42.806  53.085  1.00  0.00     0.010 A 
ENDBRANCH  16  17
ENDBRANCH  15  16
ENDBRANCH  12  15
ENDBRANCH   7   9
ENDBRANCH   5   7
BRANCH   4  24
HETATM   24  O   UNL     1      19.200  44.399  48.110  1.00  0.00    -0.355 OA
HETATM   25  H   UNL     1      20.042  43.942  47.903  1.00  0.00     0.218 HD
ENDBRANCH   4  24
BRANCH   6  26
HETATM   26  C   UNL     1      20.580  48.807  48.308  1.00  0.00    -0.030 A 
HETATM   27  C   UNL     1      21.617  49.733  48.093  1.00  0.00     0.012 A 
HETATM   28  C   UNL     1      21.977  50.655  49.079  1.00  0.00     0.037 A 
HETATM   29  C   UNL     1      21.302  50.654  50.293  1.00  0.00     0.065 A 
HETATM   30  C   UNL     1      20.284  49.742  50.537  1.00  0.00     0.037 A 
HETATM   31  C   UNL     1      19.928  48.816  49.554  1.00  0.00     0.012 A 
BRANCH  29  32
HETATM   32  O   UNL     1      21.616  51.533  51.284  1.00  0.00    -0.361 OA
HETATM   33  H   UNL     1      21.123  51.296  52.087  1.00  0.00     0.217 HD
ENDBRANCH  29  32
ENDBRANCH   6  26
BRANCH   1  34
HETATM   34  C   UNL     1      17.956  48.929  46.606  1.00  0.00     0.129 C 
BRANCH  34  35
HETATM   35  C   UNL     1      16.912  49.290  47.665  1.00  0.00     0.048 C 
BRANCH  35  36
HETATM   36  C   UNL     1      16.805  50.798  47.872  1.00  0.00     0.236 C 
BRANCH  36  37
HETATM   37  N   UNL     1      17.931  51.564  47.185  1.00  0.00    -0.072 N 
HETATM   38  H   UNL     1      18.579  50.850  46.826  1.00  0.00     0.279 HD
BRANCH  37  39
HETATM   39  C   UNL     1      18.740  52.407  48.165  1.00  0.00     0.230 C 
HETATM   40  C   UNL     1      18.093  52.426  49.539  1.00  0.00     0.034 C 
ENDBRANCH  37  39
BRANCH  37  41
HETATM   41  C   UNL     1      17.537  52.374  45.959  1.00  0.00     0.230 C 
HETATM   42  C   UNL     1      16.034  52.492  45.790  1.00  0.00     0.034 C 
ENDBRANCH  37  41
ENDBRANCH  36  37
ENDBRANCH  35  36
ENDBRANCH  34  35
ENDBRANCH   1  34
TORSDOF 14
ENDMDL
MODEL 10
REMARK VINA RESULT:      -7.9      3.089      9.964
REMARK  14 active torsions:
REMARK  status: ('A' for Active; 'I' for Inactive)
REMARK    1  A    between atoms: C_2  and  N_3 
REMARK    2  A    between atoms: N_3  and  C_5 
REMARK    3  A    between atoms: N_3  and  C_39 
REMARK    4  A    between atoms: C_5  and  C_6 
REMARK    5  A    between atoms: C_6  and  C_7 
REMARK    6  A    between atoms: C_7  and  N_8 
REMARK    7  A    between atoms: C_11  and  O_12 
REMARK    8  A    between atoms: C_13  and  C_14 
REMARK    9  A    between atoms: C_14  and  C_15 
REMARK   10  A    between atoms: C_18  and  O_19 
REMARK   11  A    between atoms: O_19  and  C_20 
REMARK   12  A    between atoms: C_20  and  C_21 
REMARK   13  A    between atoms: C_31  and  C_32 
REMARK   14  A    between atoms: C_35  and  O_36 
ROOT
HETATM    1  N   UNL     1      26.829  42.801  52.516  1.00  0.00    -0.333 N 
HETATM    2  C   UNL     1      27.692  41.924  51.887  1.00  0.00     0.278 C 
HETATM    3  O   UNL     1      28.743  41.468  52.297  1.00  0.00    -0.265 OA
HETATM    4  C   UNL     1      27.059  41.519  50.612  1.00  0.00     0.146 C 
HETATM    5  C   UNL     1      25.905  42.190  50.517  1.00  0.00     0.059 C 
HETATM    6  C   UNL     1      25.778  43.227  51.599  1.00  0.00     0.161 C 
ENDROOT
BRANCH   5   7
HETATM    7  C   UNL     1      24.758  42.022  49.596  1.00  0.00     0.193 C 
HETATM    8  O   UNL     1      24.619  40.950  49.008  1.00  0.00    -0.287 OA
BRANCH   7   9
HETATM    9  C   UNL     1      23.853  43.141  49.235  1.00  0.00     0.015 A 
HETATM   10  C   UNL     1      23.977  43.858  48.040  1.00  0.00     0.018 A 
HETATM   11  C   UNL     1      23.039  44.840  47.698  1.00  0.00     0.038 A 
HETATM   12  C   UNL     1      21.941  45.082  48.522  1.00  0.00     0.069 A 
HETATM   13  C   UNL     1      21.804  44.351  49.704  1.00  0.00     0.038 A 
HETATM   14  C   UNL     1      22.751  43.385  50.061  1.00  0.00     0.018 A 
BRANCH  12  15
HETATM   15  O   UNL     1      20.930  45.970  48.277  1.00  0.00    -0.347 OA
BRANCH  15  16
HETATM   16  C   UNL     1      19.638  45.432  48.002  1.00  0.00     0.214 C 
BRANCH  16  17
HETATM   17  C   UNL     1      18.626  46.551  47.956  1.00  0.00    -0.034 A 
HETATM   18  C   UNL     1      17.317  46.359  48.413  1.00  0.00     0.010 A 
HETATM   19  C   UNL     1      16.407  47.420  48.428  1.00  0.00     0.007 A 
HETATM   20  C   UNL     1      16.789  48.690  47.983  1.00  0.00    -0.062 A 
HETATM   21  C   UNL     1      15.831  49.843  48.026  1.00  0.00     0.048 C 
HETATM   22  C   UNL     1      18.098  48.885  47.527  1.00  0.00     0.007 A 
HETATM   23  C   UNL     1      19.007  47.825  47.512  1.00  0.00     0.010 A 
ENDBRANCH  16  17
ENDBRANCH  15  16
ENDBRANCH  12  15
ENDBRANCH   7   9
ENDBRANCH   5   7
BRANCH   4  24
HETATM   24  O   UNL     1      27.577  40.550  49.810  1.00  0.00    -0.355 OA
HETATM   25  H   UNL     1      28.128  41.011  49.143  1.00  0.00     0.218 HD
ENDBRANCH   4  24
BRANCH   6  26
HETATM   26  C   UNL     1      25.938  44.666  51.135  1.00  0.00    -0.030 A 
HETATM   27  C   UNL     1      25.146  45.672  51.718  1.00  0.00     0.012 A 
HETATM   28  C   UNL     1      25.270  47.006  51.324  1.00  0.00     0.037 A 
HETATM   29  C   UNL     1      26.189  47.344  50.339  1.00  0.00     0.065 A 
HETATM   30  C   UNL     1      26.974  46.370  49.737  1.00  0.00     0.037 A 
HETATM   31  C   UNL     1      26.845  45.034  50.126  1.00  0.00     0.012 A 
BRANCH  29  32
HETATM   32  O   UNL     1      26.347  48.631  49.922  1.00  0.00    -0.361 OA
HETATM   33  H   UNL     1      25.863  48.757  49.089  1.00  0.00     0.217 HD
ENDBRANCH  29  32
ENDBRANCH   6  26
BRANCH   1  34
HETATM   34  C   UNL     1      27.174  43.482  53.756  1.00  0.00     0.129 C 
BRANCH  34  35
HETATM   35  C   UNL     1      28.554  44.144  53.753  1.00  0.00     0.048 C 
BRANCH  35  36
HETATM   36  C   UNL     1      28.722  45.120  54.915  1.00  0.00     0.236 C 
BRANCH  36  37
HETATM   37  N   UNL     1      30.112  45.050  55.539  1.00  0.00    -0.072 N 
HETATM   38  H   UNL     1      30.731  45.579  54.910  1.00  0.00     0.279 HD
BRANCH  37  39
HETATM   39  C   UNL     1      30.663  43.629  55.568  1.00  0.00     0.230 C 
HETATM   40  C   UNL     1      31.466  43.376  56.831  1.00  0.00     0.034 C 
ENDBRANCH  37  39
BRANCH  37  41
HETATM   41  C   UNL     1      30.271  45.729  56.892  1.00  0.00     0.230 C 
HETATM   42  C   UNL     1      28.943  46.110  57.519  1.00  0.00     0.034 C 
ENDBRANCH  37  41
ENDBRANCH  36  37
ENDBRANCH  35  36
ENDBRANCH  34  35
ENDBRANCH   1  34
TORSDOF 14
ENDMDL
