MODEL 1
REMARK VINA RESULT:     -10.3      0.000      0.000
REMARK  2 active torsions:
REMARK  status: ('A' for Active; 'I' for Inactive)
REMARK    1  A    between atoms: O_2  and  C_3 
REMARK    2  A    between atoms: C_5  and  N_6 
ROOT
HETATM    1  N   UNL     1      26.901  44.160  52.746  1.00  0.00    -0.252 N 
HETATM    2  C   UNL     1      25.546  44.075  52.497  1.00  0.00     0.239 C 
HETATM    3  O   UNL     1      24.607  44.663  53.009  1.00  0.00    -0.272 OA
HETATM    4  C   UNL     1      25.324  43.194  51.314  1.00  0.00     0.145 C 
HETATM    5  C   UNL     1      26.673  42.566  51.055  1.00  0.00     0.126 C 
HETATM    6  C   UNL     1      27.617  43.481  51.783  1.00  0.00     0.238 C 
HETATM    7  O   UNL     1      28.797  43.543  51.474  1.00  0.00    -0.272 OA
HETATM    8  C   UNL     1      24.933  43.953  50.050  1.00  0.00     0.250 A 
HETATM    9  C   UNL     1      23.373  44.008  49.909  1.00  0.00     0.264 A 
HETATM   10  O   UNL     1      22.624  43.046  49.871  1.00  0.00    -0.270 OA
HETATM   11  N   UNL     1      23.011  45.333  49.760  1.00  0.00    -0.324 N 
HETATM   12  C   UNL     1      24.120  46.165  49.761  1.00  0.00     0.044 A 
HETATM   13  C   UNL     1      25.294  45.420  49.909  1.00  0.00     0.015 A 
HETATM   14  C   UNL     1      24.113  47.534  49.602  1.00  0.00     0.030 A 
HETATM   15  C   UNL     1      25.348  48.181  49.574  1.00  0.00     0.002 A 
HETATM   16  C   UNL     1      26.542  47.452  49.698  1.00  0.00     0.001 A 
HETATM   17  C   UNL     1      26.524  46.063  49.861  1.00  0.00     0.012 A 
HETATM   18  N   UNL     1      25.634  43.140  48.945  1.00  0.00    -0.043 N 
HETATM   19  H   UNL     1      25.879  43.786  48.179  1.00  0.00     0.282 HD
HETATM   20  C   UNL     1      26.904  42.542  49.550  1.00  0.00     0.204 C 
HETATM   21  C   UNL     1      24.869  41.996  48.319  1.00  0.00     0.237 C 
HETATM   22  C   UNL     1      25.993  41.127  47.797  1.00  0.00     0.030 C 
HETATM   23  C   UNL     1      26.983  41.134  48.951  1.00  0.00     0.036 C 
HETATM   24  H   UNL     1      22.051  45.643  49.662  1.00  0.00     0.169 HD
ENDROOT
BRANCH   1  25
HETATM   25  C   UNL     1      27.467  44.962  53.784  1.00  0.00     0.048 A 
HETATM   26  C   UNL     1      28.539  44.485  54.557  1.00  0.00     0.066 A 
HETATM   27  C   UNL     1      29.147  45.263  55.552  1.00  0.00     0.070 A 
HETATM   28  C   UNL     1      28.666  46.540  55.810  1.00  0.00     0.037 A 
HETATM   29  C   UNL     1      27.602  47.038  55.060  1.00  0.00     0.005 A 
HETATM   30  C   UNL     1      27.018  46.263  54.050  1.00  0.00     0.030 A 
BRANCH  27  31
HETATM   31  O   UNL     1      30.198  44.655  56.181  1.00  0.00    -0.356 OA
HETATM   32  C   UNL     1      30.713  43.470  55.586  1.00  0.00     0.210 C 
ENDBRANCH  27  31
ENDBRANCH   1  25
TORSDOF 2
ENDMDL
MODEL 2
REMARK VINA RESULT:      -9.2     11.756     12.931
REMARK  2 active torsions:
REMARK  status: ('A' for Active; 'I' for Inactive)
REMARK    1  A    between atoms: O_2  and  C_3 
REMARK    2  A    between atoms: C_5  and  N_6 
ROOT
HETATM    1  N   UNL     1      31.011  49.183  41.692  1.00  0.00    -0.252 N 
HETATM    2  C   UNL     1      29.664  49.478  41.743  1.00  0.00     0.239 C 
HETATM    3  O   UNL     1      29.081  50.448  42.200  1.00  0.00    -0.272 OA
HETATM    4  C   UNL     1      28.911  48.444  40.976  1.00  0.00     0.145 C 
HETATM    5  C   UNL     1      29.934  47.370  40.689  1.00  0.00     0.126 C 
HETATM    6  C   UNL     1      31.240  48.086  40.888  1.00  0.00     0.238 C 
HETATM    7  O   UNL     1      32.265  47.684  40.361  1.00  0.00    -0.272 OA
HETATM    8  C   UNL     1      28.390  48.938  39.630  1.00  0.00     0.250 A 
HETATM    9  C   UNL     1      26.917  49.454  39.773  1.00  0.00     0.264 A 
HETATM   10  O   UNL     1      25.970  48.809  40.192  1.00  0.00    -0.270 OA
HETATM   11  N   UNL     1      26.873  50.740  39.270  1.00  0.00    -0.324 N 
HETATM   12  C   UNL     1      28.110  51.142  38.792  1.00  0.00     0.044 A 
HETATM   13  C   UNL     1      29.054  50.122  38.953  1.00  0.00     0.015 A 
HETATM   14  C   UNL     1      28.403  52.350  38.198  1.00  0.00     0.030 A 
HETATM   15  C   UNL     1      29.704  52.535  37.731  1.00  0.00     0.002 A 
HETATM   16  C   UNL     1      30.663  51.518  37.860  1.00  0.00     0.001 A 
HETATM   17  C   UNL     1      30.343  50.299  38.469  1.00  0.00     0.012 A 
HETATM   18  N   UNL     1      28.532  47.687  38.741  1.00  0.00    -0.043 N 
HETATM   19  H   UNL     1      28.711  48.001  37.774  1.00  0.00     0.282 HD
HETATM   20  C   UNL     1      29.728  46.889  39.259  1.00  0.00     0.204 C 
HETATM   21  C   UNL     1      27.363  46.731  38.678  1.00  0.00     0.237 C 
HETATM   22  C   UNL     1      28.044  45.443  38.268  1.00  0.00     0.030 C 
HETATM   23  C   UNL     1      29.283  45.426  39.150  1.00  0.00     0.036 C 
HETATM   24  H   UNL     1      26.032  51.307  39.258  1.00  0.00     0.169 HD
ENDROOT
BRANCH   1  25
HETATM   25  C   UNL     1      32.024  49.998  42.286  1.00  0.00     0.048 A 
HETATM   26  C   UNL     1      33.287  50.125  41.685  1.00  0.00     0.066 A 
HETATM   27  C   UNL     1      34.288  50.951  42.217  1.00  0.00     0.070 A 
HETATM   28  C   UNL     1      34.043  51.651  43.391  1.00  0.00     0.037 A 
HETATM   29  C   UNL     1      32.798  51.541  44.010  1.00  0.00     0.005 A 
HETATM   30  C   UNL     1      31.797  50.733  43.457  1.00  0.00     0.030 A 
BRANCH  27  31
HETATM   31  O   UNL     1      35.442  50.985  41.485  1.00  0.00    -0.356 OA
HETATM   32  C   UNL     1      36.643  50.607  42.148  1.00  0.00     0.210 C 
ENDBRANCH  27  31
ENDBRANCH   1  25
TORSDOF 2
ENDMDL
MODEL 3
REMARK VINA RESULT:      -9.0      7.422     11.043
REMARK  2 active torsions:
REMARK  status: ('A' for Active; 'I' for Inactive)
REMARK    1  A    between atoms: O_2  and  C_3 
REMARK    2  A    between atoms: C_5  and  N_6 
ROOT
HETATM    1  N   UNL     1      20.268  50.727  48.365  1.00  0.00    -0.252 N 
HETATM    2  C   UNL     1      19.526  50.862  47.209  1.00  0.00     0.239 C 
HETATM    3  O   UNL     1      19.674  50.357  46.108  1.00  0.00    -0.272 OA
HETATM    4  C   UNL     1      18.308  51.671  47.506  1.00  0.00     0.145 C 
HETATM    5  C   UNL     1      18.547  52.212  48.896  1.00  0.00     0.126 C 
HETATM    6  C   UNL     1      19.615  51.303  49.435  1.00  0.00     0.238 C 
HETATM    7  O   UNL     1      19.774  51.162  50.637  1.00  0.00    -0.272 OA
HETATM    8  C   UNL     1      17.025  50.848  47.560  1.00  0.00     0.250 A 
HETATM    9  C   UNL     1      16.312  50.861  46.165  1.00  0.00     0.264 A 
HETATM   10  O   UNL     1      15.952  51.854  45.553  1.00  0.00    -0.270 OA
HETATM   11  N   UNL     1      16.097  49.548  45.790  1.00  0.00    -0.324 N 
HETATM   12  C   UNL     1      16.550  48.664  46.757  1.00  0.00     0.044 A 
HETATM   13  C   UNL     1      17.095  49.359  47.842  1.00  0.00     0.015 A 
HETATM   14  C   UNL     1      16.461  47.290  46.713  1.00  0.00     0.030 A 
HETATM   15  C   UNL     1      16.928  46.582  47.820  1.00  0.00     0.002 A 
HETATM   16  C   UNL     1      17.458  47.258  48.930  1.00  0.00     0.001 A 
HETATM   17  C   UNL     1      17.540  48.654  48.952  1.00  0.00     0.012 A 
HETATM   18  N   UNL     1      16.228  51.549  48.677  1.00  0.00    -0.043 N 
HETATM   19  H   UNL     1      15.640  50.841  49.143  1.00  0.00     0.282 HD
HETATM   20  C   UNL     1      17.238  52.122  49.671  1.00  0.00     0.204 C 
HETATM   21  C   UNL     1      15.311  52.684  48.283  1.00  0.00     0.237 C 
HETATM   22  C   UNL     1      15.210  53.459  49.579  1.00  0.00     0.030 C 
HETATM   23  C   UNL     1      16.651  53.481  50.067  1.00  0.00     0.036 C 
HETATM   24  H   UNL     1      15.660  49.280  44.915  1.00  0.00     0.169 HD
ENDROOT
BRANCH   1  25
HETATM   25  C   UNL     1      21.478  49.970  48.447  1.00  0.00     0.048 A 
HETATM   26  C   UNL     1      22.686  50.493  47.958  1.00  0.00     0.066 A 
HETATM   27  C   UNL     1      23.899  49.796  48.063  1.00  0.00     0.070 A 
HETATM   28  C   UNL     1      23.913  48.535  48.645  1.00  0.00     0.037 A 
HETATM   29  C   UNL     1      22.727  47.991  49.136  1.00  0.00     0.005 A 
HETATM   30  C   UNL     1      21.526  48.706  49.049  1.00  0.00     0.030 A 
BRANCH  27  31
HETATM   31  O   UNL     1      24.981  50.468  47.568  1.00  0.00    -0.356 OA
HETATM   32  C   UNL     1      26.266  50.042  48.007  1.00  0.00     0.210 C 
ENDBRANCH  27  31
ENDBRANCH   1  25
TORSDOF 2
ENDMDL
MODEL 4
REMARK VINA RESULT:      -8.8     11.432     14.334
REMARK  2 active torsions:
REMARK  status: ('A' for Active; 'I' for Inactive)
REMARK    1  A    between atoms: O_2  and  C_3 
REMARK    2  A    between atoms: C_5  and  N_6 
ROOT
HETATM    1  N   UNL     1      29.758  47.911  40.448  1.00  0.00    -0.252 N 
HETATM    2  C   UNL     1      30.762  48.365  39.617  1.00  0.00     0.239 C 
HETATM    3  O   UNL     1      30.900  48.256  38.409  1.00  0.00    -0.272 OA
HETATM    4  C   UNL     1      31.700  49.214  40.407  1.00  0.00     0.145 C 
HETATM    5  C   UNL     1      31.282  48.998  41.843  1.00  0.00     0.126 C 
HETATM    6  C   UNL     1      29.891  48.448  41.712  1.00  0.00     0.238 C 
HETATM    7  O   UNL     1      29.090  48.536  42.629  1.00  0.00    -0.272 OA
HETATM    8  C   UNL     1      31.564  50.706  40.120  1.00  0.00     0.250 A 
HETATM    9  C   UNL     1      32.590  51.143  39.020  1.00  0.00     0.264 A 
HETATM   10  O   UNL     1      33.801  51.003  39.073  1.00  0.00    -0.270 OA
HETATM   11  N   UNL     1      31.885  51.782  38.018  1.00  0.00    -0.324 N 
HETATM   12  C   UNL     1      30.532  51.848  38.312  1.00  0.00     0.044 A 
HETATM   13  C   UNL     1      30.268  51.249  39.548  1.00  0.00     0.015 A 
HETATM   14  C   UNL     1      29.557  52.444  37.542  1.00  0.00     0.030 A 
HETATM   15  C   UNL     1      28.257  52.452  38.048  1.00  0.00     0.002 A 
HETATM   16  C   UNL     1      27.972  51.878  39.297  1.00  0.00     0.001 A 
HETATM   17  C   UNL     1      28.978  51.275  40.061  1.00  0.00     0.012 A 
HETATM   18  N   UNL     1      31.823  51.333  41.503  1.00  0.00    -0.043 N 
HETATM   19  H   UNL     1      31.280  52.209  41.563  1.00  0.00     0.282 HD
HETATM   20  C   UNL     1      31.330  50.342  42.557  1.00  0.00     0.204 C 
HETATM   21  C   UNL     1      33.249  51.682  41.864  1.00  0.00     0.237 C 
HETATM   22  C   UNL     1      33.192  51.673  43.376  1.00  0.00     0.030 C 
HETATM   23  C   UNL     1      32.379  50.422  43.672  1.00  0.00     0.036 C 
HETATM   24  H   UNL     1      32.316  52.151  37.178  1.00  0.00     0.169 HD
ENDROOT
BRANCH   1  25
HETATM   25  C   UNL     1      28.663  47.106  40.004  1.00  0.00     0.048 A 
HETATM   26  C   UNL     1      27.441  47.694  39.638  1.00  0.00     0.066 A 
HETATM   27  C   UNL     1      26.364  46.938  39.155  1.00  0.00     0.070 A 
HETATM   28  C   UNL     1      26.487  45.558  39.056  1.00  0.00     0.037 A 
HETATM   29  C   UNL     1      27.688  44.948  39.416  1.00  0.00     0.005 A 
HETATM   30  C   UNL     1      28.767  45.714  39.872  1.00  0.00     0.030 A 
BRANCH  27  31
HETATM   31  O   UNL     1      25.265  47.675  38.812  1.00  0.00    -0.356 OA
HETATM   32  C   UNL     1      25.337  49.082  39.018  1.00  0.00     0.210 C 
ENDBRANCH  27  31
ENDBRANCH   1  25
TORSDOF 2
ENDMDL
MODEL 5
REMARK VINA RESULT:      -8.6     10.953     12.962
REMARK  2 active torsions:
REMARK  status: ('A' for Active; 'I' for Inactive)
REMARK    1  A    between atoms: O_2  and  C_3 
REMARK    2  A    between atoms: C_5  and  N_6 
ROOT
HETATM    1  N   UNL     1      29.397  49.562  40.362  1.00  0.00    -0.252 N 
HETATM    2  C   UNL     1      28.546  48.926  41.243  1.00  0.00     0.239 C 
HETATM    3  O   UNL     1      27.814  49.382  42.107  1.00  0.00    -0.272 OA
HETATM    4  C   UNL     1      28.499  47.473  40.909  1.00  0.00     0.145 C 
HETATM    5  C   UNL     1      29.610  47.283  39.904  1.00  0.00     0.126 C 
HETATM    6  C   UNL     1      29.863  48.679  39.410  1.00  0.00     0.238 C 
HETATM    7  O   UNL     1      30.383  48.878  38.324  1.00  0.00    -0.272 OA
HETATM    8  C   UNL     1      27.202  47.043  40.230  1.00  0.00     0.250 A 
HETATM    9  C   UNL     1      26.182  46.511  41.295  1.00  0.00     0.264 A 
HETATM   10  O   UNL     1      26.376  45.596  42.078  1.00  0.00    -0.270 OA
HETATM   11  N   UNL     1      25.003  47.214  41.134  1.00  0.00    -0.324 N 
HETATM   12  C   UNL     1      25.093  48.124  40.093  1.00  0.00     0.044 A 
HETATM   13  C   UNL     1      26.358  48.069  39.498  1.00  0.00     0.015 A 
HETATM   14  C   UNL     1      24.090  48.959  39.648  1.00  0.00     0.030 A 
HETATM   15  C   UNL     1      24.368  49.762  38.543  1.00  0.00     0.002 A 
HETATM   16  C   UNL     1      25.622  49.707  37.915  1.00  0.00     0.001 A 
HETATM   17  C   UNL     1      26.627  48.854  38.385  1.00  0.00     0.012 A 
HETATM   18  N   UNL     1      27.688  45.969  39.238  1.00  0.00    -0.043 N 
HETATM   19  H   UNL     1      27.061  45.983  38.419  1.00  0.00     0.282 HD
HETATM   20  C   UNL     1      29.108  46.345  38.814  1.00  0.00     0.204 C 
HETATM   21  C   UNL     1      27.741  44.537  39.719  1.00  0.00     0.237 C 
HETATM   22  C   UNL     1      28.768  43.938  38.782  1.00  0.00     0.030 C 
HETATM   23  C   UNL     1      29.851  45.006  38.749  1.00  0.00     0.036 C 
HETATM   24  H   UNL     1      24.182  47.070  41.711  1.00  0.00     0.169 HD
ENDROOT
BRANCH   1  25
HETATM   25  C   UNL     1      29.639  50.971  40.370  1.00  0.00     0.048 A 
HETATM   26  C   UNL     1      30.944  51.475  40.496  1.00  0.00     0.066 A 
HETATM   27  C   UNL     1      31.220  52.849  40.462  1.00  0.00     0.070 A 
HETATM   28  C   UNL     1      30.175  53.753  40.326  1.00  0.00     0.037 A 
HETATM   29  C   UNL     1      28.869  53.280  40.201  1.00  0.00     0.005 A 
HETATM   30  C   UNL     1      28.606  51.905  40.210  1.00  0.00     0.030 A 
BRANCH  27  31
HETATM   31  O   UNL     1      32.547  53.161  40.563  1.00  0.00    -0.356 OA
HETATM   32  C   UNL     1      33.392  52.760  39.490  1.00  0.00     0.210 C 
ENDBRANCH  27  31
ENDBRANCH   1  25
TORSDOF 2
ENDMDL
MODEL 6
REMARK VINA RESULT:      -8.4      7.883     11.761
REMARK  2 active torsions:
REMARK  status: ('A' for Active; 'I' for Inactive)
REMARK    1  A    between atoms: O_2  and  C_3 
REMARK    2  A    between atoms: C_5  and  N_6 
ROOT
HETATM    1  N   UNL     1      17.636  51.165  48.999  1.00  0.00    -0.252 N 
HETATM    2  C   UNL     1      17.638  49.784  49.008  1.00  0.00     0.239 C 
HETATM    3  O   UNL     1      16.731  48.989  48.824  1.00  0.00    -0.272 OA
HETATM    4  C   UNL     1      19.043  49.302  49.147  1.00  0.00     0.145 C 
HETATM    5  C   UNL     1      19.835  50.545  49.477  1.00  0.00     0.126 C 
HETATM    6  C   UNL     1      18.925  51.655  49.035  1.00  0.00     0.238 C 
HETATM    7  O   UNL     1      19.365  52.760  48.761  1.00  0.00    -0.272 OA
HETATM    8  C   UNL     1      19.624  48.730  47.858  1.00  0.00     0.250 A 
HETATM    9  C   UNL     1      19.426  47.176  47.815  1.00  0.00     0.264 A 
HETATM   10  O   UNL     1      19.825  46.380  48.650  1.00  0.00    -0.270 OA
HETATM   11  N   UNL     1      18.789  46.866  46.629  1.00  0.00    -0.324 N 
HETATM   12  C   UNL     1      18.555  48.000  45.867  1.00  0.00     0.044 A 
HETATM   13  C   UNL     1      19.038  49.140  46.520  1.00  0.00     0.015 A 
HETATM   14  C   UNL     1      17.968  48.040  44.621  1.00  0.00     0.030 A 
HETATM   15  C   UNL     1      17.878  49.283  43.995  1.00  0.00     0.002 A 
HETATM   16  C   UNL     1      18.377  50.437  44.620  1.00  0.00     0.001 A 
HETATM   17  C   UNL     1      18.967  50.373  45.887  1.00  0.00     0.012 A 
HETATM   18  N   UNL     1      21.098  49.172  47.934  1.00  0.00    -0.043 N 
HETATM   19  H   UNL     1      21.441  49.309  46.970  1.00  0.00     0.282 HD
HETATM   20  C   UNL     1      21.142  50.496  48.696  1.00  0.00     0.204 C 
HETATM   21  C   UNL     1      22.078  48.244  48.615  1.00  0.00     0.237 C 
HETATM   22  C   UNL     1      23.174  49.204  49.023  1.00  0.00     0.030 C 
HETATM   23  C   UNL     1      22.393  50.387  49.574  1.00  0.00     0.036 C 
HETATM   24  H   UNL     1      18.530  45.923  46.362  1.00  0.00     0.169 HD
ENDROOT
BRANCH   1  25
HETATM   25  C   UNL     1      16.456  51.954  48.834  1.00  0.00     0.048 A 
HETATM   26  C   UNL     1      15.708  52.368  49.949  1.00  0.00     0.066 A 
HETATM   27  C   UNL     1      14.572  53.181  49.825  1.00  0.00     0.070 A 
HETATM   28  C   UNL     1      14.147  53.574  48.563  1.00  0.00     0.037 A 
HETATM   29  C   UNL     1      14.869  53.175  47.439  1.00  0.00     0.005 A 
HETATM   30  C   UNL     1      16.017  52.385  47.575  1.00  0.00     0.030 A 
BRANCH  27  31
HETATM   31  O   UNL     1      13.987  53.519  51.014  1.00  0.00    -0.356 OA
HETATM   32  C   UNL     1      14.518  54.645  51.702  1.00  0.00     0.210 C 
ENDBRANCH  27  31
ENDBRANCH   1  25
TORSDOF 2
ENDMDL
MODEL 7
REMARK VINA RESULT:      -8.3      7.669     11.381
REMARK  2 active torsions:
REMARK  status: ('A' for Active; 'I' for Inactive)
REMARK    1  A    between atoms: O_2  and  C_3 
REMARK    2  A    between atoms: C_5  and  N_6 
ROOT
HETATM    1  N   UNL     1      19.753  50.360  48.737  1.00  0.00    -0.252 N 
HETATM    2  C   UNL     1      19.378  50.931  47.537  1.00  0.00     0.239 C 
HETATM    3  O   UNL     1      19.799  50.747  46.406  1.00  0.00    -0.272 OA
HETATM    4  C   UNL     1      18.181  51.792  47.762  1.00  0.00     0.145 C 
HETATM    5  C   UNL     1      18.052  51.869  49.265  1.00  0.00     0.126 C 
HETATM    6  C   UNL     1      18.863  50.695  49.736  1.00  0.00     0.238 C 
HETATM    7  O   UNL     1      18.666  50.192  50.830  1.00  0.00    -0.272 OA
HETATM    8  C   UNL     1      16.885  51.188  47.231  1.00  0.00     0.250 A 
HETATM    9  C   UNL     1      16.597  51.708  45.781  1.00  0.00     0.264 A 
HETATM   10  O   UNL     1      16.490  52.876  45.447  1.00  0.00    -0.270 OA
HETATM   11  N   UNL     1      16.413  50.605  44.968  1.00  0.00    -0.324 N 
HETATM   12  C   UNL     1      16.517  49.423  45.685  1.00  0.00     0.044 A 
HETATM   13  C   UNL     1      16.777  49.687  47.034  1.00  0.00     0.015 A 
HETATM   14  C   UNL     1      16.356  48.149  45.187  1.00  0.00     0.030 A 
HETATM   15  C   UNL     1      16.444  47.091  46.091  1.00  0.00     0.002 A 
HETATM   16  C   UNL     1      16.681  47.333  47.454  1.00  0.00     0.001 A 
HETATM   17  C   UNL     1      16.844  48.636  47.937  1.00  0.00     0.012 A 
HETATM   18  N   UNL     1      15.852  51.648  48.277  1.00  0.00    -0.043 N 
HETATM   19  H   UNL     1      15.111  50.932  48.332  1.00  0.00     0.282 HD
HETATM   20  C   UNL     1      16.575  51.755  49.620  1.00  0.00     0.204 C 
HETATM   21  C   UNL     1      15.158  52.972  48.049  1.00  0.00     0.237 C 
HETATM   22  C   UNL     1      14.745  53.347  49.455  1.00  0.00     0.030 C 
HETATM   23  C   UNL     1      15.988  53.014  50.267  1.00  0.00     0.036 C 
HETATM   24  H   UNL     1      16.225  50.668  43.974  1.00  0.00     0.169 HD
ENDROOT
BRANCH   1  25
HETATM   25  C   UNL     1      20.840  49.441  48.872  1.00  0.00     0.048 A 
HETATM   26  C   UNL     1      20.656  48.071  48.622  1.00  0.00     0.066 A 
HETATM   27  C   UNL     1      21.710  47.150  48.702  1.00  0.00     0.070 A 
HETATM   28  C   UNL     1      22.976  47.590  49.065  1.00  0.00     0.037 A 
HETATM   29  C   UNL     1      23.186  48.944  49.321  1.00  0.00     0.005 A 
HETATM   30  C   UNL     1      22.132  49.860  49.214  1.00  0.00     0.030 A 
BRANCH  27  31
HETATM   31  O   UNL     1      21.362  45.865  48.391  1.00  0.00    -0.356 OA
HETATM   32  C   UNL     1      19.982  45.528  48.475  1.00  0.00     0.210 C 
ENDBRANCH  27  31
ENDBRANCH   1  25
TORSDOF 2
ENDMDL
MODEL 8
REMARK VINA RESULT:      -8.3     16.820     19.179
REMARK  2 active torsions:
REMARK  status: ('A' for Active; 'I' for Inactive)
REMARK    1  A    between atoms: O_2  and  C_3 
REMARK    2  A    between atoms: C_5  and  N_6 
ROOT
HETATM    1  N   UNL     1      36.435  45.073  66.893  1.00  0.00    -0.252 N 
HETATM    2  C   UNL     1      37.748  44.751  67.173  1.00  0.00     0.239 C 
HETATM    3  O   UNL     1      38.231  43.735  67.646  1.00  0.00    -0.272 OA
HETATM    4  C   UNL     1      38.634  45.835  66.658  1.00  0.00     0.145 C 
HETATM    5  C   UNL     1      37.685  46.947  66.277  1.00  0.00     0.126 C 
HETATM    6  C   UNL     1      36.365  46.240  66.160  1.00  0.00     0.238 C 
HETATM    7  O   UNL     1      35.460  46.704  65.485  1.00  0.00    -0.272 OA
HETATM    8  C   UNL     1      39.402  45.450  65.397  1.00  0.00     0.250 A 
HETATM    9  C   UNL     1      40.820  44.897  65.772  1.00  0.00     0.264 A 
HETATM   10  O   UNL     1      41.670  45.487  66.419  1.00  0.00    -0.270 OA
HETATM   11  N   UNL     1      40.959  43.659  65.175  1.00  0.00    -0.324 N 
HETATM   12  C   UNL     1      39.836  43.322  64.437  1.00  0.00     0.044 A 
HETATM   13  C   UNL     1      38.879  44.340  64.505  1.00  0.00     0.015 A 
HETATM   14  C   UNL     1      39.660  42.174  63.694  1.00  0.00     0.030 A 
HETATM   15  C   UNL     1      38.473  42.053  62.973  1.00  0.00     0.002 A 
HETATM   16  C   UNL     1      37.508  43.072  63.007  1.00  0.00     0.001 A 
HETATM   17  C   UNL     1      37.706  44.228  63.771  1.00  0.00     0.012 A 
HETATM   18  N   UNL     1      39.434  46.774  64.612  1.00  0.00    -0.043 N 
HETATM   19  H   UNL     1      39.443  46.549  63.605  1.00  0.00     0.282 HD
HETATM   20  C   UNL     1      38.162  47.546  64.961  1.00  0.00     0.204 C 
HETATM   21  C   UNL     1      40.594  47.712  64.856  1.00  0.00     0.237 C 
HETATM   22  C   UNL     1      40.005  49.042  64.439  1.00  0.00     0.030 C 
HETATM   23  C   UNL     1      38.620  49.005  65.067  1.00  0.00     0.036 C 
HETATM   24  H   UNL     1      41.786  43.080  65.274  1.00  0.00     0.169 HD
ENDROOT
BRANCH   1  25
HETATM   25  C   UNL     1      35.326  44.228  67.210  1.00  0.00     0.048 A 
HETATM   26  C   UNL     1      34.767  44.231  68.498  1.00  0.00     0.066 A 
HETATM   27  C   UNL     1      33.651  43.448  68.829  1.00  0.00     0.070 A 
HETATM   28  C   UNL     1      33.088  42.620  67.866  1.00  0.00     0.037 A 
HETATM   29  C   UNL     1      33.625  42.596  66.580  1.00  0.00     0.005 A 
HETATM   30  C   UNL     1      34.724  43.401  66.253  1.00  0.00     0.030 A 
BRANCH  27  31
HETATM   31  O   UNL     1      33.216  43.600  70.116  1.00  0.00    -0.356 OA
HETATM   32  C   UNL     1      31.996  44.305  70.310  1.00  0.00     0.210 C 
ENDBRANCH  27  31
ENDBRANCH   1  25
TORSDOF 2
ENDMDL
MODEL 9
REMARK VINA RESULT:      -8.2      2.291      5.609
REMARK  2 active torsions:
REMARK  status: ('A' for Active; 'I' for Inactive)
REMARK    1  A    between atoms: O_2  and  C_3 
REMARK    2  A    between atoms: C_5  and  N_6 
ROOT
HETATM    1  N   UNL     1      27.328  42.584  51.116  1.00  0.00    -0.252 N 
HETATM    2  C   UNL     1      27.314  43.760  50.394  1.00  0.00     0.239 C 
HETATM    3  O   UNL     1      27.267  43.950  49.190  1.00  0.00    -0.272 OA
HETATM    4  C   UNL     1      27.214  44.909  51.340  1.00  0.00     0.145 C 
HETATM    5  C   UNL     1      27.432  44.294  52.702  1.00  0.00     0.126 C 
HETATM    6  C   UNL     1      27.162  42.836  52.463  1.00  0.00     0.238 C 
HETATM    7  O   UNL     1      26.838  42.096  53.378  1.00  0.00    -0.272 OA
HETATM    8  C   UNL     1      25.838  45.567  51.360  1.00  0.00     0.250 A 
HETATM    9  C   UNL     1      25.802  46.783  50.371  1.00  0.00     0.264 A 
HETATM   10  O   UNL     1      26.547  47.748  50.396  1.00  0.00    -0.270 OA
HETATM   11  N   UNL     1      24.731  46.599  49.518  1.00  0.00    -0.324 N 
HETATM   12  C   UNL     1      24.036  45.438  49.819  1.00  0.00     0.044 A 
HETATM   13  C   UNL     1      24.620  44.783  50.909  1.00  0.00     0.015 A 
HETATM   14  C   UNL     1      22.903  44.976  49.185  1.00  0.00     0.030 A 
HETATM   15  C   UNL     1      22.321  43.810  49.681  1.00  0.00     0.002 A 
HETATM   16  C   UNL     1      22.875  43.149  50.789  1.00  0.00     0.001 A 
HETATM   17  C   UNL     1      24.028  43.634  51.415  1.00  0.00     0.012 A 
HETATM   18  N   UNL     1      25.681  45.960  52.841  1.00  0.00    -0.043 N 
HETATM   19  H   UNL     1      24.676  45.925  53.077  1.00  0.00     0.282 HD
HETATM   20  C   UNL     1      26.447  44.932  53.673  1.00  0.00     0.204 C 
HETATM   21  C   UNL     1      26.178  47.324  53.266  1.00  0.00     0.237 C 
HETATM   22  C   UNL     1      26.417  47.113  54.745  1.00  0.00     0.030 C 
HETATM   23  C   UNL     1      27.108  45.759  54.782  1.00  0.00     0.036 C 
HETATM   24  H   UNL     1      24.494  47.241  48.771  1.00  0.00     0.169 HD
ENDROOT
BRANCH   1  25
HETATM   25  C   UNL     1      27.371  41.286  50.518  1.00  0.00     0.048 A 
HETATM   26  C   UNL     1      28.538  40.507  50.577  1.00  0.00     0.066 A 
HETATM   27  C   UNL     1      28.599  39.212  50.041  1.00  0.00     0.070 A 
HETATM   28  C   UNL     1      27.484  38.683  49.404  1.00  0.00     0.037 A 
HETATM   29  C   UNL     1      26.314  39.436  49.329  1.00  0.00     0.005 A 
HETATM   30  C   UNL     1      26.254  40.718  49.891  1.00  0.00     0.030 A 
BRANCH  27  31
HETATM   31  O   UNL     1      29.800  38.584  50.218  1.00  0.00    -0.356 OA
HETATM   32  C   UNL     1      29.837  37.505  51.145  1.00  0.00     0.210 C 
ENDBRANCH  27  31
ENDBRANCH   1  25
TORSDOF 2
ENDMDL
MODEL 10
REMARK VINA RESULT:      -8.1      5.886      8.812
REMARK  2 active torsions:
REMARK  status: ('A' for Active; 'I' for Inactive)
REMARK    1  A    between atoms: O_2  and  C_3 
REMARK    2  A    between atoms: C_5  and  N_6 
ROOT
HETATM    1  N   UNL     1      20.655  46.497  47.792  1.00  0.00    -0.252 N 
HETATM    2  C   UNL     1      19.453  46.746  48.423  1.00  0.00     0.239 C 
HETATM    3  O   UNL     1      19.202  46.940  49.602  1.00  0.00    -0.272 OA
HETATM    4  C   UNL     1      18.387  46.908  47.392  1.00  0.00     0.145 C 
HETATM    5  C   UNL     1      19.043  46.471  46.103  1.00  0.00     0.126 C 
HETATM    6  C   UNL     1      20.508  46.560  46.422  1.00  0.00     0.238 C 
HETATM    7  O   UNL     1      21.339  46.686  45.536  1.00  0.00    -0.272 OA
HETATM    8  C   UNL     1      17.936  48.352  47.199  1.00  0.00     0.250 A 
HETATM    9  C   UNL     1      16.683  48.654  48.091  1.00  0.00     0.264 A 
HETATM   10  O   UNL     1      15.623  48.050  48.065  1.00  0.00    -0.270 OA
HETATM   11  N   UNL     1      16.969  49.770  48.853  1.00  0.00    -0.324 N 
HETATM   12  C   UNL     1      18.233  50.264  48.575  1.00  0.00     0.044 A 
HETATM   13  C   UNL     1      18.860  49.489  47.593  1.00  0.00     0.015 A 
HETATM   14  C   UNL     1      18.815  51.381  49.134  1.00  0.00     0.030 A 
HETATM   15  C   UNL     1      20.080  51.745  48.672  1.00  0.00     0.002 A 
HETATM   16  C   UNL     1      20.718  50.996  47.670  1.00  0.00     0.001 A 
HETATM   17  C   UNL     1      20.109  49.863  47.118  1.00  0.00     0.012 A 
HETATM   18  N   UNL     1      17.657  48.412  45.685  1.00  0.00    -0.043 N 
HETATM   19  H   UNL     1      17.850  49.373  45.363  1.00  0.00     0.282 HD
HETATM   20  C   UNL     1      18.610  47.432  45.003  1.00  0.00     0.204 C 
HETATM   21  C   UNL     1      16.263  48.067  45.211  1.00  0.00     0.237 C 
HETATM   22  C   UNL     1      16.522  47.653  43.779  1.00  0.00     0.030 C 
HETATM   23  C   UNL     1      17.763  46.783  43.903  1.00  0.00     0.036 C 
HETATM   24  H   UNL     1      16.325  50.167  49.528  1.00  0.00     0.169 HD
ENDROOT
BRANCH   1  25
HETATM   25  C   UNL     1      21.895  46.337  48.483  1.00  0.00     0.048 A 
HETATM   26  C   UNL     1      22.680  47.453  48.820  1.00  0.00     0.066 A 
HETATM   27  C   UNL     1      23.879  47.334  49.537  1.00  0.00     0.070 A 
HETATM   28  C   UNL     1      24.329  46.074  49.910  1.00  0.00     0.037 A 
HETATM   29  C   UNL     1      23.572  44.949  49.587  1.00  0.00     0.005 A 
HETATM   30  C   UNL     1      22.363  45.081  48.893  1.00  0.00     0.030 A 
BRANCH  27  31
HETATM   31  O   UNL     1      24.495  48.524  49.809  1.00  0.00    -0.356 OA
HETATM   32  C   UNL     1      24.625  49.448  48.735  1.00  0.00     0.210 C 
ENDBRANCH  27  31
ENDBRANCH   1  25
TORSDOF 2
ENDMDL
