MODEL 1
REMARK VINA RESULT:      -8.4      0.000      0.000
REMARK  4 active torsions:
REMARK  status: ('A' for Active; 'I' for Inactive)
REMARK    1  A    between atoms: C_9  and  C_10 
REMARK       I    between atoms: C_10  and  N_11 
REMARK    2  A    between atoms: N_11  and  C_12 
REMARK    3  A    between atoms: C_12  and  C_13 
REMARK    4  A    between atoms: C_14  and  O_15 
ROOT
HETATM    1  C   UNL     1      28.420  43.698  52.791  1.00  0.00     0.273 C 
HETATM    2  N   UNL     1      27.175  43.264  52.393  1.00  0.00    -0.347 N 
HETATM    3  O   UNL     1      29.467  43.378  52.236  1.00  0.00    -0.266 OA
HETATM    4  H   UNL     1      26.405  43.745  52.849  1.00  0.00     0.163 HD
ENDROOT
BRANCH   1   5
HETATM    5  C   UNL     1      28.370  44.604  53.950  1.00  0.00     0.157 A 
HETATM    6  C   UNL     1      29.246  44.617  55.076  1.00  0.00     0.029 A 
HETATM    7  C   UNL     1      30.355  43.862  55.508  1.00  0.00     0.023 A 
HETATM    8  C   UNL     1      28.796  45.662  55.873  1.00  0.00     0.063 A 
HETATM    9  C   UNL     1      30.974  44.179  56.730  1.00  0.00    -0.061 A 
HETATM   10  C   UNL     1      32.144  43.374  57.220  1.00  0.00     0.048 C 
HETATM   11  C   UNL     1      30.492  45.244  57.499  1.00  0.00     0.009 A 
HETATM   12  C   UNL     1      29.394  46.010  57.087  1.00  0.00     0.032 A 
HETATM   13  N   UNL     1      27.725  46.189  55.205  1.00  0.00    -0.277 N 
HETATM   14  H   UNL     1      27.151  46.972  55.492  1.00  0.00     0.189 HD
HETATM   15  N   UNL     1      27.430  45.571  54.049  1.00  0.00    -0.168 NA
ENDBRANCH   1   5
BRANCH   2  16
HETATM   16  C   UNL     1      26.930  42.591  51.131  1.00  0.00     0.116 C 
HETATM   17  C   UNL     1      26.836  41.067  51.296  1.00  0.00     0.037 C 
BRANCH  16  18
HETATM   18  C   UNL     1      25.685  43.187  50.480  1.00  0.00    -0.003 A 
HETATM   19  C   UNL     1      25.767  44.360  49.699  1.00  0.00     0.076 A 
HETATM   20  C   UNL     1      24.609  44.890  49.116  1.00  0.00     0.037 A 
HETATM   21  C   UNL     1      23.368  44.287  49.323  1.00  0.00     0.003 A 
HETATM   22  C   UNL     1      23.270  43.153  50.121  1.00  0.00     0.001 A 
HETATM   23  C   UNL     1      24.417  42.613  50.700  1.00  0.00     0.012 A 
BRANCH  19  24
HETATM   24  O   UNL     1      27.016  44.906  49.554  1.00  0.00    -0.355 OA
HETATM   25  C   UNL     1      27.114  46.324  49.574  1.00  0.00     0.210 C 
ENDBRANCH  19  24
ENDBRANCH  16  18
ENDBRANCH   2  16
TORSDOF 4
ENDMDL
MODEL 2
REMARK VINA RESULT:      -8.3      3.576      4.918
REMARK  4 active torsions:
REMARK  status: ('A' for Active; 'I' for Inactive)
REMARK    1  A    between atoms: C_9  and  C_10 
REMARK       I    between atoms: C_10  and  N_11 
REMARK    2  A    between atoms: N_11  and  C_12 
REMARK    3  A    between atoms: C_12  and  C_13 
REMARK    4  A    between atoms: C_14  and  O_15 
ROOT
HETATM    1  C   UNL     1      25.315  46.221  50.844  1.00  0.00     0.273 C 
HETATM    2  N   UNL     1      24.179  46.925  50.507  1.00  0.00    -0.347 N 
HETATM    3  O   UNL     1      25.884  45.437  50.090  1.00  0.00    -0.266 OA
HETATM    4  H   UNL     1      23.929  47.648  51.176  1.00  0.00     0.163 HD
ENDROOT
BRANCH   1   5
HETATM    5  C   UNL     1      25.790  46.515  52.206  1.00  0.00     0.157 A 
HETATM    6  C   UNL     1      26.719  45.757  52.980  1.00  0.00     0.029 A 
HETATM    7  C   UNL     1      27.453  44.566  52.805  1.00  0.00     0.023 A 
HETATM    8  C   UNL     1      26.850  46.455  54.173  1.00  0.00     0.063 A 
HETATM    9  C   UNL     1      28.290  44.111  53.839  1.00  0.00    -0.061 A 
HETATM   10  C   UNL     1      29.063  42.833  53.683  1.00  0.00     0.048 C 
HETATM   11  C   UNL     1      28.396  44.848  55.024  1.00  0.00     0.009 A 
HETATM   12  C   UNL     1      27.680  46.036  55.216  1.00  0.00     0.032 A 
HETATM   13  N   UNL     1      26.027  47.540  54.049  1.00  0.00    -0.277 N 
HETATM   14  H   UNL     1      25.873  48.272  54.731  1.00  0.00     0.189 HD
HETATM   15  N   UNL     1      25.362  47.604  52.883  1.00  0.00    -0.168 NA
ENDBRANCH   1   5
BRANCH   2  16
HETATM   16  C   UNL     1      23.673  47.020  49.150  1.00  0.00     0.116 C 
HETATM   17  C   UNL     1      22.688  45.889  48.820  1.00  0.00     0.037 C 
BRANCH  16  18
HETATM   18  C   UNL     1      23.066  48.404  48.939  1.00  0.00    -0.003 A 
HETATM   19  C   UNL     1      23.877  49.559  48.946  1.00  0.00     0.076 A 
HETATM   20  C   UNL     1      23.296  50.819  48.754  1.00  0.00     0.037 A 
HETATM   21  C   UNL     1      21.917  50.948  48.586  1.00  0.00     0.003 A 
HETATM   22  C   UNL     1      21.104  49.821  48.615  1.00  0.00     0.001 A 
HETATM   23  C   UNL     1      21.673  48.562  48.798  1.00  0.00     0.012 A 
BRANCH  19  24
HETATM   24  O   UNL     1      25.220  49.356  49.133  1.00  0.00    -0.355 OA
HETATM   25  C   UNL     1      26.100  49.848  48.130  1.00  0.00     0.210 C 
ENDBRANCH  19  24
ENDBRANCH  16  18
ENDBRANCH   2  16
TORSDOF 4
ENDMDL
MODEL 3
REMARK VINA RESULT:      -8.1      2.809      7.458
REMARK  4 active torsions:
REMARK  status: ('A' for Active; 'I' for Inactive)
REMARK    1  A    between atoms: C_9  and  C_10 
REMARK       I    between atoms: C_10  and  N_11 
REMARK    2  A    between atoms: N_11  and  C_12 
REMARK    3  A    between atoms: C_12  and  C_13 
REMARK    4  A    between atoms: C_14  and  O_15 
ROOT
HETATM    1  C   UNL     1      27.759  42.517  51.810  1.00  0.00     0.273 C 
HETATM    2  N   UNL     1      27.436  42.511  53.150  1.00  0.00    -0.347 N 
HETATM    3  O   UNL     1      27.667  43.505  51.088  1.00  0.00    -0.266 OA
HETATM    4  H   UNL     1      27.721  41.667  53.639  1.00  0.00     0.163 HD
ENDROOT
BRANCH   1   5
HETATM    5  C   UNL     1      28.243  41.212  51.329  1.00  0.00     0.157 A 
HETATM    6  C   UNL     1      28.143  40.687  50.007  1.00  0.00     0.029 A 
HETATM    7  C   UNL     1      27.597  41.119  48.781  1.00  0.00     0.023 A 
HETATM    8  C   UNL     1      28.761  39.445  50.063  1.00  0.00     0.063 A 
HETATM    9  C   UNL     1      27.685  40.286  47.652  1.00  0.00    -0.061 A 
HETATM   10  C   UNL     1      27.091  40.717  46.342  1.00  0.00     0.048 C 
HETATM   11  C   UNL     1      28.322  39.043  47.752  1.00  0.00     0.009 A 
HETATM   12  C   UNL     1      28.875  38.597  48.959  1.00  0.00     0.032 A 
HETATM   13  N   UNL     1      29.175  39.307  51.359  1.00  0.00    -0.277 N 
HETATM   14  H   UNL     1      29.670  38.520  51.763  1.00  0.00     0.189 HD
HETATM   15  N   UNL     1      28.871  40.345  52.156  1.00  0.00    -0.168 NA
ENDBRANCH   1   5
BRANCH   2  16
HETATM   16  C   UNL     1      27.197  43.719  53.917  1.00  0.00     0.116 C 
HETATM   17  C   UNL     1      25.963  43.595  54.823  1.00  0.00     0.037 C 
BRANCH  16  18
HETATM   18  C   UNL     1      28.461  44.073  54.697  1.00  0.00    -0.003 A 
HETATM   19  C   UNL     1      28.624  45.353  55.269  1.00  0.00     0.076 A 
HETATM   20  C   UNL     1      29.794  45.656  55.976  1.00  0.00     0.037 A 
HETATM   21  C   UNL     1      30.817  44.713  56.096  1.00  0.00     0.003 A 
HETATM   22  C   UNL     1      30.682  43.463  55.505  1.00  0.00     0.001 A 
HETATM   23  C   UNL     1      29.518  43.149  54.806  1.00  0.00     0.012 A 
BRANCH  19  24
HETATM   24  O   UNL     1      27.586  46.232  55.095  1.00  0.00    -0.355 OA
HETATM   25  C   UNL     1      27.918  47.590  54.834  1.00  0.00     0.210 C 
ENDBRANCH  19  24
ENDBRANCH  16  18
ENDBRANCH   2  16
TORSDOF 4
ENDMDL
MODEL 4
REMARK VINA RESULT:      -7.7      2.215      6.761
REMARK  4 active torsions:
REMARK  status: ('A' for Active; 'I' for Inactive)
REMARK    1  A    between atoms: C_9  and  C_10 
REMARK       I    between atoms: C_10  and  N_11 
REMARK    2  A    between atoms: N_11  and  C_12 
REMARK    3  A    between atoms: C_12  and  C_13 
REMARK    4  A    between atoms: C_14  and  O_15 
ROOT
HETATM    1  C   UNL     1      26.799  44.125  51.966  1.00  0.00     0.273 C 
HETATM    2  N   UNL     1      26.570  43.794  53.284  1.00  0.00    -0.347 N 
HETATM    3  O   UNL     1      27.824  43.838  51.355  1.00  0.00    -0.266 OA
HETATM    4  H   UNL     1      25.615  43.957  53.590  1.00  0.00     0.163 HD
ENDROOT
BRANCH   1   5
HETATM    5  C   UNL     1      25.675  44.852  51.352  1.00  0.00     0.157 A 
HETATM    6  C   UNL     1      25.732  46.083  50.633  1.00  0.00     0.029 A 
HETATM    7  C   UNL     1      26.736  47.004  50.275  1.00  0.00     0.023 A 
HETATM    8  C   UNL     1      24.422  46.335  50.245  1.00  0.00     0.063 A 
HETATM    9  C   UNL     1      26.391  48.155  49.543  1.00  0.00    -0.061 A 
HETATM   10  C   UNL     1      27.441  49.161  49.171  1.00  0.00     0.048 C 
HETATM   11  C   UNL     1      25.059  48.368  49.169  1.00  0.00     0.009 A 
HETATM   12  C   UNL     1      24.046  47.462  49.510  1.00  0.00     0.032 A 
HETATM   13  N   UNL     1      23.692  45.288  50.736  1.00  0.00    -0.277 N 
HETATM   14  H   UNL     1      22.695  45.139  50.639  1.00  0.00     0.189 HD
HETATM   15  N   UNL     1      24.410  44.380  51.419  1.00  0.00    -0.168 NA
ENDBRANCH   1   5
BRANCH   2  16
HETATM   16  C   UNL     1      27.393  42.855  54.024  1.00  0.00     0.116 C 
HETATM   17  C   UNL     1      27.887  41.698  53.142  1.00  0.00     0.037 C 
BRANCH  16  18
HETATM   18  C   UNL     1      28.537  43.612  54.691  1.00  0.00    -0.003 A 
HETATM   19  C   UNL     1      28.346  44.917  55.194  1.00  0.00     0.076 A 
HETATM   20  C   UNL     1      29.413  45.594  55.799  1.00  0.00     0.037 A 
HETATM   21  C   UNL     1      30.674  45.001  55.884  1.00  0.00     0.003 A 
HETATM   22  C   UNL     1      30.883  43.732  55.359  1.00  0.00     0.001 A 
HETATM   23  C   UNL     1      29.826  43.047  54.762  1.00  0.00     0.012 A 
BRANCH  19  24
HETATM   24  O   UNL     1      27.086  45.440  55.059  1.00  0.00    -0.355 OA
HETATM   25  C   UNL     1      26.980  46.848  54.887  1.00  0.00     0.210 C 
ENDBRANCH  19  24
ENDBRANCH  16  18
ENDBRANCH   2  16
TORSDOF 4
ENDMDL
MODEL 5
REMARK VINA RESULT:      -7.6      4.971      7.016
REMARK  4 active torsions:
REMARK  status: ('A' for Active; 'I' for Inactive)
REMARK    1  A    between atoms: C_9  and  C_10 
REMARK       I    between atoms: C_10  and  N_11 
REMARK    2  A    between atoms: N_11  and  C_12 
REMARK    3  A    between atoms: C_12  and  C_13 
REMARK    4  A    between atoms: C_14  and  O_15 
ROOT
HETATM    1  C   UNL     1      24.420  47.991  49.902  1.00  0.00     0.273 C 
HETATM    2  N   UNL     1      23.110  48.332  49.642  1.00  0.00    -0.347 N 
HETATM    3  O   UNL     1      25.384  48.680  49.581  1.00  0.00    -0.266 OA
HETATM    4  H   UNL     1      22.429  47.742  50.113  1.00  0.00     0.163 HD
ENDROOT
BRANCH   1   5
HETATM    5  C   UNL     1      24.549  46.712  50.621  1.00  0.00     0.157 A 
HETATM    6  C   UNL     1      25.254  46.472  51.838  1.00  0.00     0.029 A 
HETATM    7  C   UNL     1      26.033  47.239  52.728  1.00  0.00     0.023 A 
HETATM    8  C   UNL     1      25.059  45.124  52.109  1.00  0.00     0.063 A 
HETATM    9  C   UNL     1      26.596  46.624  53.860  1.00  0.00    -0.061 A 
HETATM   10  C   UNL     1      27.447  47.416  54.810  1.00  0.00     0.048 C 
HETATM   11  C   UNL     1      26.370  45.263  54.098  1.00  0.00     0.009 A 
HETATM   12  C   UNL     1      25.596  44.484  53.229  1.00  0.00     0.032 A 
HETATM   13  N   UNL     1      24.284  44.659  51.083  1.00  0.00    -0.277 N 
HETATM   14  H   UNL     1      23.942  43.714  50.955  1.00  0.00     0.189 HD
HETATM   15  N   UNL     1      23.967  45.582  50.160  1.00  0.00    -0.168 NA
ENDBRANCH   1   5
BRANCH   2  16
HETATM   16  C   UNL     1      22.704  49.651  49.194  1.00  0.00     0.116 C 
HETATM   17  C   UNL     1      23.065  49.899  47.722  1.00  0.00     0.037 C 
BRANCH  16  18
HETATM   18  C   UNL     1      21.214  49.835  49.470  1.00  0.00    -0.003 A 
HETATM   19  C   UNL     1      20.304  48.774  49.270  1.00  0.00     0.076 A 
HETATM   20  C   UNL     1      18.941  48.968  49.526  1.00  0.00     0.037 A 
HETATM   21  C   UNL     1      18.467  50.211  49.949  1.00  0.00     0.003 A 
HETATM   22  C   UNL     1      19.349  51.273  50.113  1.00  0.00     0.001 A 
HETATM   23  C   UNL     1      20.709  51.088  49.868  1.00  0.00     0.012 A 
BRANCH  19  24
HETATM   24  O   UNL     1      20.840  47.589  48.838  1.00  0.00    -0.355 OA
HETATM   25  C   UNL     1      19.938  46.519  48.584  1.00  0.00     0.210 C 
ENDBRANCH  19  24
ENDBRANCH  16  18
ENDBRANCH   2  16
TORSDOF 4
ENDMDL
MODEL 6
REMARK VINA RESULT:      -7.5      6.793      9.489
REMARK  4 active torsions:
REMARK  status: ('A' for Active; 'I' for Inactive)
REMARK    1  A    between atoms: C_9  and  C_10 
REMARK       I    between atoms: C_10  and  N_11 
REMARK    2  A    between atoms: N_11  and  C_12 
REMARK    3  A    between atoms: C_12  and  C_13 
REMARK    4  A    between atoms: C_14  and  O_15 
ROOT
HETATM    1  C   UNL     1      21.646  48.356  48.708  1.00  0.00     0.273 C 
HETATM    2  N   UNL     1      20.906  49.119  49.584  1.00  0.00    -0.347 N 
HETATM    3  O   UNL     1      21.197  47.400  48.083  1.00  0.00    -0.266 OA
HETATM    4  H   UNL     1      21.375  49.965  49.893  1.00  0.00     0.163 HD
ENDROOT
BRANCH   1   5
HETATM    5  C   UNL     1      23.041  48.814  48.584  1.00  0.00     0.157 A 
HETATM    6  C   UNL     1      24.177  48.328  49.297  1.00  0.00     0.029 A 
HETATM    7  C   UNL     1      24.412  47.362  50.295  1.00  0.00     0.023 A 
HETATM    8  C   UNL     1      25.250  49.063  48.809  1.00  0.00     0.063 A 
HETATM    9  C   UNL     1      25.719  47.168  50.776  1.00  0.00    -0.061 A 
HETATM   10  C   UNL     1      25.989  46.159  51.855  1.00  0.00     0.048 C 
HETATM   11  C   UNL     1      26.773  47.927  50.253  1.00  0.00     0.009 A 
HETATM   12  C   UNL     1      26.562  48.889  49.258  1.00  0.00     0.032 A 
HETATM   13  N   UNL     1      24.715  49.907  47.876  1.00  0.00    -0.277 N 
HETATM   14  H   UNL     1      25.210  50.589  47.313  1.00  0.00     0.189 HD
HETATM   15  N   UNL     1      23.385  49.796  47.721  1.00  0.00    -0.168 NA
ENDBRANCH   1   5
BRANCH   2  16
HETATM   16  C   UNL     1      19.459  49.045  49.679  1.00  0.00     0.116 C 
HETATM   17  C   UNL     1      18.970  49.100  51.134  1.00  0.00     0.037 C 
BRANCH  16  18
HETATM   18  C   UNL     1      18.846  50.144  48.814  1.00  0.00    -0.003 A 
HETATM   19  C   UNL     1      17.915  49.833  47.800  1.00  0.00     0.076 A 
HETATM   20  C   UNL     1      17.369  50.858  47.017  1.00  0.00     0.037 A 
HETATM   21  C   UNL     1      17.760  52.184  47.209  1.00  0.00     0.003 A 
HETATM   22  C   UNL     1      18.704  52.497  48.179  1.00  0.00     0.001 A 
HETATM   23  C   UNL     1      19.248  51.485  48.969  1.00  0.00     0.012 A 
BRANCH  19  24
HETATM   24  O   UNL     1      17.592  48.508  47.659  1.00  0.00    -0.355 OA
HETATM   25  C   UNL     1      16.291  48.106  48.068  1.00  0.00     0.210 C 
ENDBRANCH  19  24
ENDBRANCH  16  18
ENDBRANCH   2  16
TORSDOF 4
ENDMDL
MODEL 7
REMARK VINA RESULT:      -7.5      2.868      4.409
REMARK  4 active torsions:
REMARK  status: ('A' for Active; 'I' for Inactive)
REMARK    1  A    between atoms: C_9  and  C_10 
REMARK       I    between atoms: C_10  and  N_11 
REMARK    2  A    between atoms: N_11  and  C_12 
REMARK    3  A    between atoms: C_12  and  C_13 
REMARK    4  A    between atoms: C_14  and  O_15 
ROOT
HETATM    1  C   UNL     1      26.130  45.901  51.999  1.00  0.00     0.273 C 
HETATM    2  N   UNL     1      25.992  46.271  50.679  1.00  0.00    -0.347 N 
HETATM    3  O   UNL     1      25.960  46.664  52.946  1.00  0.00    -0.266 OA
HETATM    4  H   UNL     1      26.005  45.490  50.029  1.00  0.00     0.163 HD
ENDROOT
BRANCH   1   5
HETATM    5  C   UNL     1      26.492  44.484  52.165  1.00  0.00     0.157 A 
HETATM    6  C   UNL     1      27.517  43.945  52.998  1.00  0.00     0.029 A 
HETATM    7  C   UNL     1      28.493  44.464  53.871  1.00  0.00     0.023 A 
HETATM    8  C   UNL     1      27.443  42.569  52.818  1.00  0.00     0.063 A 
HETATM    9  C   UNL     1      29.369  43.585  54.532  1.00  0.00    -0.061 A 
HETATM   10  C   UNL     1      30.431  44.118  55.450  1.00  0.00     0.048 C 
HETATM   11  C   UNL     1      29.256  42.205  54.326  1.00  0.00     0.009 A 
HETATM   12  C   UNL     1      28.290  41.668  53.467  1.00  0.00     0.032 A 
HETATM   13  N   UNL     1      26.424  42.377  51.927  1.00  0.00    -0.277 N 
HETATM   14  H   UNL     1      26.086  41.492  51.567  1.00  0.00     0.189 HD
HETATM   15  N   UNL     1      25.834  43.506  51.501  1.00  0.00    -0.168 NA
ENDBRANCH   1   5
BRANCH   2  16
HETATM   16  C   UNL     1      25.386  47.521  50.260  1.00  0.00     0.116 C 
HETATM   17  C   UNL     1      26.349  48.382  49.429  1.00  0.00     0.037 C 
BRANCH  16  18
HETATM   18  C   UNL     1      24.084  47.222  49.522  1.00  0.00    -0.003 A 
HETATM   19  C   UNL     1      23.113  48.229  49.330  1.00  0.00     0.076 A 
HETATM   20  C   UNL     1      21.924  47.929  48.653  1.00  0.00     0.037 A 
HETATM   21  C   UNL     1      21.675  46.636  48.191  1.00  0.00     0.003 A 
HETATM   22  C   UNL     1      22.608  45.628  48.408  1.00  0.00     0.001 A 
HETATM   23  C   UNL     1      23.798  45.918  49.074  1.00  0.00     0.012 A 
BRANCH  19  24
HETATM   24  O   UNL     1      23.419  49.469  49.825  1.00  0.00    -0.355 OA
HETATM   25  C   UNL     1      22.539  50.538  49.498  1.00  0.00     0.210 C 
ENDBRANCH  19  24
ENDBRANCH  16  18
ENDBRANCH   2  16
TORSDOF 4
ENDMDL
MODEL 8
REMARK VINA RESULT:      -7.3      2.537      6.855
REMARK  4 active torsions:
REMARK  status: ('A' for Active; 'I' for Inactive)
REMARK    1  A    between atoms: C_9  and  C_10 
REMARK       I    between atoms: C_10  and  N_11 
REMARK    2  A    between atoms: N_11  and  C_12 
REMARK    3  A    between atoms: C_12  and  C_13 
REMARK    4  A    between atoms: C_14  and  O_15 
ROOT
HETATM    1  C   UNL     1      26.493  43.075  50.930  1.00  0.00     0.273 C 
HETATM    2  N   UNL     1      25.933  43.106  52.188  1.00  0.00    -0.347 N 
HETATM    3  O   UNL     1      27.183  43.977  50.464  1.00  0.00    -0.266 OA
HETATM    4  H   UNL     1      25.531  42.220  52.482  1.00  0.00     0.163 HD
ENDROOT
BRANCH   1   5
HETATM    5  C   UNL     1      26.191  41.835  50.195  1.00  0.00     0.157 A 
HETATM    6  C   UNL     1      26.985  40.652  50.132  1.00  0.00     0.029 A 
HETATM    7  C   UNL     1      28.227  40.234  50.649  1.00  0.00     0.023 A 
HETATM    8  C   UNL     1      26.261  39.772  49.337  1.00  0.00     0.063 A 
HETATM    9  C   UNL     1      28.705  38.947  50.347  1.00  0.00    -0.061 A 
HETATM   10  C   UNL     1      30.037  38.489  50.869  1.00  0.00     0.048 C 
HETATM   11  C   UNL     1      27.941  38.091  49.546  1.00  0.00     0.009 A 
HETATM   12  C   UNL     1      26.702  38.484  49.025  1.00  0.00     0.032 A 
HETATM   13  N   UNL     1      25.127  40.452  48.988  1.00  0.00    -0.277 N 
HETATM   14  H   UNL     1      24.365  40.116  48.412  1.00  0.00     0.189 HD
HETATM   15  N   UNL     1      25.054  41.703  49.475  1.00  0.00    -0.168 NA
ENDBRANCH   1   5
BRANCH   2  16
HETATM   16  C   UNL     1      26.298  44.080  53.200  1.00  0.00     0.116 C 
HETATM   17  C   UNL     1      25.213  44.232  54.275  1.00  0.00     0.037 C 
BRANCH  16  18
HETATM   18  C   UNL     1      27.656  43.704  53.787  1.00  0.00    -0.003 A 
HETATM   19  C   UNL     1      28.471  44.675  54.408  1.00  0.00     0.076 A 
HETATM   20  C   UNL     1      29.714  44.307  54.936  1.00  0.00     0.037 A 
HETATM   21  C   UNL     1      30.171  42.992  54.829  1.00  0.00     0.003 A 
HETATM   22  C   UNL     1      29.393  42.036  54.188  1.00  0.00     0.001 A 
HETATM   23  C   UNL     1      28.151  42.390  53.665  1.00  0.00     0.012 A 
BRANCH  19  24
HETATM   24  O   UNL     1      27.964  45.948  54.461  1.00  0.00    -0.355 OA
HETATM   25  C   UNL     1      28.040  46.629  55.707  1.00  0.00     0.210 C 
ENDBRANCH  19  24
ENDBRANCH  16  18
ENDBRANCH   2  16
TORSDOF 4
ENDMDL
MODEL 9
REMARK VINA RESULT:      -7.3      1.873      3.494
REMARK  4 active torsions:
REMARK  status: ('A' for Active; 'I' for Inactive)
REMARK    1  A    between atoms: C_9  and  C_10 
REMARK       I    between atoms: C_10  and  N_11 
REMARK    2  A    between atoms: N_11  and  C_12 
REMARK    3  A    between atoms: C_12  and  C_13 
REMARK    4  A    between atoms: C_14  and  O_15 
ROOT
HETATM    1  C   UNL     1      26.209  44.372  51.467  1.00  0.00     0.273 C 
HETATM    2  N   UNL     1      25.781  43.115  51.832  1.00  0.00    -0.347 N 
HETATM    3  O   UNL     1      26.334  44.743  50.304  1.00  0.00    -0.266 OA
HETATM    4  H   UNL     1      25.576  43.021  52.823  1.00  0.00     0.163 HD
ENDROOT
BRANCH   1   5
HETATM    5  C   UNL     1      26.493  45.241  52.622  1.00  0.00     0.157 A 
HETATM    6  C   UNL     1      27.530  45.083  53.589  1.00  0.00     0.029 A 
HETATM    7  C   UNL     1      28.559  44.150  53.831  1.00  0.00     0.023 A 
HETATM    8  C   UNL     1      27.388  46.162  54.451  1.00  0.00     0.063 A 
HETATM    9  C   UNL     1      29.410  44.330  54.936  1.00  0.00    -0.061 A 
HETATM   10  C   UNL     1      30.499  43.337  55.225  1.00  0.00     0.048 C 
HETATM   11  C   UNL     1      29.234  45.435  55.777  1.00  0.00     0.009 A 
HETATM   12  C   UNL     1      28.222  46.376  55.552  1.00  0.00     0.032 A 
HETATM   13  N   UNL     1      26.322  46.870  53.970  1.00  0.00    -0.277 N 
HETATM   14  H   UNL     1      25.934  47.725  54.350  1.00  0.00     0.189 HD
HETATM   15  N   UNL     1      25.748  46.340  52.877  1.00  0.00    -0.168 NA
ENDBRANCH   1   5
BRANCH   2  16
HETATM   16  C   UNL     1      25.187  42.174  50.901  1.00  0.00     0.116 C 
HETATM   17  C   UNL     1      24.047  42.805  50.088  1.00  0.00     0.037 C 
BRANCH  16  18
HETATM   18  C   UNL     1      26.283  41.590  50.014  1.00  0.00    -0.003 A 
HETATM   19  C   UNL     1      27.419  40.971  50.579  1.00  0.00     0.076 A 
HETATM   20  C   UNL     1      28.414  40.446  49.745  1.00  0.00     0.037 A 
HETATM   21  C   UNL     1      28.308  40.554  48.357  1.00  0.00     0.003 A 
HETATM   22  C   UNL     1      27.212  41.194  47.791  1.00  0.00     0.001 A 
HETATM   23  C   UNL     1      26.213  41.714  48.612  1.00  0.00     0.012 A 
BRANCH  19  24
HETATM   24  O   UNL     1      27.461  40.917  51.948  1.00  0.00    -0.355 OA
HETATM   25  C   UNL     1      28.738  40.763  52.556  1.00  0.00     0.210 C 
ENDBRANCH  19  24
ENDBRANCH  16  18
ENDBRANCH   2  16
TORSDOF 4
ENDMDL
MODEL 10
REMARK VINA RESULT:      -7.3      2.142      3.180
REMARK  4 active torsions:
REMARK  status: ('A' for Active; 'I' for Inactive)
REMARK    1  A    between atoms: C_9  and  C_10 
REMARK       I    between atoms: C_10  and  N_11 
REMARK    2  A    between atoms: N_11  and  C_12 
REMARK    3  A    between atoms: C_12  and  C_13 
REMARK    4  A    between atoms: C_14  and  O_15 
ROOT
HETATM    1  C   UNL     1      29.667  43.165  53.321  1.00  0.00     0.273 C 
HETATM    2  N   UNL     1      28.347  43.322  52.961  1.00  0.00    -0.347 N 
HETATM    3  O   UNL     1      30.516  42.641  52.606  1.00  0.00    -0.266 OA
HETATM    4  H   UNL     1      27.815  43.916  53.590  1.00  0.00     0.163 HD
ENDROOT
BRANCH   1   5
HETATM    5  C   UNL     1      29.967  43.706  54.658  1.00  0.00     0.157 A 
HETATM    6  C   UNL     1      29.340  44.814  55.303  1.00  0.00     0.029 A 
HETATM    7  C   UNL     1      28.332  45.742  54.975  1.00  0.00     0.023 A 
HETATM    8  C   UNL     1      29.959  44.907  56.543  1.00  0.00     0.063 A 
HETATM    9  C   UNL     1      27.982  46.740  55.902  1.00  0.00    -0.061 A 
HETATM   10  C   UNL     1      26.926  47.753  55.564  1.00  0.00     0.048 C 
HETATM   11  C   UNL     1      28.627  46.794  57.143  1.00  0.00     0.009 A 
HETATM   12  C   UNL     1      29.628  45.878  57.491  1.00  0.00     0.032 A 
HETATM   13  N   UNL     1      30.878  43.895  56.565  1.00  0.00    -0.277 N 
HETATM   14  H   UNL     1      31.510  43.659  57.320  1.00  0.00     0.189 HD
HETATM   15  N   UNL     1      30.921  43.157  55.443  1.00  0.00    -0.168 NA
ENDBRANCH   1   5
BRANCH   2  16
HETATM   16  C   UNL     1      27.861  43.122  51.608  1.00  0.00     0.116 C 
HETATM   17  C   UNL     1      27.218  41.740  51.422  1.00  0.00     0.037 C 
BRANCH  16  18
HETATM   18  C   UNL     1      26.913  44.262  51.245  1.00  0.00    -0.003 A 
HETATM   19  C   UNL     1      25.779  44.541  52.038  1.00  0.00     0.076 A 
HETATM   20  C   UNL     1      24.922  45.590  51.682  1.00  0.00     0.037 A 
HETATM   21  C   UNL     1      25.160  46.344  50.532  1.00  0.00     0.003 A 
HETATM   22  C   UNL     1      26.253  46.054  49.724  1.00  0.00     0.001 A 
HETATM   23  C   UNL     1      27.116  45.017  50.073  1.00  0.00     0.012 A 
BRANCH  19  24
HETATM   24  O   UNL     1      25.601  43.748  53.141  1.00  0.00    -0.355 OA
HETATM   25  C   UNL     1      25.158  44.382  54.335  1.00  0.00     0.210 C 
ENDBRANCH  19  24
ENDBRANCH  16  18
ENDBRANCH   2  16
TORSDOF 4
ENDMDL
