MODEL 1
REMARK VINA RESULT:     -10.4      0.000      0.000
REMARK  4 active torsions:
REMARK  status: ('A' for Active; 'I' for Inactive)
REMARK    1  A    between atoms: C_2  and  C_3 
REMARK    2  A    between atoms: C_4  and  C_5 
REMARK       I    between atoms: C_5  and  N_6 
REMARK    3  A    between atoms: N_6  and  C_7 
REMARK    4  A    between atoms: C_14  and  C_15 
REMARK       I    between atoms: C_15  and  N_16 
ROOT
HETATM    1  C   UNL     1      25.795  47.518  50.513  1.00  0.00     0.035 A 
HETATM    2  C   UNL     1      24.501  47.768  50.035  1.00  0.00     0.046 A 
HETATM    3  C   UNL     1      24.308  48.731  49.018  1.00  0.00     0.030 A 
HETATM    4  C   UNL     1      25.413  49.405  48.515  1.00  0.00     0.063 A 
HETATM    5  N   UNL     1      24.918  50.258  47.569  1.00  0.00    -0.277 N 
HETATM    6  H   UNL     1      25.442  50.911  46.996  1.00  0.00     0.189 HD
HETATM    7  N   UNL     1      23.587  50.198  47.407  1.00  0.00    -0.168 NA
HETATM    8  C   UNL     1      23.194  49.256  48.295  1.00  0.00     0.156 A 
HETATM    9  C   UNL     1      26.715  49.176  48.962  1.00  0.00     0.034 A 
HETATM   10  C   UNL     1      26.880  48.218  49.969  1.00  0.00     0.032 A 
ENDROOT
BRANCH   1  11
HETATM   11  N   UNL     1      26.091  46.591  51.536  1.00  0.00    -0.327 N 
HETATM   12  C   UNL     1      25.938  46.758  52.897  1.00  0.00     0.227 C 
HETATM   13  O   UNL     1      25.501  47.743  53.471  1.00  0.00    -0.273 OA
HETATM   14  H   UNL     1      26.500  45.722  51.230  1.00  0.00     0.169 HD
BRANCH  12  15
HETATM   15  C   UNL     1      26.388  45.613  53.749  1.00  0.00     0.087 A 
HETATM   16  C   UNL     1      27.600  44.805  53.308  1.00  0.00     0.032 A 
HETATM   17  C   UNL     1      26.243  44.150  53.426  1.00  0.00     0.025 A 
BRANCH  16  18
HETATM   18  C   UNL     1      28.690  44.483  54.300  1.00  0.00    -0.053 A 
HETATM   19  C   UNL     1      29.362  43.249  54.266  1.00  0.00     0.009 A 
HETATM   20  C   UNL     1      30.394  42.957  55.165  1.00  0.00     0.024 A 
HETATM   21  C   UNL     1      30.772  43.903  56.113  1.00  0.00     0.034 A 
HETATM   22  C   UNL     1      30.130  45.135  56.167  1.00  0.00     0.024 A 
HETATM   23 CL   UNL     1      32.043  43.549  57.216  1.00  0.00    -0.084 Cl
HETATM   24  C   UNL     1      29.101  45.421  55.263  1.00  0.00     0.009 A 
ENDBRANCH  16  18
ENDBRANCH  12  15
ENDBRANCH   1  11
BRANCH   8  25
HETATM   25  C   UNL     1      21.780  48.883  48.431  1.00  0.00     0.270 C 
HETATM   26  N   UNL     1      21.229  49.217  49.639  1.00  0.00    -0.365 N 
HETATM   27  H   UNL     1      21.813  49.680  50.327  1.00  0.00     0.159 HD
HETATM   28  H   UNL     1      20.263  49.003  49.824  1.00  0.00     0.159 HD
HETATM   29  O   UNL     1      21.115  48.325  47.566  1.00  0.00    -0.266 OA
ENDBRANCH   8  25
TORSDOF 4
ENDMDL
MODEL 2
REMARK VINA RESULT:      -9.5      2.770      3.737
REMARK  4 active torsions:
REMARK  status: ('A' for Active; 'I' for Inactive)
REMARK    1  A    between atoms: C_2  and  C_3 
REMARK    2  A    between atoms: C_4  and  C_5 
REMARK       I    between atoms: C_5  and  N_6 
REMARK    3  A    between atoms: N_6  and  C_7 
REMARK    4  A    between atoms: C_14  and  C_15 
REMARK       I    between atoms: C_15  and  N_16 
ROOT
HETATM    1  C   UNL     1      25.010  43.959  51.268  1.00  0.00     0.035 A 
HETATM    2  C   UNL     1      24.800  45.292  50.889  1.00  0.00     0.046 A 
HETATM    3  C   UNL     1      23.825  45.593  49.910  1.00  0.00     0.030 A 
HETATM    4  C   UNL     1      23.096  44.553  49.349  1.00  0.00     0.063 A 
HETATM    5  N   UNL     1      22.254  45.144  48.449  1.00  0.00    -0.277 N 
HETATM    6  H   UNL     1      21.574  44.686  47.852  1.00  0.00     0.189 HD
HETATM    7  N   UNL     1      22.366  46.479  48.375  1.00  0.00    -0.168 NA
HETATM    8  C   UNL     1      23.333  46.773  49.275  1.00  0.00     0.156 A 
HETATM    9  C   UNL     1      23.273  43.216  49.707  1.00  0.00     0.034 A 
HETATM   10  C   UNL     1      24.244  42.944  50.679  1.00  0.00     0.032 A 
ENDROOT
BRANCH   1  11
HETATM   11  N   UNL     1      25.970  43.553  52.221  1.00  0.00    -0.327 N 
HETATM   12  C   UNL     1      27.057  42.728  52.026  1.00  0.00     0.227 C 
HETATM   13  O   UNL     1      27.400  42.202  50.978  1.00  0.00    -0.273 OA
HETATM   14  H   UNL     1      25.812  43.879  53.161  1.00  0.00     0.169 HD
BRANCH  12  15
HETATM   15  C   UNL     1      27.876  42.431  53.242  1.00  0.00     0.087 A 
HETATM   16  C   UNL     1      29.257  43.059  53.365  1.00  0.00     0.032 A 
HETATM   17  C   UNL     1      29.100  41.557  53.301  1.00  0.00     0.025 A 
BRANCH  16  18
HETATM   18  C   UNL     1      29.667  43.728  54.654  1.00  0.00    -0.053 A 
HETATM   19  C   UNL     1      30.685  43.191  55.460  1.00  0.00     0.009 A 
HETATM   20  C   UNL     1      31.089  43.823  56.641  1.00  0.00     0.024 A 
HETATM   21  C   UNL     1      30.479  45.011  57.031  1.00  0.00     0.034 A 
HETATM   22  C   UNL     1      29.473  45.571  56.251  1.00  0.00     0.024 A 
HETATM   23 CL   UNL     1      30.977  45.793  58.479  1.00  0.00    -0.084 Cl
HETATM   24  C   UNL     1      29.076  44.934  55.070  1.00  0.00     0.009 A 
ENDBRANCH  16  18
ENDBRANCH  12  15
ENDBRANCH   1  11
BRANCH   8  25
HETATM   25  C   UNL     1      23.761  48.161  49.503  1.00  0.00     0.270 C 
HETATM   26  N   UNL     1      22.728  49.038  49.694  1.00  0.00    -0.365 N 
HETATM   27  H   UNL     1      21.779  48.684  49.667  1.00  0.00     0.159 HD
HETATM   28  H   UNL     1      22.924  50.012  49.861  1.00  0.00     0.159 HD
HETATM   29  O   UNL     1      24.927  48.539  49.530  1.00  0.00    -0.266 OA
ENDBRANCH   8  25
TORSDOF 4
ENDMDL
MODEL 3
REMARK VINA RESULT:      -9.2      2.395      2.928
REMARK  4 active torsions:
REMARK  status: ('A' for Active; 'I' for Inactive)
REMARK    1  A    between atoms: C_2  and  C_3 
REMARK    2  A    between atoms: C_4  and  C_5 
REMARK       I    between atoms: C_5  and  N_6 
REMARK    3  A    between atoms: N_6  and  C_7 
REMARK    4  A    between atoms: C_14  and  C_15 
REMARK       I    between atoms: C_15  and  N_16 
ROOT
HETATM    1  C   UNL     1      25.526  45.758  51.113  1.00  0.00     0.035 A 
HETATM    2  C   UNL     1      24.330  45.307  50.537  1.00  0.00     0.046 A 
HETATM    3  C   UNL     1      23.626  46.147  49.643  1.00  0.00     0.030 A 
HETATM    4  C   UNL     1      24.144  47.404  49.357  1.00  0.00     0.063 A 
HETATM    5  N   UNL     1      23.256  47.971  48.486  1.00  0.00    -0.277 N 
HETATM    6  H   UNL     1      23.313  48.893  48.066  1.00  0.00     0.189 HD
HETATM    7  N   UNL     1      22.207  47.195  48.176  1.00  0.00    -0.168 NA
HETATM    8  C   UNL     1      22.421  46.062  48.882  1.00  0.00     0.156 A 
HETATM    9  C   UNL     1      25.334  47.882  49.906  1.00  0.00     0.034 A 
HETATM   10  C   UNL     1      26.012  47.031  50.787  1.00  0.00     0.032 A 
ENDROOT
BRANCH   1  11
HETATM   11  N   UNL     1      26.292  45.005  52.028  1.00  0.00    -0.327 N 
HETATM   12  C   UNL     1      26.900  43.785  51.818  1.00  0.00     0.227 C 
HETATM   13  O   UNL     1      26.897  43.132  50.786  1.00  0.00    -0.273 OA
HETATM   14  H   UNL     1      26.367  45.393  52.955  1.00  0.00     0.169 HD
BRANCH  12  15
HETATM   15  C   UNL     1      27.608  43.197  52.997  1.00  0.00     0.087 A 
HETATM   16  C   UNL     1      29.102  43.443  53.150  1.00  0.00     0.032 A 
HETATM   17  C   UNL     1      28.569  42.039  52.975  1.00  0.00     0.025 A 
BRANCH  16  18
HETATM   18  C   UNL     1      29.659  43.886  54.481  1.00  0.00    -0.053 A 
HETATM   19  C   UNL     1      29.188  45.048  55.116  1.00  0.00     0.009 A 
HETATM   20  C   UNL     1      29.680  45.447  56.363  1.00  0.00     0.024 A 
HETATM   21  C   UNL     1      30.652  44.680  56.999  1.00  0.00     0.034 A 
HETATM   22  C   UNL     1      31.133  43.522  56.399  1.00  0.00     0.024 A 
HETATM   23 CL   UNL     1      31.255  45.165  58.535  1.00  0.00    -0.084 Cl
HETATM   24  C   UNL     1      30.635  43.128  55.153  1.00  0.00     0.009 A 
ENDBRANCH  16  18
ENDBRANCH  12  15
ENDBRANCH   1  11
BRANCH   8  25
HETATM   25  C   UNL     1      21.480  44.935  48.814  1.00  0.00     0.270 C 
HETATM   26  N   UNL     1      20.209  45.245  49.217  1.00  0.00    -0.365 N 
HETATM   27  H   UNL     1      20.014  46.193  49.520  1.00  0.00     0.159 HD
HETATM   28  H   UNL     1      19.494  44.536  49.203  1.00  0.00     0.159 HD
HETATM   29  O   UNL     1      21.766  43.804  48.436  1.00  0.00    -0.266 OA
ENDBRANCH   8  25
TORSDOF 4
ENDMDL
MODEL 4
REMARK VINA RESULT:      -9.2      4.667      9.232
REMARK  4 active torsions:
REMARK  status: ('A' for Active; 'I' for Inactive)
REMARK    1  A    between atoms: C_2  and  C_3 
REMARK    2  A    between atoms: C_4  and  C_5 
REMARK       I    between atoms: C_5  and  N_6 
REMARK    3  A    between atoms: N_6  and  C_7 
REMARK    4  A    between atoms: C_14  and  C_15 
REMARK       I    between atoms: C_15  and  N_16 
ROOT
HETATM    1  C   UNL     1      28.645  44.295  53.583  1.00  0.00     0.035 A 
HETATM    2  C   UNL     1      28.850  44.918  54.822  1.00  0.00     0.046 A 
HETATM    3  C   UNL     1      29.885  44.460  55.670  1.00  0.00     0.030 A 
HETATM    4  C   UNL     1      30.676  43.399  55.248  1.00  0.00     0.063 A 
HETATM    5  N   UNL     1      31.565  43.184  56.263  1.00  0.00    -0.277 N 
HETATM    6  H   UNL     1      32.296  42.481  56.300  1.00  0.00     0.189 HD
HETATM    7  N   UNL     1      31.428  44.013  57.309  1.00  0.00    -0.168 NA
HETATM    8  C   UNL     1      30.393  44.810  56.957  1.00  0.00     0.156 A 
HETATM    9  C   UNL     1      30.504  42.760  54.019  1.00  0.00     0.034 A 
HETATM   10  C   UNL     1      29.474  43.234  53.197  1.00  0.00     0.032 A 
ENDROOT
BRANCH   1  11
HETATM   11  N   UNL     1      27.630  44.666  52.674  1.00  0.00    -0.327 N 
HETATM   12  C   UNL     1      26.717  43.845  52.046  1.00  0.00     0.227 C 
HETATM   13  O   UNL     1      26.610  42.635  52.174  1.00  0.00    -0.273 OA
HETATM   14  H   UNL     1      27.601  45.644  52.431  1.00  0.00     0.169 HD
BRANCH  12  15
HETATM   15  C   UNL     1      25.786  44.518  51.088  1.00  0.00     0.087 A 
HETATM   16  C   UNL     1      25.170  45.853  51.482  1.00  0.00     0.032 A 
HETATM   17  C   UNL     1      24.294  44.646  51.236  1.00  0.00     0.025 A 
BRANCH  16  18
HETATM   18  C   UNL     1      25.177  47.001  50.503  1.00  0.00    -0.053 A 
HETATM   19  C   UNL     1      23.987  47.460  49.913  1.00  0.00     0.009 A 
HETATM   20  C   UNL     1      23.983  48.543  49.028  1.00  0.00     0.024 A 
HETATM   21  C   UNL     1      25.177  49.190  48.724  1.00  0.00     0.034 A 
HETATM   22  C   UNL     1      26.370  48.764  49.298  1.00  0.00     0.024 A 
HETATM   23 CL   UNL     1      25.175  50.525  47.640  1.00  0.00    -0.084 Cl
HETATM   24  C   UNL     1      26.365  47.681  50.183  1.00  0.00     0.009 A 
ENDBRANCH  16  18
ENDBRANCH  12  15
ENDBRANCH   1  11
BRANCH   8  25
HETATM   25  C   UNL     1      29.918  45.876  57.850  1.00  0.00     0.270 C 
HETATM   26  N   UNL     1      30.905  46.454  58.603  1.00  0.00    -0.365 N 
HETATM   27  H   UNL     1      31.856  46.119  58.495  1.00  0.00     0.159 HD
HETATM   28  H   UNL     1      30.675  47.196  59.243  1.00  0.00     0.159 HD
HETATM   29  O   UNL     1      28.754  46.247  57.941  1.00  0.00    -0.266 OA
ENDBRANCH   8  25
TORSDOF 4
ENDMDL
MODEL 5
REMARK VINA RESULT:      -9.0      1.841      2.703
REMARK  4 active torsions:
REMARK  status: ('A' for Active; 'I' for Inactive)
REMARK    1  A    between atoms: C_2  and  C_3 
REMARK    2  A    between atoms: C_4  and  C_5 
REMARK       I    between atoms: C_5  and  N_6 
REMARK    3  A    between atoms: N_6  and  C_7 
REMARK    4  A    between atoms: C_14  and  C_15 
REMARK       I    between atoms: C_15  and  N_16 
ROOT
HETATM    1  C   UNL     1      25.489  46.541  51.339  1.00  0.00     0.035 A 
HETATM    2  C   UNL     1      24.831  47.609  50.712  1.00  0.00     0.046 A 
HETATM    3  C   UNL     1      23.932  47.347  49.653  1.00  0.00     0.030 A 
HETATM    4  C   UNL     1      23.720  46.031  49.263  1.00  0.00     0.063 A 
HETATM    5  N   UNL     1      22.823  46.097  48.234  1.00  0.00    -0.277 N 
HETATM    6  H   UNL     1      22.441  45.323  47.702  1.00  0.00     0.189 HD
HETATM    7  N   UNL     1      22.426  47.340  47.920  1.00  0.00    -0.168 NA
HETATM    8  C   UNL     1      23.102  48.125  48.790  1.00  0.00     0.156 A 
HETATM    9  C   UNL     1      24.352  44.944  49.869  1.00  0.00     0.034 A 
HETATM   10  C   UNL     1      25.238  45.230  50.915  1.00  0.00     0.032 A 
ENDROOT
BRANCH   1  11
HETATM   11  N   UNL     1      26.417  46.698  52.391  1.00  0.00    -0.327 N 
HETATM   12  C   UNL     1      26.248  47.391  53.571  1.00  0.00     0.227 C 
HETATM   13  O   UNL     1      25.248  47.992  53.932  1.00  0.00    -0.273 OA
HETATM   14  H   UNL     1      27.323  46.284  52.236  1.00  0.00     0.169 HD
BRANCH  12  15
HETATM   15  C   UNL     1      27.434  47.427  54.482  1.00  0.00     0.087 A 
HETATM   16  C   UNL     1      27.456  46.504  55.692  1.00  0.00     0.032 A 
HETATM   17  C   UNL     1      27.475  48.005  55.871  1.00  0.00     0.025 A 
BRANCH  16  18
HETATM   18  C   UNL     1      28.687  45.685  55.991  1.00  0.00    -0.053 A 
HETATM   19  C   UNL     1      29.410  45.869  57.182  1.00  0.00     0.009 A 
HETATM   20  C   UNL     1      30.535  45.092  57.478  1.00  0.00     0.024 A 
HETATM   21  C   UNL     1      30.952  44.112  56.583  1.00  0.00     0.034 A 
HETATM   22  C   UNL     1      30.254  43.902  55.399  1.00  0.00     0.024 A 
HETATM   23 CL   UNL     1      32.332  43.152  56.946  1.00  0.00    -0.084 Cl
HETATM   24  C   UNL     1      29.128  44.681  55.111  1.00  0.00     0.009 A 
ENDBRANCH  16  18
ENDBRANCH  12  15
ENDBRANCH   1  11
BRANCH   8  25
HETATM   25  C   UNL     1      22.941  49.586  48.777  1.00  0.00     0.270 C 
HETATM   26  N   UNL     1      22.921  50.134  47.523  1.00  0.00    -0.365 N 
HETATM   27  H   UNL     1      23.013  49.518  46.723  1.00  0.00     0.159 HD
HETATM   28  H   UNL     1      22.812  51.129  47.414  1.00  0.00     0.159 HD
HETATM   29  O   UNL     1      22.830  50.288  49.776  1.00  0.00    -0.266 OA
ENDBRANCH   8  25
TORSDOF 4
ENDMDL
MODEL 6
REMARK VINA RESULT:      -8.8      4.451      9.556
REMARK  4 active torsions:
REMARK  status: ('A' for Active; 'I' for Inactive)
REMARK    1  A    between atoms: C_2  and  C_3 
REMARK    2  A    between atoms: C_4  and  C_5 
REMARK       I    between atoms: C_5  and  N_6 
REMARK    3  A    between atoms: N_6  and  C_7 
REMARK    4  A    between atoms: C_14  and  C_15 
REMARK       I    between atoms: C_15  and  N_16 
ROOT
HETATM    1  C   UNL     1      24.789  46.351  51.265  1.00  0.00     0.035 A 
HETATM    2  C   UNL     1      25.715  46.415  52.315  1.00  0.00     0.046 A 
HETATM    3  C   UNL     1      26.234  45.218  52.861  1.00  0.00     0.030 A 
HETATM    4  C   UNL     1      25.811  44.004  52.336  1.00  0.00     0.063 A 
HETATM    5  N   UNL     1      26.469  43.048  53.058  1.00  0.00    -0.277 N 
HETATM    6  H   UNL     1      26.401  42.042  52.950  1.00  0.00     0.189 HD
HETATM    7  N   UNL     1      27.287  43.530  54.006  1.00  0.00    -0.168 NA
HETATM    8  C   UNL     1      27.155  44.872  53.896  1.00  0.00     0.156 A 
HETATM    9  C   UNL     1      24.897  43.903  51.286  1.00  0.00     0.034 A 
HETATM   10  C   UNL     1      24.399  45.103  50.763  1.00  0.00     0.032 A 
ENDROOT
BRANCH   1  11
HETATM   11  N   UNL     1      24.200  47.485  50.665  1.00  0.00    -0.327 N 
HETATM   12  C   UNL     1      24.699  48.249  49.631  1.00  0.00     0.227 C 
HETATM   13  O   UNL     1      25.748  48.074  49.030  1.00  0.00    -0.273 OA
HETATM   14  H   UNL     1      23.330  47.789  51.073  1.00  0.00     0.169 HD
BRANCH  12  15
HETATM   15  C   UNL     1      23.872  49.431  49.235  1.00  0.00     0.087 A 
HETATM   16  C   UNL     1      22.641  49.205  48.369  1.00  0.00     0.032 A 
HETATM   17  C   UNL     1      23.792  50.045  47.863  1.00  0.00     0.025 A 
BRANCH  16  18
HETATM   18  C   UNL     1      21.331  49.854  48.740  1.00  0.00    -0.053 A 
HETATM   19  C   UNL     1      20.363  49.162  49.488  1.00  0.00     0.009 A 
HETATM   20  C   UNL     1      19.159  49.768  49.861  1.00  0.00     0.024 A 
HETATM   21  C   UNL     1      18.907  51.087  49.493  1.00  0.00     0.034 A 
HETATM   22  C   UNL     1      19.849  51.800  48.758  1.00  0.00     0.024 A 
HETATM   23 CL   UNL     1      17.430  51.837  49.953  1.00  0.00    -0.084 Cl
HETATM   24  C   UNL     1      21.051  51.187  48.391  1.00  0.00     0.009 A 
ENDBRANCH  16  18
ENDBRANCH  12  15
ENDBRANCH   1  11
BRANCH   8  25
HETATM   25  C   UNL     1      27.903  45.783  54.773  1.00  0.00     0.270 C 
HETATM   26  N   UNL     1      29.086  45.269  55.233  1.00  0.00    -0.365 N 
HETATM   27  H   UNL     1      29.352  44.334  54.946  1.00  0.00     0.159 HD
HETATM   28  H   UNL     1      29.669  45.822  55.840  1.00  0.00     0.159 HD
HETATM   29  O   UNL     1      27.538  46.910  55.089  1.00  0.00    -0.266 OA
ENDBRANCH   8  25
TORSDOF 4
ENDMDL
MODEL 7
REMARK VINA RESULT:      -8.6      6.067      8.309
REMARK  4 active torsions:
REMARK  status: ('A' for Active; 'I' for Inactive)
REMARK    1  A    between atoms: C_2  and  C_3 
REMARK    2  A    between atoms: C_4  and  C_5 
REMARK       I    between atoms: C_5  and  N_6 
REMARK    3  A    between atoms: N_6  and  C_7 
REMARK    4  A    between atoms: C_14  and  C_15 
REMARK       I    between atoms: C_15  and  N_16 
ROOT
HETATM    1  C   UNL     1      28.878  39.849  50.808  1.00  0.00     0.035 A 
HETATM    2  C   UNL     1      28.316  40.151  49.560  1.00  0.00     0.046 A 
HETATM    3  C   UNL     1      28.445  39.228  48.496  1.00  0.00     0.030 A 
HETATM    4  C   UNL     1      29.128  38.040  48.719  1.00  0.00     0.063 A 
HETATM    5  N   UNL     1      29.093  37.372  47.527  1.00  0.00    -0.277 N 
HETATM    6  H   UNL     1      29.497  36.466  47.319  1.00  0.00     0.189 HD
HETATM    7  N   UNL     1      28.444  38.018  46.546  1.00  0.00    -0.168 NA
HETATM    8  C   UNL     1      28.035  39.168  47.130  1.00  0.00     0.156 A 
HETATM    9  C   UNL     1      29.694  37.704  49.950  1.00  0.00     0.034 A 
HETATM   10  C   UNL     1      29.552  38.633  50.987  1.00  0.00     0.032 A 
ENDROOT
BRANCH   1  11
HETATM   11  N   UNL     1      28.819  40.709  51.926  1.00  0.00    -0.327 N 
HETATM   12  C   UNL     1      27.798  41.564  52.282  1.00  0.00     0.227 C 
HETATM   13  O   UNL     1      26.739  41.727  51.695  1.00  0.00    -0.273 OA
HETATM   14  H   UNL     1      29.643  40.721  52.508  1.00  0.00     0.169 HD
BRANCH  12  15
HETATM   15  C   UNL     1      28.039  42.397  53.501  1.00  0.00     0.087 A 
HETATM   16  C   UNL     1      28.691  43.763  53.337  1.00  0.00     0.032 A 
HETATM   17  C   UNL     1      29.373  42.678  54.140  1.00  0.00     0.025 A 
BRANCH  16  18
HETATM   18  C   UNL     1      28.100  44.966  54.030  1.00  0.00    -0.053 A 
HETATM   19  C   UNL     1      28.755  45.575  55.114  1.00  0.00     0.009 A 
HETATM   20  C   UNL     1      28.226  46.708  55.741  1.00  0.00     0.024 A 
HETATM   21  C   UNL     1      27.030  47.254  55.285  1.00  0.00     0.034 A 
HETATM   22  C   UNL     1      26.363  46.678  54.210  1.00  0.00     0.024 A 
HETATM   23 CL   UNL     1      26.380  48.650  56.050  1.00  0.00    -0.084 Cl
HETATM   24  C   UNL     1      26.898  45.546  53.587  1.00  0.00     0.009 A 
ENDBRANCH  16  18
ENDBRANCH  12  15
ENDBRANCH   1  11
BRANCH   8  25
HETATM   25  C   UNL     1      27.270  40.172  46.377  1.00  0.00     0.270 C 
HETATM   26  N   UNL     1      28.031  41.197  45.883  1.00  0.00    -0.365 N 
HETATM   27  H   UNL     1      29.029  41.191  46.062  1.00  0.00     0.159 HD
HETATM   28  H   UNL     1      27.594  41.932  45.351  1.00  0.00     0.159 HD
HETATM   29  O   UNL     1      26.060  40.132  46.185  1.00  0.00    -0.266 OA
ENDBRANCH   8  25
TORSDOF 4
ENDMDL
MODEL 8
REMARK VINA RESULT:      -8.5      4.067      5.082
REMARK  4 active torsions:
REMARK  status: ('A' for Active; 'I' for Inactive)
REMARK    1  A    between atoms: C_2  and  C_3 
REMARK    2  A    between atoms: C_4  and  C_5 
REMARK       I    between atoms: C_5  and  N_6 
REMARK    3  A    between atoms: N_6  and  C_7 
REMARK    4  A    between atoms: C_14  and  C_15 
REMARK       I    between atoms: C_15  and  N_16 
ROOT
HETATM    1  C   UNL     1      25.639  41.621  50.341  1.00  0.00     0.035 A 
HETATM    2  C   UNL     1      24.626  42.574  50.170  1.00  0.00     0.046 A 
HETATM    3  C   UNL     1      23.753  42.472  49.062  1.00  0.00     0.030 A 
HETATM    4  C   UNL     1      23.923  41.421  48.170  1.00  0.00     0.063 A 
HETATM    5  N   UNL     1      22.954  41.591  47.221  1.00  0.00    -0.277 N 
HETATM    6  H   UNL     1      22.781  41.007  46.410  1.00  0.00     0.189 HD
HETATM    7  N   UNL     1      22.163  42.657  47.417  1.00  0.00    -0.168 NA
HETATM    8  C   UNL     1      22.643  43.212  48.553  1.00  0.00     0.156 A 
HETATM    9  C   UNL     1      24.916  40.451  48.313  1.00  0.00     0.034 A 
HETATM   10  C   UNL     1      25.767  40.574  49.418  1.00  0.00     0.032 A 
ENDROOT
BRANCH   1  11
HETATM   11  N   UNL     1      26.571  41.645  51.401  1.00  0.00    -0.327 N 
HETATM   12  C   UNL     1      26.805  42.666  52.298  1.00  0.00     0.227 C 
HETATM   13  O   UNL     1      26.233  43.744  52.347  1.00  0.00    -0.273 OA
HETATM   14  H   UNL     1      27.159  40.830  51.481  1.00  0.00     0.169 HD
BRANCH  12  15
HETATM   15  C   UNL     1      27.899  42.425  53.290  1.00  0.00     0.087 A 
HETATM   16  C   UNL     1      29.079  43.386  53.325  1.00  0.00     0.032 A 
HETATM   17  C   UNL     1      29.286  41.928  52.985  1.00  0.00     0.025 A 
BRANCH  16  18
HETATM   18  C   UNL     1      29.561  43.937  54.644  1.00  0.00    -0.053 A 
HETATM   19  C   UNL     1      30.597  43.311  55.358  1.00  0.00     0.009 A 
HETATM   20  C   UNL     1      31.068  43.834  56.567  1.00  0.00     0.024 A 
HETATM   21  C   UNL     1      30.509  45.001  57.078  1.00  0.00     0.034 A 
HETATM   22  C   UNL     1      29.487  45.647  56.391  1.00  0.00     0.024 A 
HETATM   23 CL   UNL     1      31.089  45.649  58.562  1.00  0.00    -0.084 Cl
HETATM   24  C   UNL     1      29.023  45.119  55.182  1.00  0.00     0.009 A 
ENDBRANCH  16  18
ENDBRANCH  12  15
ENDBRANCH   1  11
BRANCH   8  25
HETATM   25  C   UNL     1      22.037  44.424  49.121  1.00  0.00     0.270 C 
HETATM   26  N   UNL     1      22.946  45.362  49.531  1.00  0.00    -0.365 N 
HETATM   27  H   UNL     1      23.933  45.163  49.418  1.00  0.00     0.159 HD
HETATM   28  H   UNL     1      22.623  46.228  49.932  1.00  0.00     0.159 HD
HETATM   29  O   UNL     1      20.832  44.619  49.234  1.00  0.00    -0.266 OA
ENDBRANCH   8  25
TORSDOF 4
ENDMDL
MODEL 9
REMARK VINA RESULT:      -8.5      5.265      9.545
REMARK  4 active torsions:
REMARK  status: ('A' for Active; 'I' for Inactive)
REMARK    1  A    between atoms: C_2  and  C_3 
REMARK    2  A    between atoms: C_4  and  C_5 
REMARK       I    between atoms: C_5  and  N_6 
REMARK    3  A    between atoms: N_6  and  C_7 
REMARK    4  A    between atoms: C_14  and  C_15 
REMARK       I    between atoms: C_15  and  N_16 
ROOT
HETATM    1  C   UNL     1      24.130  46.822  50.222  1.00  0.00     0.035 A 
HETATM    2  C   UNL     1      23.821  45.635  49.543  1.00  0.00     0.046 A 
HETATM    3  C   UNL     1      24.518  44.448  49.864  1.00  0.00     0.030 A 
HETATM    4  C   UNL     1      25.495  44.490  50.851  1.00  0.00     0.063 A 
HETATM    5  N   UNL     1      25.986  43.217  50.930  1.00  0.00    -0.277 N 
HETATM    6  H   UNL     1      26.717  42.878  51.546  1.00  0.00     0.189 HD
HETATM    7  N   UNL     1      25.414  42.346  50.085  1.00  0.00    -0.168 NA
HETATM    8  C   UNL     1      24.502  43.091  49.419  1.00  0.00     0.156 A 
HETATM    9  C   UNL     1      25.823  45.652  51.551  1.00  0.00     0.034 A 
HETATM   10  C   UNL     1      25.118  46.814  51.215  1.00  0.00     0.032 A 
ENDROOT
BRANCH   1  11
HETATM   11  N   UNL     1      23.505  48.062  49.963  1.00  0.00    -0.327 N 
HETATM   12  C   UNL     1      23.971  49.095  49.178  1.00  0.00     0.227 C 
HETATM   13  O   UNL     1      25.015  49.122  48.544  1.00  0.00    -0.273 OA
HETATM   14  H   UNL     1      22.634  48.217  50.445  1.00  0.00     0.169 HD
BRANCH  12  15
HETATM   15  C   UNL     1      23.110  50.318  49.131  1.00  0.00     0.087 A 
HETATM   16  C   UNL     1      21.913  50.333  48.191  1.00  0.00     0.032 A 
HETATM   17  C   UNL     1      23.044  51.319  48.009  1.00  0.00     0.025 A 
BRANCH  16  18
HETATM   18  C   UNL     1      20.569  50.800  48.693  1.00  0.00    -0.053 A 
HETATM   19  C   UNL     1      20.022  52.026  48.275  1.00  0.00     0.009 A 
HETATM   20  C   UNL     1      18.764  52.450  48.714  1.00  0.00     0.024 A 
HETATM   21  C   UNL     1      18.028  51.646  49.580  1.00  0.00     0.034 A 
HETATM   22  C   UNL     1      18.540  50.425  50.006  1.00  0.00     0.024 A 
HETATM   23 CL   UNL     1      16.479  52.162  50.118  1.00  0.00    -0.084 Cl
HETATM   24  C   UNL     1      19.798  50.007  49.560  1.00  0.00     0.009 A 
ENDBRANCH  16  18
ENDBRANCH  12  15
ENDBRANCH   1  11
BRANCH   8  25
HETATM   25  C   UNL     1      23.646  42.496  48.384  1.00  0.00     0.270 C 
HETATM   26  N   UNL     1      24.145  42.610  47.114  1.00  0.00    -0.365 N 
HETATM   27  H   UNL     1      25.035  43.077  46.983  1.00  0.00     0.159 HD
HETATM   28  H   UNL     1      23.628  42.230  46.338  1.00  0.00     0.159 HD
HETATM   29  O   UNL     1      22.575  41.939  48.595  1.00  0.00    -0.266 OA
ENDBRANCH   8  25
TORSDOF 4
ENDMDL
MODEL 10
REMARK VINA RESULT:      -8.4      5.572      7.841
REMARK  4 active torsions:
REMARK  status: ('A' for Active; 'I' for Inactive)
REMARK    1  A    between atoms: C_2  and  C_3 
REMARK    2  A    between atoms: C_4  and  C_5 
REMARK       I    between atoms: C_5  and  N_6 
REMARK    3  A    between atoms: N_6  and  C_7 
REMARK    4  A    between atoms: C_14  and  C_15 
REMARK       I    between atoms: C_15  and  N_16 
ROOT
HETATM    1  C   UNL     1      26.231  41.612  50.340  1.00  0.00     0.035 A 
HETATM    2  C   UNL     1      27.006  40.445  50.383  1.00  0.00     0.046 A 
HETATM    3  C   UNL     1      26.776  39.420  49.437  1.00  0.00     0.030 A 
HETATM    4  C   UNL     1      25.784  39.600  48.482  1.00  0.00     0.063 A 
HETATM    5  N   UNL     1      25.794  38.460  47.729  1.00  0.00    -0.277 N 
HETATM    6  H   UNL     1      25.197  38.241  46.939  1.00  0.00     0.189 HD
HETATM    7  N   UNL     1      26.707  37.552  48.105  1.00  0.00    -0.168 NA
HETATM    8  C   UNL     1      27.325  38.131  49.160  1.00  0.00     0.156 A 
HETATM    9  C   UNL     1      24.999  40.752  48.405  1.00  0.00     0.034 A 
HETATM   10  C   UNL     1      25.247  41.752  49.352  1.00  0.00     0.032 A 
ENDROOT
BRANCH   1  11
HETATM   11  N   UNL     1      26.370  42.684  51.248  1.00  0.00    -0.327 N 
HETATM   12  C   UNL     1      27.018  43.884  51.046  1.00  0.00     0.227 C 
HETATM   13  O   UNL     1      27.585  44.249  50.028  1.00  0.00    -0.273 OA
HETATM   14  H   UNL     1      25.981  42.529  52.165  1.00  0.00     0.169 HD
BRANCH  12  15
HETATM   15  C   UNL     1      27.047  44.815  52.217  1.00  0.00     0.087 A 
HETATM   16  C   UNL     1      27.028  44.226  53.621  1.00  0.00     0.032 A 
HETATM   17  C   UNL     1      25.902  45.116  53.146  1.00  0.00     0.025 A 
BRANCH  16  18
HETATM   18  C   UNL     1      28.006  44.722  54.657  1.00  0.00    -0.053 A 
HETATM   19  C   UNL     1      27.677  45.783  55.518  1.00  0.00     0.009 A 
HETATM   20  C   UNL     1      28.568  46.227  56.501  1.00  0.00     0.024 A 
HETATM   21  C   UNL     1      29.806  45.608  56.640  1.00  0.00     0.034 A 
HETATM   22  C   UNL     1      30.158  44.552  55.807  1.00  0.00     0.024 A 
HETATM   23 CL   UNL     1      30.902  46.149  57.850  1.00  0.00    -0.084 Cl
HETATM   24  C   UNL     1      29.261  44.112  54.829  1.00  0.00     0.009 A 
ENDBRANCH  16  18
ENDBRANCH  12  15
ENDBRANCH   1  11
BRANCH   8  25
HETATM   25  C   UNL     1      28.414  37.447  49.872  1.00  0.00     0.270 C 
HETATM   26  N   UNL     1      28.016  36.333  50.560  1.00  0.00    -0.365 N 
HETATM   27  H   UNL     1      27.039  36.067  50.530  1.00  0.00     0.159 HD
HETATM   28  H   UNL     1      28.694  35.797  51.077  1.00  0.00     0.159 HD
HETATM   29  O   UNL     1      29.585  37.809  49.874  1.00  0.00    -0.266 OA
ENDBRANCH   8  25
TORSDOF 4
ENDMDL
