MODEL 1
REMARK VINA RESULT:      -9.9      0.000      0.000
REMARK  6 active torsions:
REMARK  status: ('A' for Active; 'I' for Inactive)
REMARK    1  A    between atoms: O_2  and  C_3 
REMARK    2  A    between atoms: C_4  and  C_5 
REMARK    3  A    between atoms: C_6  and  C_7 
REMARK       I    between atoms: C_7  and  N_8 
REMARK    4  A    between atoms: N_8  and  C_9 
REMARK    5  A    between atoms: C_9  and  C_10 
REMARK       I    between atoms: C_10  and  N_11 
REMARK    6  A    between atoms: N_11  and  N_12 
ROOT
HETATM    1  C   UNL     1      25.351  46.599  51.255  1.00  0.00     0.255 C 
HETATM    2  N   UNL     1      25.841  45.431  51.817  1.00  0.00    -0.245 N 
HETATM    3  O   UNL     1      25.539  47.727  51.710  1.00  0.00    -0.270 OA
HETATM    4  H   UNL     1      25.624  44.533  51.381  1.00  0.00     0.192 HD
ENDROOT
BRANCH   1   5
HETATM    5  C   UNL     1      24.377  46.366  50.098  1.00  0.00     0.227 C 
BRANCH   5   6
HETATM    6  N   UNL     1      23.346  47.381  49.920  1.00  0.00    -0.349 N 
HETATM    7  C   UNL     1      23.626  48.543  49.244  1.00  0.00     0.241 C 
HETATM    8  O   UNL     1      24.668  48.742  48.636  1.00  0.00    -0.269 OA
HETATM    9  H   UNL     1      22.494  47.302  50.460  1.00  0.00     0.163 HD
BRANCH   7  10
HETATM   10  C   UNL     1      22.557  49.561  49.369  1.00  0.00     0.075 C 
HETATM   11  C   UNL     1      21.296  49.232  49.049  1.00  0.00     0.020 C 
BRANCH  11  12
HETATM   12  C   UNL     1      20.200  50.205  49.115  1.00  0.00    -0.003 A 
HETATM   13  C   UNL     1      18.981  49.920  49.759  1.00  0.00     0.078 A 
HETATM   14  C   UNL     1      17.970  50.888  49.770  1.00  0.00     0.037 A 
HETATM   15  C   UNL     1      18.175  52.134  49.169  1.00  0.00     0.003 A 
HETATM   16  C   UNL     1      19.387  52.421  48.549  1.00  0.00     0.001 A 
HETATM   17  C   UNL     1      20.395  51.459  48.517  1.00  0.00     0.014 A 
BRANCH  13  18
HETATM   18  O   UNL     1      18.864  48.672  50.319  1.00  0.00    -0.355 OA
HETATM   19  C   UNL     1      18.564  48.610  51.706  1.00  0.00     0.210 C 
ENDBRANCH  13  18
ENDBRANCH  11  12
ENDBRANCH   7  10
ENDBRANCH   5   6
ENDBRANCH   1   5
BRANCH   2  20
HETATM   20  N   UNL     1      26.621  45.482  52.934  1.00  0.00    -0.166 NA
HETATM   21  C   UNL     1      27.633  44.679  52.980  1.00  0.00     0.157 A 
HETATM   22  C   UNL     1      28.067  43.624  51.958  1.00  0.00     0.277 A 
HETATM   23  C   UNL     1      28.582  44.586  54.081  1.00  0.00     0.028 A 
HETATM   24  O   UNL     1      27.510  43.407  50.902  1.00  0.00    -0.266 OA
HETATM   25  N   UNL     1      29.171  43.009  52.511  1.00  0.00    -0.321 N 
HETATM   26  C   UNL     1      29.475  43.567  53.751  1.00  0.00     0.048 A 
HETATM   27  H   UNL     1      29.673  42.258  52.062  1.00  0.00     0.169 HD
HETATM   28  C   UNL     1      30.502  43.214  54.602  1.00  0.00     0.032 A 
HETATM   29  C   UNL     1      30.610  43.924  55.806  1.00  0.00     0.021 A 
HETATM   30  C   UNL     1      29.700  44.955  56.125  1.00  0.00     0.012 A 
HETATM   31 BR   UNL     1      29.893  45.883  57.762  1.00  0.00    -0.051 Br
HETATM   32  C   UNL     1      28.664  45.300  55.258  1.00  0.00     0.035 A 
ENDBRANCH   2  20
TORSDOF 6
ENDMDL
MODEL 2
REMARK VINA RESULT:      -9.8      3.711      9.823
REMARK  6 active torsions:
REMARK  status: ('A' for Active; 'I' for Inactive)
REMARK    1  A    between atoms: O_2  and  C_3 
REMARK    2  A    between atoms: C_4  and  C_5 
REMARK    3  A    between atoms: C_6  and  C_7 
REMARK       I    between atoms: C_7  and  N_8 
REMARK    4  A    between atoms: N_8  and  C_9 
REMARK    5  A    between atoms: C_9  and  C_10 
REMARK       I    between atoms: C_10  and  N_11 
REMARK    6  A    between atoms: N_11  and  N_12 
ROOT
HETATM    1  C   UNL     1      23.688  43.628  50.324  1.00  0.00     0.255 C 
HETATM    2  N   UNL     1      24.273  44.823  49.939  1.00  0.00    -0.245 N 
HETATM    3  O   UNL     1      22.474  43.435  50.401  1.00  0.00    -0.270 OA
HETATM    4  H   UNL     1      25.291  44.901  49.918  1.00  0.00     0.192 HD
ENDROOT
BRANCH   1   5
HETATM    5  C   UNL     1      24.686  42.590  50.842  1.00  0.00     0.227 C 
BRANCH   5   6
HETATM    6  N   UNL     1      25.796  43.112  51.630  1.00  0.00    -0.349 N 
HETATM    7  C   UNL     1      27.008  43.367  51.037  1.00  0.00     0.241 C 
HETATM    8  O   UNL     1      27.198  43.321  49.830  1.00  0.00    -0.269 OA
HETATM    9  H   UNL     1      25.717  43.101  52.639  1.00  0.00     0.163 HD
BRANCH   7  10
HETATM   10  C   UNL     1      28.085  43.651  52.014  1.00  0.00     0.075 C 
HETATM   11  C   UNL     1      27.785  43.726  53.320  1.00  0.00     0.020 C 
BRANCH  11  12
HETATM   12  C   UNL     1      28.799  44.042  54.332  1.00  0.00    -0.003 A 
HETATM   13  C   UNL     1      28.843  45.287  54.987  1.00  0.00     0.078 A 
HETATM   14  C   UNL     1      29.849  45.528  55.930  1.00  0.00     0.037 A 
HETATM   15  C   UNL     1      30.785  44.536  56.238  1.00  0.00     0.003 A 
HETATM   16  C   UNL     1      30.729  43.299  55.603  1.00  0.00     0.001 A 
HETATM   17  C   UNL     1      29.742  43.053  54.650  1.00  0.00     0.014 A 
BRANCH  13  18
HETATM   18  O   UNL     1      27.889  46.203  54.622  1.00  0.00    -0.355 OA
HETATM   19  C   UNL     1      27.630  47.265  55.529  1.00  0.00     0.210 C 
ENDBRANCH  13  18
ENDBRANCH  11  12
ENDBRANCH   7  10
ENDBRANCH   5   6
ENDBRANCH   1   5
BRANCH   2  20
HETATM   20  N   UNL     1      23.495  45.882  49.575  1.00  0.00    -0.166 NA
HETATM   21  C   UNL     1      24.098  47.003  49.353  1.00  0.00     0.157 A 
HETATM   22  C   UNL     1      25.587  47.334  49.485  1.00  0.00     0.277 A 
HETATM   23  C   UNL     1      23.446  48.243  48.952  1.00  0.00     0.028 A 
HETATM   24  O   UNL     1      26.451  46.543  49.805  1.00  0.00    -0.266 OA
HETATM   25  N   UNL     1      25.695  48.676  49.185  1.00  0.00    -0.321 N 
HETATM   26  C   UNL     1      24.446  49.211  48.874  1.00  0.00     0.048 A 
HETATM   27  H   UNL     1      26.568  49.182  49.199  1.00  0.00     0.169 HD
HETATM   28  C   UNL     1      24.152  50.514  48.530  1.00  0.00     0.032 A 
HETATM   29  C   UNL     1      22.812  50.820  48.258  1.00  0.00     0.021 A 
HETATM   30  C   UNL     1      21.811  49.828  48.338  1.00  0.00     0.012 A 
HETATM   31 BR   UNL     1      20.017  50.293  47.959  1.00  0.00    -0.051 Br
HETATM   32  C   UNL     1      22.119  48.515  48.692  1.00  0.00     0.035 A 
ENDBRANCH   2  20
TORSDOF 6
ENDMDL
MODEL 3
REMARK VINA RESULT:      -9.5      1.743      2.577
REMARK  6 active torsions:
REMARK  status: ('A' for Active; 'I' for Inactive)
REMARK    1  A    between atoms: O_2  and  C_3 
REMARK    2  A    between atoms: C_4  and  C_5 
REMARK    3  A    between atoms: C_6  and  C_7 
REMARK       I    between atoms: C_7  and  N_8 
REMARK    4  A    between atoms: N_8  and  C_9 
REMARK    5  A    between atoms: C_9  and  C_10 
REMARK       I    between atoms: C_10  and  N_11 
REMARK    6  A    between atoms: N_11  and  N_12 
ROOT
HETATM    1  C   UNL     1      24.289  44.568  50.364  1.00  0.00     0.255 C 
HETATM    2  N   UNL     1      25.471  45.280  50.488  1.00  0.00    -0.245 N 
HETATM    3  O   UNL     1      23.999  43.571  51.026  1.00  0.00    -0.270 OA
HETATM    4  H   UNL     1      25.638  46.088  49.886  1.00  0.00     0.192 HD
ENDROOT
BRANCH   1   5
HETATM    5  C   UNL     1      23.423  45.011  49.184  1.00  0.00     0.227 C 
BRANCH   5   6
HETATM    6  N   UNL     1      22.594  46.189  49.409  1.00  0.00    -0.349 N 
HETATM    7  C   UNL     1      22.221  46.987  48.355  1.00  0.00     0.241 C 
HETATM    8  O   UNL     1      22.419  46.702  47.183  1.00  0.00    -0.269 OA
HETATM    9  H   UNL     1      22.462  46.510  50.359  1.00  0.00     0.163 HD
BRANCH   7  10
HETATM   10  C   UNL     1      21.599  48.262  48.783  1.00  0.00     0.075 C 
HETATM   11  C   UNL     1      20.379  48.584  48.326  1.00  0.00     0.020 C 
BRANCH  11  12
HETATM   12  C   UNL     1      19.726  49.849  48.682  1.00  0.00    -0.003 A 
HETATM   13  C   UNL     1      18.660  49.910  49.599  1.00  0.00     0.078 A 
HETATM   14  C   UNL     1      18.071  51.149  49.880  1.00  0.00     0.037 A 
HETATM   15  C   UNL     1      18.550  52.315  49.275  1.00  0.00     0.003 A 
HETATM   16  C   UNL     1      19.615  52.255  48.382  1.00  0.00     0.001 A 
HETATM   17  C   UNL     1      20.199  51.025  48.082  1.00  0.00     0.014 A 
BRANCH  13  18
HETATM   18  O   UNL     1      18.252  48.718  50.142  1.00  0.00    -0.355 OA
HETATM   19  C   UNL     1      18.496  48.521  51.527  1.00  0.00     0.210 C 
ENDBRANCH  13  18
ENDBRANCH  11  12
ENDBRANCH   7  10
ENDBRANCH   5   6
ENDBRANCH   1   5
BRANCH   2  20
HETATM   20  N   UNL     1      26.399  44.913  51.418  1.00  0.00    -0.166 NA
HETATM   21  C   UNL     1      26.530  45.681  52.449  1.00  0.00     0.157 A 
HETATM   22  C   UNL     1      25.811  46.996  52.763  1.00  0.00     0.277 A 
HETATM   23  C   UNL     1      27.460  45.459  53.548  1.00  0.00     0.028 A 
HETATM   24  O   UNL     1      24.957  47.506  52.067  1.00  0.00    -0.266 OA
HETATM   25  N   UNL     1      26.353  47.437  53.953  1.00  0.00    -0.321 N 
HETATM   26  C   UNL     1      27.317  46.543  54.415  1.00  0.00     0.048 A 
HETATM   27  H   UNL     1      26.076  48.294  54.407  1.00  0.00     0.169 HD
HETATM   28  C   UNL     1      28.076  46.644  55.562  1.00  0.00     0.032 A 
HETATM   29  C   UNL     1      28.990  45.613  55.821  1.00  0.00     0.021 A 
HETATM   30  C   UNL     1      29.121  44.522  54.936  1.00  0.00     0.012 A 
HETATM   31 BR   UNL     1      30.367  43.155  55.333  1.00  0.00    -0.051 Br
HETATM   32  C   UNL     1      28.351  44.431  53.777  1.00  0.00     0.035 A 
ENDBRANCH   2  20
TORSDOF 6
ENDMDL
MODEL 4
REMARK VINA RESULT:      -9.5      2.284      3.721
REMARK  6 active torsions:
REMARK  status: ('A' for Active; 'I' for Inactive)
REMARK    1  A    between atoms: O_2  and  C_3 
REMARK    2  A    between atoms: C_4  and  C_5 
REMARK    3  A    between atoms: C_6  and  C_7 
REMARK       I    between atoms: C_7  and  N_8 
REMARK    4  A    between atoms: N_8  and  C_9 
REMARK    5  A    between atoms: C_9  and  C_10 
REMARK       I    between atoms: C_10  and  N_11 
REMARK    6  A    between atoms: N_11  and  N_12 
ROOT
HETATM    1  C   UNL     1      26.023  43.447  49.993  1.00  0.00     0.255 C 
HETATM    2  N   UNL     1      25.739  43.398  51.348  1.00  0.00    -0.245 N 
HETATM    3  O   UNL     1      27.150  43.588  49.519  1.00  0.00    -0.270 OA
HETATM    4  H   UNL     1      24.771  43.293  51.657  1.00  0.00     0.192 HD
ENDROOT
BRANCH   1   5
HETATM    5  C   UNL     1      24.779  43.501  49.104  1.00  0.00     0.227 C 
BRANCH   5   6
HETATM    6  N   UNL     1      24.025  44.749  49.140  1.00  0.00    -0.349 N 
HETATM    7  C   UNL     1      22.701  44.770  48.777  1.00  0.00     0.241 C 
HETATM    8  O   UNL     1      22.041  43.765  48.551  1.00  0.00    -0.269 OA
HETATM    9  H   UNL     1      24.535  45.616  49.248  1.00  0.00     0.163 HD
BRANCH   7  10
HETATM   10  C   UNL     1      22.159  46.141  48.631  1.00  0.00     0.075 C 
HETATM   11  C   UNL     1      22.997  47.188  48.686  1.00  0.00     0.020 C 
BRANCH  11  12
HETATM   12  C   UNL     1      22.518  48.571  48.587  1.00  0.00    -0.003 A 
HETATM   13  C   UNL     1      23.351  49.674  48.851  1.00  0.00     0.078 A 
HETATM   14  C   UNL     1      22.825  50.968  48.754  1.00  0.00     0.037 A 
HETATM   15  C   UNL     1      21.492  51.164  48.376  1.00  0.00     0.003 A 
HETATM   16  C   UNL     1      20.675  50.073  48.099  1.00  0.00     0.001 A 
HETATM   17  C   UNL     1      21.183  48.780  48.207  1.00  0.00     0.014 A 
BRANCH  13  18
HETATM   18  O   UNL     1      24.642  49.390  49.218  1.00  0.00    -0.355 OA
HETATM   19  C   UNL     1      25.672  49.791  48.325  1.00  0.00     0.210 C 
ENDBRANCH  13  18
ENDBRANCH  11  12
ENDBRANCH   7  10
ENDBRANCH   5   6
ENDBRANCH   1   5
BRANCH   2  20
HETATM   20  N   UNL     1      26.747  43.471  52.264  1.00  0.00    -0.166 NA
HETATM   21  C   UNL     1      26.831  44.558  52.957  1.00  0.00     0.157 A 
HETATM   22  C   UNL     1      25.971  45.822  52.869  1.00  0.00     0.277 A 
HETATM   23  C   UNL     1      27.832  44.826  53.982  1.00  0.00     0.028 A 
HETATM   24  O   UNL     1      25.029  45.971  52.118  1.00  0.00    -0.266 OA
HETATM   25  N   UNL     1      26.509  46.700  53.786  1.00  0.00    -0.321 N 
HETATM   26  C   UNL     1      27.597  46.122  54.438  1.00  0.00     0.048 A 
HETATM   27  H   UNL     1      26.150  47.629  53.945  1.00  0.00     0.169 HD
HETATM   28  C   UNL     1      28.391  46.691  55.413  1.00  0.00     0.032 A 
HETATM   29  C   UNL     1      29.436  45.910  55.925  1.00  0.00     0.021 A 
HETATM   30  C   UNL     1      29.659  44.598  55.456  1.00  0.00     0.012 A 
HETATM   31 BR   UNL     1      31.082  43.586  56.183  1.00  0.00    -0.051 Br
HETATM   32  C   UNL     1      28.853  44.035  54.467  1.00  0.00     0.035 A 
ENDBRANCH   2  20
TORSDOF 6
ENDMDL
MODEL 5
REMARK VINA RESULT:      -9.4      1.587      1.940
REMARK  6 active torsions:
REMARK  status: ('A' for Active; 'I' for Inactive)
REMARK    1  A    between atoms: O_2  and  C_3 
REMARK    2  A    between atoms: C_4  and  C_5 
REMARK    3  A    between atoms: C_6  and  C_7 
REMARK       I    between atoms: C_7  and  N_8 
REMARK    4  A    between atoms: N_8  and  C_9 
REMARK    5  A    between atoms: C_9  and  C_10 
REMARK       I    between atoms: C_10  and  N_11 
REMARK    6  A    between atoms: N_11  and  N_12 
ROOT
HETATM    1  C   UNL     1      25.109  44.683  52.293  1.00  0.00     0.255 C 
HETATM    2  N   UNL     1      26.383  45.222  52.212  1.00  0.00    -0.245 N 
HETATM    3  O   UNL     1      24.597  44.246  53.324  1.00  0.00    -0.270 OA
HETATM    4  H   UNL     1      26.736  45.547  51.311  1.00  0.00     0.192 HD
ENDROOT
BRANCH   1   5
HETATM    5  C   UNL     1      24.432  44.492  50.934  1.00  0.00     0.227 C 
BRANCH   5   6
HETATM    6  N   UNL     1      23.722  45.652  50.408  1.00  0.00    -0.349 N 
HETATM    7  C   UNL     1      24.414  46.681  49.818  1.00  0.00     0.241 C 
HETATM    8  O   UNL     1      25.609  46.640  49.564  1.00  0.00    -0.269 OA
HETATM    9  H   UNL     1      22.748  45.772  50.654  1.00  0.00     0.163 HD
BRANCH   7  10
HETATM   10  C   UNL     1      23.576  47.878  49.568  1.00  0.00     0.075 C 
HETATM   11  C   UNL     1      22.449  47.752  48.851  1.00  0.00     0.020 C 
BRANCH  11  12
HETATM   12  C   UNL     1      21.597  48.905  48.537  1.00  0.00    -0.003 A 
HETATM   13  C   UNL     1      20.318  48.759  47.967  1.00  0.00     0.078 A 
HETATM   14  C   UNL     1      19.564  49.902  47.677  1.00  0.00     0.037 A 
HETATM   15  C   UNL     1      20.065  51.174  47.970  1.00  0.00     0.003 A 
HETATM   16  C   UNL     1      21.323  51.316  48.549  1.00  0.00     0.001 A 
HETATM   17  C   UNL     1      22.089  50.186  48.828  1.00  0.00     0.014 A 
BRANCH  13  18
HETATM   18  O   UNL     1      19.907  47.475  47.710  1.00  0.00    -0.355 OA
HETATM   19  C   UNL     1      18.816  46.979  48.472  1.00  0.00     0.210 C 
ENDBRANCH  13  18
ENDBRANCH  11  12
ENDBRANCH   7  10
ENDBRANCH   5   6
ENDBRANCH   1   5
BRANCH   2  20
HETATM   20  N   UNL     1      27.153  45.332  53.333  1.00  0.00    -0.166 NA
HETATM   21  C   UNL     1      28.137  44.503  53.450  1.00  0.00     0.157 A 
HETATM   22  C   UNL     1      28.547  43.361  52.517  1.00  0.00     0.277 A 
HETATM   23  C   UNL     1      29.072  44.463  54.567  1.00  0.00     0.028 A 
HETATM   24  O   UNL     1      27.994  43.083  51.472  1.00  0.00    -0.266 OA
HETATM   25  N   UNL     1      29.625  42.755  53.127  1.00  0.00    -0.321 N 
HETATM   26  C   UNL     1      29.935  43.394  54.326  1.00  0.00     0.048 A 
HETATM   27  H   UNL     1      30.107  41.956  52.742  1.00  0.00     0.169 HD
HETATM   28  C   UNL     1      30.940  43.074  55.214  1.00  0.00     0.032 A 
HETATM   29  C   UNL     1      31.059  43.868  56.363  1.00  0.00     0.021 A 
HETATM   30  C   UNL     1      30.181  44.948  56.592  1.00  0.00     0.012 A 
HETATM   31 BR   UNL     1      30.386  45.991  58.157  1.00  0.00    -0.051 Br
HETATM   32  C   UNL     1      29.165  45.261  55.689  1.00  0.00     0.035 A 
ENDBRANCH   2  20
TORSDOF 6
ENDMDL
MODEL 6
REMARK VINA RESULT:      -8.8      2.687      3.450
REMARK  6 active torsions:
REMARK  status: ('A' for Active; 'I' for Inactive)
REMARK    1  A    between atoms: O_2  and  C_3 
REMARK    2  A    between atoms: C_4  and  C_5 
REMARK    3  A    between atoms: C_6  and  C_7 
REMARK       I    between atoms: C_7  and  N_8 
REMARK    4  A    between atoms: N_8  and  C_9 
REMARK    5  A    between atoms: C_9  and  C_10 
REMARK       I    between atoms: C_10  and  N_11 
REMARK    6  A    between atoms: N_11  and  N_12 
ROOT
HETATM    1  C   UNL     1      24.303  47.475  49.789  1.00  0.00     0.255 C 
HETATM    2  N   UNL     1      25.545  47.414  50.399  1.00  0.00    -0.245 N 
HETATM    3  O   UNL     1      23.641  46.495  49.448  1.00  0.00    -0.270 OA
HETATM    4  H   UNL     1      26.034  48.279  50.635  1.00  0.00     0.192 HD
ENDROOT
BRANCH   1   5
HETATM    5  C   UNL     1      23.882  48.891  49.388  1.00  0.00     0.227 C 
BRANCH   5   6
HETATM    6  N   UNL     1      22.449  49.156  49.402  1.00  0.00    -0.349 N 
HETATM    7  C   UNL     1      21.972  50.408  49.097  1.00  0.00     0.241 C 
HETATM    8  O   UNL     1      22.668  51.314  48.663  1.00  0.00    -0.269 OA
HETATM    9  H   UNL     1      21.836  48.469  49.821  1.00  0.00     0.163 HD
BRANCH   7  10
HETATM   10  C   UNL     1      20.530  50.571  49.400  1.00  0.00     0.075 C 
HETATM   11  C   UNL     1      19.757  51.269  48.554  1.00  0.00     0.020 C 
BRANCH  11  12
HETATM   12  C   UNL     1      18.331  51.498  48.817  1.00  0.00    -0.003 A 
HETATM   13  C   UNL     1      17.326  50.692  48.251  1.00  0.00     0.078 A 
HETATM   14  C   UNL     1      15.984  50.977  48.529  1.00  0.00     0.037 A 
HETATM   15  C   UNL     1      15.645  52.036  49.378  1.00  0.00     0.003 A 
HETATM   16  C   UNL     1      16.641  52.821  49.950  1.00  0.00     0.001 A 
HETATM   17  C   UNL     1      17.980  52.556  49.668  1.00  0.00     0.014 A 
BRANCH  13  18
HETATM   18  O   UNL     1      17.747  49.678  47.428  1.00  0.00    -0.355 OA
HETATM   19  C   UNL     1      17.563  48.348  47.892  1.00  0.00     0.210 C 
ENDBRANCH  13  18
ENDBRANCH  11  12
ENDBRANCH   7  10
ENDBRANCH   5   6
ENDBRANCH   1   5
BRANCH   2  20
HETATM   20  N   UNL     1      26.104  46.206  50.698  1.00  0.00    -0.166 NA
HETATM   21  C   UNL     1      26.190  45.894  51.949  1.00  0.00     0.157 A 
HETATM   22  C   UNL     1      25.788  46.720  53.174  1.00  0.00     0.277 A 
HETATM   23  C   UNL     1      26.749  44.653  52.468  1.00  0.00     0.028 A 
HETATM   24  O   UNL     1      25.283  47.823  53.134  1.00  0.00    -0.266 OA
HETATM   25  N   UNL     1      26.137  45.954  54.266  1.00  0.00    -0.321 N 
HETATM   26  C   UNL     1      26.699  44.746  53.859  1.00  0.00     0.048 A 
HETATM   27  H   UNL     1      25.997  46.249  55.221  1.00  0.00     0.169 HD
HETATM   28  C   UNL     1      27.173  43.727  54.660  1.00  0.00     0.032 A 
HETATM   29  C   UNL     1      27.699  42.598  54.018  1.00  0.00     0.021 A 
HETATM   30  C   UNL     1      27.740  42.517  52.609  1.00  0.00     0.012 A 
HETATM   31 BR   UNL     1      28.458  40.969  51.793  1.00  0.00    -0.051 Br
HETATM   32  C   UNL     1      27.263  43.555  51.810  1.00  0.00     0.035 A 
ENDBRANCH   2  20
TORSDOF 6
ENDMDL
MODEL 7
REMARK VINA RESULT:      -8.6      7.044     10.727
REMARK  6 active torsions:
REMARK  status: ('A' for Active; 'I' for Inactive)
REMARK    1  A    between atoms: O_2  and  C_3 
REMARK    2  A    between atoms: C_4  and  C_5 
REMARK    3  A    between atoms: C_6  and  C_7 
REMARK       I    between atoms: C_7  and  N_8 
REMARK    4  A    between atoms: N_8  and  C_9 
REMARK    5  A    between atoms: C_9  and  C_10 
REMARK       I    between atoms: C_10  and  N_11 
REMARK    6  A    between atoms: N_11  and  N_12 
ROOT
HETATM    1  C   UNL     1      26.532  43.108  49.930  1.00  0.00     0.255 C 
HETATM    2  N   UNL     1      26.447  41.857  49.342  1.00  0.00    -0.245 N 
HETATM    3  O   UNL     1      27.098  44.080  49.429  1.00  0.00    -0.270 OA
HETATM    4  H   UNL     1      25.971  41.100  49.835  1.00  0.00     0.192 HD
ENDROOT
BRANCH   1   5
HETATM    5  C   UNL     1      26.021  43.149  51.371  1.00  0.00     0.227 C 
BRANCH   5   6
HETATM    6  N   UNL     1      27.039  43.301  52.404  1.00  0.00    -0.349 N 
HETATM    7  C   UNL     1      27.860  42.250  52.730  1.00  0.00     0.241 C 
HETATM    8  O   UNL     1      27.901  41.200  52.105  1.00  0.00    -0.269 OA
HETATM    9  H   UNL     1      27.002  44.119  52.999  1.00  0.00     0.163 HD
BRANCH   7  10
HETATM   10  C   UNL     1      28.657  42.493  53.955  1.00  0.00     0.075 C 
HETATM   11  C   UNL     1      29.092  43.734  54.221  1.00  0.00     0.020 C 
BRANCH  11  12
HETATM   12  C   UNL     1      29.918  44.032  55.396  1.00  0.00    -0.003 A 
HETATM   13  C   UNL     1      29.930  45.303  56.002  1.00  0.00     0.078 A 
HETATM   14  C   UNL     1      30.755  45.524  57.111  1.00  0.00     0.037 A 
HETATM   15  C   UNL     1      31.540  44.488  57.628  1.00  0.00     0.003 A 
HETATM   16  C   UNL     1      31.513  43.228  57.039  1.00  0.00     0.001 A 
HETATM   17  C   UNL     1      30.708  43.000  55.924  1.00  0.00     0.014 A 
BRANCH  13  18
HETATM   18  O   UNL     1      29.132  46.260  55.428  1.00  0.00    -0.355 OA
HETATM   19  C   UNL     1      28.029  46.727  56.192  1.00  0.00     0.210 C 
ENDBRANCH  13  18
ENDBRANCH  11  12
ENDBRANCH   7  10
ENDBRANCH   5   6
ENDBRANCH   1   5
BRANCH   2  20
HETATM   20  N   UNL     1      26.979  41.643  48.105  1.00  0.00    -0.166 NA
HETATM   21  C   UNL     1      27.182  40.414  47.759  1.00  0.00     0.157 A 
HETATM   22  C   UNL     1      26.947  39.137  48.571  1.00  0.00     0.277 A 
HETATM   23  C   UNL     1      27.737  39.981  46.483  1.00  0.00     0.028 A 
HETATM   24  O   UNL     1      26.489  39.102  49.694  1.00  0.00    -0.266 OA
HETATM   25  N   UNL     1      27.373  38.103  47.764  1.00  0.00    -0.321 N 
HETATM   26  C   UNL     1      27.836  38.592  46.543  1.00  0.00     0.048 A 
HETATM   27  H   UNL     1      27.347  37.134  48.041  1.00  0.00     0.169 HD
HETATM   28  C   UNL     1      28.344  37.866  45.486  1.00  0.00     0.032 A 
HETATM   29  C   UNL     1      28.751  38.582  44.352  1.00  0.00     0.021 A 
HETATM   30  C   UNL     1      28.641  39.988  44.304  1.00  0.00     0.012 A 
HETATM   31 BR   UNL     1      29.201  40.907  42.748  1.00  0.00    -0.051 Br
HETATM   32  C   UNL     1      28.130  40.712  45.381  1.00  0.00     0.035 A 
ENDBRANCH   2  20
TORSDOF 6
ENDMDL
MODEL 8
REMARK VINA RESULT:      -8.5      5.114     10.556
REMARK  6 active torsions:
REMARK  status: ('A' for Active; 'I' for Inactive)
REMARK    1  A    between atoms: O_2  and  C_3 
REMARK    2  A    between atoms: C_4  and  C_5 
REMARK    3  A    between atoms: C_6  and  C_7 
REMARK       I    between atoms: C_7  and  N_8 
REMARK    4  A    between atoms: N_8  and  C_9 
REMARK    5  A    between atoms: C_9  and  C_10 
REMARK       I    between atoms: C_10  and  N_11 
REMARK    6  A    between atoms: N_11  and  N_12 
ROOT
HETATM    1  C   UNL     1      26.387  42.353  49.652  1.00  0.00     0.255 C 
HETATM    2  N   UNL     1      25.160  41.904  49.194  1.00  0.00    -0.245 N 
HETATM    3  O   UNL     1      26.987  43.330  49.203  1.00  0.00    -0.270 OA
HETATM    4  H   UNL     1      24.738  41.074  49.614  1.00  0.00     0.192 HD
ENDROOT
BRANCH   1   5
HETATM    5  C   UNL     1      27.052  41.413  50.659  1.00  0.00     0.227 C 
BRANCH   5   6
HETATM    6  N   UNL     1      27.810  42.055  51.726  1.00  0.00    -0.349 N 
HETATM    7  C   UNL     1      28.732  41.340  52.450  1.00  0.00     0.241 C 
HETATM    8  O   UNL     1      29.081  40.201  52.171  1.00  0.00    -0.269 OA
HETATM    9  H   UNL     1      27.513  42.969  52.045  1.00  0.00     0.163 HD
BRANCH   7  10
HETATM   10  C   UNL     1      29.225  42.067  53.643  1.00  0.00     0.075 C 
HETATM   11  C   UNL     1      28.888  43.354  53.814  1.00  0.00     0.020 C 
BRANCH  11  12
HETATM   12  C   UNL     1      29.375  44.139  54.955  1.00  0.00    -0.003 A 
HETATM   13  C   UNL     1      28.671  45.249  55.457  1.00  0.00     0.078 A 
HETATM   14  C   UNL     1      29.201  45.964  56.537  1.00  0.00     0.037 A 
HETATM   15  C   UNL     1      30.406  45.567  57.126  1.00  0.00     0.003 A 
HETATM   16  C   UNL     1      31.092  44.458  56.640  1.00  0.00     0.001 A 
HETATM   17  C   UNL     1      30.582  43.748  55.555  1.00  0.00     0.014 A 
BRANCH  13  18
HETATM   18  O   UNL     1      27.501  45.570  54.816  1.00  0.00    -0.355 OA
HETATM   19  C   UNL     1      27.295  46.937  54.491  1.00  0.00     0.210 C 
ENDBRANCH  13  18
ENDBRANCH  11  12
ENDBRANCH   7  10
ENDBRANCH   5   6
ENDBRANCH   1   5
BRANCH   2  20
HETATM   20  N   UNL     1      24.510  42.577  48.201  1.00  0.00    -0.166 NA
HETATM   21  C   UNL     1      23.522  43.331  48.554  1.00  0.00     0.157 A 
HETATM   22  C   UNL     1      22.933  43.551  49.950  1.00  0.00     0.277 A 
HETATM   23  C   UNL     1      22.709  44.129  47.646  1.00  0.00     0.028 A 
HETATM   24  O   UNL     1      23.353  43.043  50.970  1.00  0.00    -0.266 OA
HETATM   25  N   UNL     1      21.864  44.403  49.769  1.00  0.00    -0.321 N 
HETATM   26  C   UNL     1      21.729  44.743  48.425  1.00  0.00     0.048 A 
HETATM   27  H   UNL     1      21.272  44.721  50.522  1.00  0.00     0.169 HD
HETATM   28  C   UNL     1      20.777  45.566  47.858  1.00  0.00     0.032 A 
HETATM   29  C   UNL     1      20.842  45.761  46.471  1.00  0.00     0.021 A 
HETATM   30  C   UNL     1      21.842  45.135  45.696  1.00  0.00     0.012 A 
HETATM   31 BR   UNL     1      21.886  45.434  43.829  1.00  0.00    -0.051 Br
HETATM   32  C   UNL     1      22.795  44.302  46.280  1.00  0.00     0.035 A 
ENDBRANCH   2  20
TORSDOF 6
ENDMDL
MODEL 9
REMARK VINA RESULT:      -8.4      4.290     11.057
REMARK  6 active torsions:
REMARK  status: ('A' for Active; 'I' for Inactive)
REMARK    1  A    between atoms: O_2  and  C_3 
REMARK    2  A    between atoms: C_4  and  C_5 
REMARK    3  A    between atoms: C_6  and  C_7 
REMARK       I    between atoms: C_7  and  N_8 
REMARK    4  A    between atoms: N_8  and  C_9 
REMARK    5  A    between atoms: C_9  and  C_10 
REMARK       I    between atoms: C_10  and  N_11 
REMARK    6  A    between atoms: N_11  and  N_12 
ROOT
HETATM    1  C   UNL     1      22.516  46.710  48.807  1.00  0.00     0.255 C 
HETATM    2  N   UNL     1      21.154  46.468  48.883  1.00  0.00    -0.245 N 
HETATM    3  O   UNL     1      23.021  47.816  48.617  1.00  0.00    -0.270 OA
HETATM    4  H   UNL     1      20.819  45.514  49.028  1.00  0.00     0.192 HD
ENDROOT
BRANCH   1   5
HETATM    5  C   UNL     1      23.368  45.439  48.791  1.00  0.00     0.227 C 
BRANCH   5   6
HETATM    6  N   UNL     1      24.569  45.467  49.617  1.00  0.00    -0.349 N 
HETATM    7  C   UNL     1      24.564  44.900  50.868  1.00  0.00     0.241 C 
HETATM    8  O   UNL     1      23.642  44.226  51.305  1.00  0.00    -0.269 OA
HETATM    9  H   UNL     1      25.332  46.070  49.337  1.00  0.00     0.163 HD
BRANCH   7  10
HETATM   10  C   UNL     1      25.770  45.231  51.662  1.00  0.00     0.075 C 
HETATM   11  C   UNL     1      25.748  45.060  52.992  1.00  0.00     0.020 C 
BRANCH  11  12
HETATM   12  C   UNL     1      26.896  45.406  53.838  1.00  0.00    -0.003 A 
HETATM   13  C   UNL     1      27.839  44.446  54.251  1.00  0.00     0.078 A 
HETATM   14  C   UNL     1      28.902  44.841  55.072  1.00  0.00     0.037 A 
HETATM   15  C   UNL     1      29.039  46.177  55.461  1.00  0.00     0.003 A 
HETATM   16  C   UNL     1      28.116  47.128  55.037  1.00  0.00     0.001 A 
HETATM   17  C   UNL     1      27.045  46.744  54.232  1.00  0.00     0.014 A 
BRANCH  13  18
HETATM   18  O   UNL     1      27.626  43.159  53.827  1.00  0.00    -0.355 OA
HETATM   19  C   UNL     1      28.597  42.593  52.958  1.00  0.00     0.210 C 
ENDBRANCH  13  18
ENDBRANCH  11  12
ENDBRANCH   7  10
ENDBRANCH   5   6
ENDBRANCH   1   5
BRANCH   2  20
HETATM   20  N   UNL     1      20.268  47.500  48.782  1.00  0.00    -0.166 NA
HETATM   21  C   UNL     1      19.042  47.194  48.508  1.00  0.00     0.157 A 
HETATM   22  C   UNL     1      18.436  45.816  48.231  1.00  0.00     0.277 A 
HETATM   23  C   UNL     1      17.951  48.149  48.362  1.00  0.00     0.028 A 
HETATM   24  O   UNL     1      19.047  44.767  48.261  1.00  0.00    -0.266 OA
HETATM   25  N   UNL     1      17.107  46.049  47.942  1.00  0.00    -0.321 N 
HETATM   26  C   UNL     1      16.820  47.410  48.016  1.00  0.00     0.048 A 
HETATM   27  H   UNL     1      16.452  45.318  47.708  1.00  0.00     0.169 HD
HETATM   28  C   UNL     1      15.607  48.027  47.789  1.00  0.00     0.032 A 
HETATM   29  C   UNL     1      15.560  49.421  47.925  1.00  0.00     0.021 A 
HETATM   30  C   UNL     1      16.712  50.154  48.278  1.00  0.00     0.012 A 
HETATM   31 BR   UNL     1      16.594  52.035  48.451  1.00  0.00    -0.051 Br
HETATM   32  C   UNL     1      17.935  49.521  48.501  1.00  0.00     0.035 A 
ENDBRANCH   2  20
TORSDOF 6
ENDMDL
MODEL 10
REMARK VINA RESULT:      -8.2      5.453      8.861
REMARK  6 active torsions:
REMARK  status: ('A' for Active; 'I' for Inactive)
REMARK    1  A    between atoms: O_2  and  C_3 
REMARK    2  A    between atoms: C_4  and  C_5 
REMARK    3  A    between atoms: C_6  and  C_7 
REMARK       I    between atoms: C_7  and  N_8 
REMARK    4  A    between atoms: N_8  and  C_9 
REMARK    5  A    between atoms: C_9  and  C_10 
REMARK       I    between atoms: C_10  and  N_11 
REMARK    6  A    between atoms: N_11  and  N_12 
ROOT
HETATM    1  C   UNL     1      24.274  43.549  51.026  1.00  0.00     0.255 C 
HETATM    2  N   UNL     1      25.404  42.889  51.483  1.00  0.00    -0.245 N 
HETATM    3  O   UNL     1      23.860  44.619  51.471  1.00  0.00    -0.270 OA
HETATM    4  H   UNL     1      25.668  41.995  51.066  1.00  0.00     0.192 HD
ENDROOT
BRANCH   1   5
HETATM    5  C   UNL     1      23.449  42.738  50.025  1.00  0.00     0.227 C 
BRANCH   5   6
HETATM    6  N   UNL     1      24.210  41.936  49.074  1.00  0.00    -0.349 N 
HETATM    7  C   UNL     1      23.564  41.091  48.205  1.00  0.00     0.241 C 
HETATM    8  O   UNL     1      22.349  41.059  48.064  1.00  0.00    -0.269 OA
HETATM    9  H   UNL     1      25.212  41.870  49.194  1.00  0.00     0.163 HD
BRANCH   7  10
HETATM   10  C   UNL     1      24.485  40.177  47.489  1.00  0.00     0.075 C 
HETATM   11  C   UNL     1      25.787  40.171  47.812  1.00  0.00     0.020 C 
BRANCH  11  12
HETATM   12  C   UNL     1      26.755  39.317  47.115  1.00  0.00    -0.003 A 
HETATM   13  C   UNL     1      27.489  38.317  47.780  1.00  0.00     0.078 A 
HETATM   14  C   UNL     1      28.410  37.550  47.057  1.00  0.00     0.037 A 
HETATM   15  C   UNL     1      28.583  37.757  45.685  1.00  0.00     0.003 A 
HETATM   16  C   UNL     1      27.844  38.735  45.025  1.00  0.00     0.001 A 
HETATM   17  C   UNL     1      26.936  39.516  45.738  1.00  0.00     0.014 A 
BRANCH  13  18
HETATM   18  O   UNL     1      27.259  38.185  49.126  1.00  0.00    -0.355 OA
HETATM   19  C   UNL     1      27.023  36.873  49.616  1.00  0.00     0.210 C 
ENDBRANCH  13  18
ENDBRANCH  11  12
ENDBRANCH   7  10
ENDBRANCH   5   6
ENDBRANCH   1   5
BRANCH   2  20
HETATM   20  N   UNL     1      26.166  43.439  52.471  1.00  0.00    -0.166 NA
HETATM   21  C   UNL     1      27.374  42.995  52.594  1.00  0.00     0.157 A 
HETATM   22  C   UNL     1      28.075  41.888  51.802  1.00  0.00     0.277 A 
HETATM   23  C   UNL     1      28.341  43.456  53.581  1.00  0.00     0.028 A 
HETATM   24  O   UNL     1      27.577  41.264  50.888  1.00  0.00    -0.266 OA
HETATM   25  N   UNL     1      29.330  41.772  52.363  1.00  0.00    -0.321 N 
HETATM   26  C   UNL     1      29.489  42.685  53.403  1.00  0.00     0.048 A 
HETATM   27  H   UNL     1      30.021  41.107  52.049  1.00  0.00     0.169 HD
HETATM   28  C   UNL     1      30.600  42.864  54.201  1.00  0.00     0.032 A 
HETATM   29  C   UNL     1      30.527  43.853  55.192  1.00  0.00     0.021 A 
HETATM   30  C   UNL     1      29.359  44.627  55.358  1.00  0.00     0.012 A 
HETATM   31 BR   UNL     1      29.312  45.951  56.709  1.00  0.00    -0.051 Br
HETATM   32  C   UNL     1      28.240  44.435  54.548  1.00  0.00     0.035 A 
ENDBRANCH   2  20
TORSDOF 6
ENDMDL
