MODEL 1
REMARK VINA RESULT:      -9.2      0.000      0.000
REMARK  4 active torsions:
REMARK  status: ('A' for Active; 'I' for Inactive)
REMARK    1  A    between atoms: C_2  and  C_3 
REMARK    2  A    between atoms: C_6  and  C_7 
REMARK    3  A    between atoms: C_10  and  N_11 
REMARK    4  A    between atoms: N_11  and  C_12 
ROOT
HETATM    1  C   UNL     1      26.341  45.987  52.926  1.00  0.00     0.076 C 
HETATM    2  C   UNL     1      25.293  44.947  52.592  1.00  0.00     0.144 C 
HETATM    3  S   UNL     1      24.790  44.986  50.864  1.00  0.00    -0.087 SA
HETATM    4  C   UNL     1      24.643  46.690  50.684  1.00  0.00     0.157 C 
HETATM    5  N   UNL     1      25.403  47.490  51.420  1.00  0.00    -0.257 N 
HETATM    6  H   UNL     1      25.318  48.477  51.199  1.00  0.00     0.191 HD
HETATM    7  N   UNL     1      26.371  47.184  52.411  1.00  0.00    -0.176 NA
ENDROOT
BRANCH   1   8
HETATM    8  C   UNL     1      27.320  45.713  53.985  1.00  0.00     0.019 A 
HETATM    9  C   UNL     1      28.366  44.718  54.023  1.00  0.00     0.005 A 
HETATM   10  C   UNL     1      29.082  44.895  55.211  1.00  0.00     0.049 A 
HETATM   11  C   UNL     1      28.785  43.689  53.150  1.00  0.00     0.014 A 
HETATM   12  C   UNL     1      30.208  44.126  55.568  1.00  0.00    -0.031 A 
HETATM   13  N   UNL     1      28.474  45.922  55.894  1.00  0.00    -0.364 N 
HETATM   14  C   UNL     1      30.581  43.112  54.669  1.00  0.00     0.009 A 
HETATM   15  C   UNL     1      29.885  42.894  53.485  1.00  0.00     0.002 A 
HETATM   16  C   UNL     1      27.427  46.424  55.169  1.00  0.00     0.102 A 
HETATM   17  H   UNL     1      28.777  46.259  56.798  1.00  0.00     0.165 HD
BRANCH  12  18
HETATM   18  C   UNL     1      30.995  44.327  56.840  1.00  0.00     0.036 C 
HETATM   19  C   UNL     1      31.897  43.141  57.144  1.00  0.00     0.010 C 
ENDBRANCH  12  18
ENDBRANCH   1   8
BRANCH   4  20
HETATM   20  N   UNL     1      23.762  47.084  49.785  1.00  0.00    -0.365 N 
HETATM   21  H   UNL     1      23.408  46.317  49.219  1.00  0.00     0.162 HD
BRANCH  20  22
HETATM   22  C   UNL     1      23.296  48.447  49.521  1.00  0.00     0.083 C 
HETATM   23  C   UNL     1      24.249  49.144  48.558  1.00  0.00     0.025 C 
HETATM   24  C   UNL     1      23.384  50.236  47.957  1.00  0.00     0.002 C 
HETATM   25  C   UNL     1      22.041  49.553  47.737  1.00  0.00     0.002 C 
HETATM   26  C   UNL     1      21.951  48.454  48.797  1.00  0.00     0.025 C 
ENDBRANCH  20  22
ENDBRANCH   4  20
TORSDOF 4
ENDMDL
MODEL 2
REMARK VINA RESULT:      -8.5      2.266      8.426
REMARK  4 active torsions:
REMARK  status: ('A' for Active; 'I' for Inactive)
REMARK    1  A    between atoms: C_2  and  C_3 
REMARK    2  A    between atoms: C_6  and  C_7 
REMARK    3  A    between atoms: C_10  and  N_11 
REMARK    4  A    between atoms: N_11  and  C_12 
ROOT
HETATM    1  C   UNL     1      25.712  45.331  50.594  1.00  0.00     0.076 C 
HETATM    2  C   UNL     1      26.874  44.661  49.893  1.00  0.00     0.144 C 
HETATM    3  S   UNL     1      26.970  42.894  50.222  1.00  0.00    -0.087 SA
HETATM    4  C   UNL     1      26.676  42.938  51.916  1.00  0.00     0.157 C 
HETATM    5  N   UNL     1      25.929  43.910  52.422  1.00  0.00    -0.257 N 
HETATM    6  H   UNL     1      25.734  43.823  53.414  1.00  0.00     0.191 HD
HETATM    7  N   UNL     1      25.295  45.010  51.786  1.00  0.00    -0.176 NA
ENDROOT
BRANCH   1   8
HETATM    8  C   UNL     1      25.075  46.503  49.980  1.00  0.00     0.019 A 
HETATM    9  C   UNL     1      25.684  47.721  49.496  1.00  0.00     0.005 A 
HETATM   10  C   UNL     1      24.675  48.507  48.931  1.00  0.00     0.049 A 
HETATM   11  C   UNL     1      27.003  48.225  49.470  1.00  0.00     0.014 A 
HETATM   12  C   UNL     1      24.907  49.755  48.317  1.00  0.00    -0.031 A 
HETATM   13  N   UNL     1      23.494  47.824  49.102  1.00  0.00    -0.364 N 
HETATM   14  C   UNL     1      26.235  50.214  48.322  1.00  0.00     0.009 A 
HETATM   15  C   UNL     1      27.263  49.469  48.888  1.00  0.00     0.002 A 
HETATM   16  C   UNL     1      23.720  46.623  49.718  1.00  0.00     0.102 A 
HETATM   17  H   UNL     1      22.592  48.167  48.798  1.00  0.00     0.165 HD
BRANCH  12  18
HETATM   18  C   UNL     1      23.824  50.598  47.690  1.00  0.00     0.036 C 
HETATM   19  C   UNL     1      22.922  51.234  48.735  1.00  0.00     0.010 C 
ENDBRANCH  12  18
ENDBRANCH   1   8
BRANCH   4  20
HETATM   20  N   UNL     1      27.226  41.958  52.606  1.00  0.00    -0.365 N 
HETATM   21  H   UNL     1      26.799  41.055  52.415  1.00  0.00     0.162 HD
BRANCH  20  22
HETATM   22  C   UNL     1      28.312  42.047  53.584  1.00  0.00     0.083 C 
HETATM   23  C   UNL     1      29.623  42.366  52.877  1.00  0.00     0.025 C 
HETATM   24  C   UNL     1      30.465  42.976  53.983  1.00  0.00     0.002 C 
HETATM   25  C   UNL     1      29.482  43.857  54.741  1.00  0.00     0.002 C 
HETATM   26  C   UNL     1      28.108  43.212  54.551  1.00  0.00     0.025 C 
ENDBRANCH  20  22
ENDBRANCH   4  20
TORSDOF 4
ENDMDL
MODEL 3
REMARK VINA RESULT:      -8.4      1.691      2.432
REMARK  4 active torsions:
REMARK  status: ('A' for Active; 'I' for Inactive)
REMARK    1  A    between atoms: C_2  and  C_3 
REMARK    2  A    between atoms: C_6  and  C_7 
REMARK    3  A    between atoms: C_10  and  N_11 
REMARK    4  A    between atoms: N_11  and  C_12 
ROOT
HETATM    1  C   UNL     1      26.715  44.267  52.052  1.00  0.00     0.076 C 
HETATM    2  C   UNL     1      26.830  44.079  50.555  1.00  0.00     0.144 C 
HETATM    3  S   UNL     1      25.940  45.331  49.618  1.00  0.00    -0.087 SA
HETATM    4  C   UNL     1      24.491  45.354  50.544  1.00  0.00     0.157 C 
HETATM    5  N   UNL     1      24.540  45.060  51.836  1.00  0.00    -0.257 N 
HETATM    6  H   UNL     1      23.661  45.175  52.331  1.00  0.00     0.191 HD
HETATM    7  N   UNL     1      25.638  44.686  52.654  1.00  0.00    -0.176 NA
ENDROOT
BRANCH   1   8
HETATM    8  C   UNL     1      27.818  43.839  52.921  1.00  0.00     0.019 A 
HETATM    9  C   UNL     1      28.423  44.534  54.034  1.00  0.00     0.005 A 
HETATM   10  C   UNL     1      29.388  43.689  54.592  1.00  0.00     0.049 A 
HETATM   11  C   UNL     1      28.232  45.800  54.632  1.00  0.00     0.014 A 
HETATM   12  C   UNL     1      30.154  44.020  55.729  1.00  0.00    -0.031 A 
HETATM   13  N   UNL     1      29.406  42.546  53.829  1.00  0.00    -0.364 N 
HETATM   14  C   UNL     1      29.930  45.292  56.282  1.00  0.00     0.009 A 
HETATM   15  C   UNL     1      28.991  46.166  55.747  1.00  0.00     0.002 A 
HETATM   16  C   UNL     1      28.468  42.619  52.835  1.00  0.00     0.102 A 
HETATM   17  H   UNL     1      30.022  41.761  53.997  1.00  0.00     0.165 HD
BRANCH  12  18
HETATM   18  C   UNL     1      31.182  43.103  56.345  1.00  0.00     0.036 C 
HETATM   19  C   UNL     1      31.913  43.765  57.502  1.00  0.00     0.010 C 
ENDBRANCH  12  18
ENDBRANCH   1   8
BRANCH   4  20
HETATM   20  N   UNL     1      23.404  45.687  49.875  1.00  0.00    -0.365 N 
HETATM   21  H   UNL     1      22.613  45.084  50.086  1.00  0.00     0.162 HD
BRANCH  20  22
HETATM   22  C   UNL     1      23.248  46.762  48.893  1.00  0.00     0.083 C 
HETATM   23  C   UNL     1      21.789  46.865  48.464  1.00  0.00     0.025 C 
HETATM   24  C   UNL     1      21.687  48.290  47.951  1.00  0.00     0.002 C 
HETATM   25  C   UNL     1      22.509  49.093  48.951  1.00  0.00     0.002 C 
HETATM   26  C   UNL     1      23.564  48.129  49.497  1.00  0.00     0.025 C 
ENDBRANCH  20  22
ENDBRANCH   4  20
TORSDOF 4
ENDMDL
MODEL 4
REMARK VINA RESULT:      -8.3      2.407      3.944
REMARK  4 active torsions:
REMARK  status: ('A' for Active; 'I' for Inactive)
REMARK    1  A    between atoms: C_2  and  C_3 
REMARK    2  A    between atoms: C_6  and  C_7 
REMARK    3  A    between atoms: C_10  and  N_11 
REMARK    4  A    between atoms: N_11  and  C_12 
ROOT
HETATM    1  C   UNL     1      24.445  46.403  50.019  1.00  0.00     0.076 C 
HETATM    2  C   UNL     1      23.318  45.641  49.355  1.00  0.00     0.144 C 
HETATM    3  S   UNL     1      22.416  46.627  48.150  1.00  0.00    -0.087 SA
HETATM    4  C   UNL     1      22.279  48.077  49.066  1.00  0.00     0.157 C 
HETATM    5  N   UNL     1      23.215  48.375  49.956  1.00  0.00    -0.257 N 
HETATM    6  H   UNL     1      23.107  49.284  50.396  1.00  0.00     0.191 HD
HETATM    7  N   UNL     1      24.384  47.666  50.335  1.00  0.00    -0.176 NA
ENDROOT
BRANCH   1   8
HETATM    8  C   UNL     1      25.641  45.680  50.467  1.00  0.00     0.019 A 
HETATM    9  C   UNL     1      25.911  45.073  51.750  1.00  0.00     0.005 A 
HETATM   10  C   UNL     1      27.156  44.441  51.670  1.00  0.00     0.049 A 
HETATM   11  C   UNL     1      25.207  44.987  52.972  1.00  0.00     0.014 A 
HETATM   12  C   UNL     1      27.728  43.703  52.727  1.00  0.00    -0.031 A 
HETATM   13  N   UNL     1      27.649  44.687  50.411  1.00  0.00    -0.364 N 
HETATM   14  C   UNL     1      26.991  43.653  53.922  1.00  0.00     0.009 A 
HETATM   15  C   UNL     1      25.757  44.281  54.046  1.00  0.00     0.002 A 
HETATM   16  C   UNL     1      26.751  45.418  49.681  1.00  0.00     0.102 A 
HETATM   17  H   UNL     1      28.546  44.358  50.078  1.00  0.00     0.165 HD
BRANCH  12  18
HETATM   18  C   UNL     1      29.063  43.004  52.638  1.00  0.00     0.036 C 
HETATM   19  C   UNL     1      29.828  43.072  53.950  1.00  0.00     0.010 C 
ENDBRANCH  12  18
ENDBRANCH   1   8
BRANCH   4  20
HETATM   20  N   UNL     1      21.219  48.813  48.793  1.00  0.00    -0.365 N 
HETATM   21  H   UNL     1      20.496  48.294  48.302  1.00  0.00     0.162 HD
BRANCH  20  22
HETATM   22  C   UNL     1      21.011  50.232  49.087  1.00  0.00     0.083 C 
HETATM   23  C   UNL     1      20.343  50.916  47.901  1.00  0.00     0.025 C 
HETATM   24  C   UNL     1      19.697  52.136  48.533  1.00  0.00     0.002 C 
HETATM   25  C   UNL     1      19.135  51.607  49.845  1.00  0.00     0.002 C 
HETATM   26  C   UNL     1      20.031  50.432  50.243  1.00  0.00     0.025 C 
ENDBRANCH  20  22
ENDBRANCH   4  20
TORSDOF 4
ENDMDL
MODEL 5
REMARK VINA RESULT:      -8.2      1.863      2.137
REMARK  4 active torsions:
REMARK  status: ('A' for Active; 'I' for Inactive)
REMARK    1  A    between atoms: C_2  and  C_3 
REMARK    2  A    between atoms: C_6  and  C_7 
REMARK    3  A    between atoms: C_10  and  N_11 
REMARK    4  A    between atoms: N_11  and  C_12 
ROOT
HETATM    1  C   UNL     1      26.015  45.079  52.270  1.00  0.00     0.076 C 
HETATM    2  C   UNL     1      26.464  45.500  50.887  1.00  0.00     0.144 C 
HETATM    3  S   UNL     1      25.163  46.305  49.940  1.00  0.00    -0.087 SA
HETATM    4  C   UNL     1      23.874  45.231  50.322  1.00  0.00     0.157 C 
HETATM    5  N   UNL     1      23.880  44.595  51.485  1.00  0.00    -0.257 N 
HETATM    6  H   UNL     1      23.048  44.045  51.672  1.00  0.00     0.191 HD
HETATM    7  N   UNL     1      24.825  44.621  52.544  1.00  0.00    -0.176 NA
ENDROOT
BRANCH   1   8
HETATM    8  C   UNL     1      26.989  45.048  53.368  1.00  0.00     0.019 A 
HETATM    9  C   UNL     1      28.174  44.233  53.512  1.00  0.00     0.005 A 
HETATM   10  C   UNL     1      28.815  44.616  54.694  1.00  0.00     0.049 A 
HETATM   11  C   UNL     1      28.773  43.214  52.739  1.00  0.00     0.014 A 
HETATM   12  C   UNL     1      30.033  44.062  55.138  1.00  0.00    -0.031 A 
HETATM   13  N   UNL     1      28.035  45.588  55.274  1.00  0.00    -0.364 N 
HETATM   14  C   UNL     1      30.585  43.048  54.337  1.00  0.00     0.009 A 
HETATM   15  C   UNL     1      29.970  42.629  53.163  1.00  0.00     0.002 A 
HETATM   16  C   UNL     1      26.947  45.861  54.489  1.00  0.00     0.102 A 
HETATM   17  H   UNL     1      28.252  46.041  56.153  1.00  0.00     0.165 HD
BRANCH  12  18
HETATM   18  C   UNL     1      30.737  44.486  56.404  1.00  0.00     0.036 C 
HETATM   19  C   UNL     1      31.598  43.371  56.976  1.00  0.00     0.010 C 
ENDBRANCH  12  18
ENDBRANCH   1   8
BRANCH   4  20
HETATM   20  N   UNL     1      22.938  45.130  49.398  1.00  0.00    -0.365 N 
HETATM   21  H   UNL     1      22.303  44.353  49.566  1.00  0.00     0.162 HD
BRANCH  20  22
HETATM   22  C   UNL     1      22.755  45.964  48.209  1.00  0.00     0.083 C 
HETATM   23  C   UNL     1      22.239  45.116  47.054  1.00  0.00     0.025 C 
HETATM   24  C   UNL     1      21.578  46.141  46.150  1.00  0.00     0.002 C 
HETATM   25  C   UNL     1      20.866  47.073  47.121  1.00  0.00     0.002 C 
HETATM   26  C   UNL     1      21.671  47.021  48.420  1.00  0.00     0.025 C 
ENDBRANCH  20  22
ENDBRANCH   4  20
TORSDOF 4
ENDMDL
MODEL 6
REMARK VINA RESULT:      -8.2      4.242      6.387
REMARK  4 active torsions:
REMARK  status: ('A' for Active; 'I' for Inactive)
REMARK    1  A    between atoms: C_2  and  C_3 
REMARK    2  A    between atoms: C_6  and  C_7 
REMARK    3  A    between atoms: C_10  and  N_11 
REMARK    4  A    between atoms: N_11  and  C_12 
ROOT
HETATM    1  C   UNL     1      27.166  42.843  52.251  1.00  0.00     0.076 C 
HETATM    2  C   UNL     1      27.103  43.378  50.836  1.00  0.00     0.144 C 
HETATM    3  S   UNL     1      25.841  42.575  49.836  1.00  0.00    -0.087 SA
HETATM    4  C   UNL     1      26.143  40.949  50.310  1.00  0.00     0.157 C 
HETATM    5  N   UNL     1      26.626  40.703  51.519  1.00  0.00    -0.257 N 
HETATM    6  H   UNL     1      26.700  39.718  51.754  1.00  0.00     0.191 HD
HETATM    7  N   UNL     1      26.983  41.592  52.567  1.00  0.00    -0.176 NA
ENDROOT
BRANCH   1   8
HETATM    8  C   UNL     1      27.585  43.731  53.342  1.00  0.00     0.019 A 
HETATM    9  C   UNL     1      28.772  43.668  54.164  1.00  0.00     0.005 A 
HETATM   10  C   UNL     1      28.760  44.775  55.017  1.00  0.00     0.049 A 
HETATM   11  C   UNL     1      29.867  42.780  54.253  1.00  0.00     0.014 A 
HETATM   12  C   UNL     1      29.790  45.066  55.936  1.00  0.00    -0.031 A 
HETATM   13  N   UNL     1      27.597  45.462  54.764  1.00  0.00    -0.364 N 
HETATM   14  C   UNL     1      30.853  44.149  55.990  1.00  0.00     0.009 A 
HETATM   15  C   UNL     1      30.893  43.028  55.169  1.00  0.00     0.002 A 
HETATM   16  C   UNL     1      26.891  44.855  53.761  1.00  0.00     0.102 A 
HETATM   17  H   UNL     1      27.319  46.306  55.249  1.00  0.00     0.165 HD
BRANCH  12  18
HETATM   18  C   UNL     1      29.790  46.270  56.846  1.00  0.00     0.036 C 
HETATM   19  C   UNL     1      30.432  45.967  58.190  1.00  0.00     0.010 C 
ENDBRANCH  12  18
ENDBRANCH   1   8
BRANCH   4  20
HETATM   20  N   UNL     1      25.847  40.038  49.403  1.00  0.00    -0.365 N 
HETATM   21  H   UNL     1      24.850  39.988  49.207  1.00  0.00     0.162 HD
BRANCH  20  22
HETATM   22  C   UNL     1      26.762  39.126  48.714  1.00  0.00     0.083 C 
HETATM   23  C   UNL     1      28.160  39.731  48.667  1.00  0.00     0.025 C 
HETATM   24  C   UNL     1      29.049  38.515  48.481  1.00  0.00     0.002 C 
HETATM   25  C   UNL     1      28.427  37.470  49.398  1.00  0.00     0.002 C 
HETATM   26  C   UNL     1      26.940  37.817  49.482  1.00  0.00     0.025 C 
ENDBRANCH  20  22
ENDBRANCH   4  20
TORSDOF 4
ENDMDL
MODEL 7
REMARK VINA RESULT:      -8.1      1.851      2.955
REMARK  4 active torsions:
REMARK  status: ('A' for Active; 'I' for Inactive)
REMARK    1  A    between atoms: C_2  and  C_3 
REMARK    2  A    between atoms: C_6  and  C_7 
REMARK    3  A    between atoms: C_10  and  N_11 
REMARK    4  A    between atoms: N_11  and  C_12 
ROOT
HETATM    1  C   UNL     1      25.728  45.878  50.585  1.00  0.00     0.076 C 
HETATM    2  C   UNL     1      26.234  46.960  49.655  1.00  0.00     0.144 C 
HETATM    3  S   UNL     1      25.092  48.343  49.499  1.00  0.00    -0.087 SA
HETATM    4  C   UNL     1      23.633  47.446  49.338  1.00  0.00     0.157 C 
HETATM    5  N   UNL     1      23.534  46.256  49.914  1.00  0.00    -0.257 N 
HETATM    6  H   UNL     1      22.618  45.826  49.844  1.00  0.00     0.191 HD
HETATM    7  N   UNL     1      24.478  45.522  50.679  1.00  0.00    -0.176 NA
ENDROOT
BRANCH   1   8
HETATM    8  C   UNL     1      26.690  45.071  51.346  1.00  0.00     0.019 A 
HETATM    9  C   UNL     1      27.150  45.243  52.704  1.00  0.00     0.005 A 
HETATM   10  C   UNL     1      28.010  44.181  53.002  1.00  0.00     0.049 A 
HETATM   11  C   UNL     1      26.905  46.196  53.719  1.00  0.00     0.014 A 
HETATM   12  C   UNL     1      28.618  43.996  54.261  1.00  0.00    -0.031 A 
HETATM   13  N   UNL     1      28.110  43.417  51.864  1.00  0.00    -0.364 N 
HETATM   14  C   UNL     1      28.347  44.974  55.233  1.00  0.00     0.009 A 
HETATM   15  C   UNL     1      27.510  46.052  54.971  1.00  0.00     0.002 A 
HETATM   16  C   UNL     1      27.320  43.932  50.871  1.00  0.00     0.102 A 
HETATM   17  H   UNL     1      28.680  42.585  51.787  1.00  0.00     0.165 HD
BRANCH  12  18
HETATM   18  C   UNL     1      29.531  42.841  54.592  1.00  0.00     0.036 C 
HETATM   19  C   UNL     1      30.671  43.261  55.506  1.00  0.00     0.010 C 
ENDBRANCH  12  18
ENDBRANCH   1   8
BRANCH   4  20
HETATM   20  N   UNL     1      22.686  48.040  48.638  1.00  0.00    -0.365 N 
HETATM   21  H   UNL     1      22.603  47.669  47.695  1.00  0.00     0.162 HD
BRANCH  20  22
HETATM   22  C   UNL     1      21.813  49.138  49.058  1.00  0.00     0.083 C 
HETATM   23  C   UNL     1      22.141  50.395  48.262  1.00  0.00     0.025 C 
HETATM   24  C   UNL     1      20.862  51.205  48.368  1.00  0.00     0.002 C 
HETATM   25  C   UNL     1      19.761  50.165  48.212  1.00  0.00     0.002 C 
HETATM   26  C   UNL     1      20.348  48.852  48.732  1.00  0.00     0.025 C 
ENDBRANCH  20  22
ENDBRANCH   4  20
TORSDOF 4
ENDMDL
MODEL 8
REMARK VINA RESULT:      -8.1      2.708      3.550
REMARK  4 active torsions:
REMARK  status: ('A' for Active; 'I' for Inactive)
REMARK    1  A    between atoms: C_2  and  C_3 
REMARK    2  A    between atoms: C_6  and  C_7 
REMARK    3  A    between atoms: C_10  and  N_11 
REMARK    4  A    between atoms: N_11  and  C_12 
ROOT
HETATM    1  C   UNL     1      26.767  44.218  51.964  1.00  0.00     0.076 C 
HETATM    2  C   UNL     1      26.891  44.126  50.458  1.00  0.00     0.144 C 
HETATM    3  S   UNL     1      25.866  45.326  49.593  1.00  0.00    -0.087 SA
HETATM    4  C   UNL     1      24.429  45.142  50.521  1.00  0.00     0.157 C 
HETATM    5  N   UNL     1      24.518  44.783  51.794  1.00  0.00    -0.257 N 
HETATM    6  H   UNL     1      23.635  44.776  52.295  1.00  0.00     0.191 HD
HETATM    7  N   UNL     1      25.655  44.485  52.589  1.00  0.00    -0.176 NA
ENDROOT
BRANCH   1   8
HETATM    8  C   UNL     1      27.914  43.862  52.808  1.00  0.00     0.019 A 
HETATM    9  C   UNL     1      28.445  44.551  53.962  1.00  0.00     0.005 A 
HETATM   10  C   UNL     1      29.500  43.787  54.469  1.00  0.00     0.049 A 
HETATM   11  C   UNL     1      28.117  45.750  54.635  1.00  0.00     0.014 A 
HETATM   12  C   UNL     1      30.231  44.131  55.624  1.00  0.00    -0.031 A 
HETATM   13  N   UNL     1      29.641  42.701  53.637  1.00  0.00    -0.364 N 
HETATM   14  C   UNL     1      29.870  45.334  56.254  1.00  0.00     0.009 A 
HETATM   15  C   UNL     1      28.837  46.130  55.772  1.00  0.00     0.002 A 
HETATM   16  C   UNL     1      28.696  42.730  52.648  1.00  0.00     0.102 A 
HETATM   17  H   UNL     1      30.342  41.981  53.758  1.00  0.00     0.165 HD
BRANCH  12  18
HETATM   18  C   UNL     1      31.357  43.298  56.185  1.00  0.00     0.036 C 
HETATM   19  C   UNL     1      31.759  43.752  57.579  1.00  0.00     0.010 C 
ENDBRANCH  12  18
ENDBRANCH   1   8
BRANCH   4  20
HETATM   20  N   UNL     1      23.308  45.393  49.872  1.00  0.00    -0.365 N 
HETATM   21  H   UNL     1      23.013  46.362  49.959  1.00  0.00     0.162 HD
BRANCH  20  22
HETATM   22  C   UNL     1      22.483  44.455  49.108  1.00  0.00     0.083 C 
HETATM   23  C   UNL     1      22.702  44.668  47.615  1.00  0.00     0.025 C 
HETATM   24  C   UNL     1      22.282  43.338  47.018  1.00  0.00     0.002 C 
HETATM   25  C   UNL     1      22.849  42.311  47.989  1.00  0.00     0.002 C 
HETATM   26  C   UNL     1      22.902  43.006  49.351  1.00  0.00     0.025 C 
ENDBRANCH  20  22
ENDBRANCH   4  20
TORSDOF 4
ENDMDL
MODEL 9
REMARK VINA RESULT:      -8.1      4.814      5.992
REMARK  4 active torsions:
REMARK  status: ('A' for Active; 'I' for Inactive)
REMARK    1  A    between atoms: C_2  and  C_3 
REMARK    2  A    between atoms: C_6  and  C_7 
REMARK    3  A    between atoms: C_10  and  N_11 
REMARK    4  A    between atoms: N_11  and  C_12 
ROOT
HETATM    1  C   UNL     1      27.352  43.167  51.441  1.00  0.00     0.076 C 
HETATM    2  C   UNL     1      27.256  41.657  51.501  1.00  0.00     0.144 C 
HETATM    3  S   UNL     1      27.866  40.855  50.010  1.00  0.00    -0.087 SA
HETATM    4  C   UNL     1      27.129  41.889  48.849  1.00  0.00     0.157 C 
HETATM    5  N   UNL     1      26.899  43.157  49.161  1.00  0.00    -0.257 N 
HETATM    6  H   UNL     1      26.538  43.722  48.399  1.00  0.00     0.191 HD
HETATM    7  N   UNL     1      27.148  43.870  50.363  1.00  0.00    -0.176 NA
ENDROOT
BRANCH   1   8
HETATM    8  C   UNL     1      27.556  43.927  52.681  1.00  0.00     0.019 A 
HETATM    9  C   UNL     1      28.642  43.845  53.631  1.00  0.00     0.005 A 
HETATM   10  C   UNL     1      28.427  44.821  54.610  1.00  0.00     0.049 A 
HETATM   11  C   UNL     1      29.798  43.042  53.746  1.00  0.00     0.014 A 
HETATM   12  C   UNL     1      29.312  45.062  55.681  1.00  0.00    -0.031 A 
HETATM   13  N   UNL     1      27.241  45.443  54.300  1.00  0.00    -0.364 N 
HETATM   14  C   UNL     1      30.444  44.233  55.753  1.00  0.00     0.009 A 
HETATM   15  C   UNL     1      30.684  43.242  54.808  1.00  0.00     0.002 A 
HETATM   16  C   UNL     1      26.716  44.925  53.147  1.00  0.00     0.102 A 
HETATM   17  H   UNL     1      26.830  46.187  54.849  1.00  0.00     0.165 HD
BRANCH  12  18
HETATM   18  C   UNL     1      29.093  46.127  56.728  1.00  0.00     0.036 C 
HETATM   19  C   UNL     1      29.898  45.857  57.989  1.00  0.00     0.010 C 
ENDBRANCH  12  18
ENDBRANCH   1   8
BRANCH   4  20
HETATM   20  N   UNL     1      26.850  41.322  47.691  1.00  0.00    -0.365 N 
HETATM   21  H   UNL     1      25.922  41.560  47.351  1.00  0.00     0.162 HD
BRANCH  20  22
HETATM   22  C   UNL     1      27.692  40.413  46.911  1.00  0.00     0.083 C 
HETATM   23  C   UNL     1      26.926  39.133  46.602  1.00  0.00     0.025 C 
HETATM   24  C   UNL     1      27.646  38.593  45.380  1.00  0.00     0.002 C 
HETATM   25  C   UNL     1      27.921  39.836  44.545  1.00  0.00     0.002 C 
HETATM   26  C   UNL     1      28.030  40.994  45.538  1.00  0.00     0.025 C 
ENDBRANCH  20  22
ENDBRANCH   4  20
TORSDOF 4
ENDMDL
MODEL 10
REMARK VINA RESULT:      -7.8      2.568      3.034
REMARK  4 active torsions:
REMARK  status: ('A' for Active; 'I' for Inactive)
REMARK    1  A    between atoms: C_2  and  C_3 
REMARK    2  A    between atoms: C_6  and  C_7 
REMARK    3  A    between atoms: C_10  and  N_11 
REMARK    4  A    between atoms: N_11  and  C_12 
ROOT
HETATM    1  C   UNL     1      26.556  44.674  52.068  1.00  0.00     0.076 C 
HETATM    2  C   UNL     1      25.230  43.959  52.212  1.00  0.00     0.144 C 
HETATM    3  S   UNL     1      24.900  42.812  50.865  1.00  0.00    -0.087 SA
HETATM    4  C   UNL     1      25.393  43.814  49.556  1.00  0.00     0.157 C 
HETATM    5  N   UNL     1      26.335  44.725  49.754  1.00  0.00    -0.257 N 
HETATM    6  H   UNL     1      26.630  45.219  48.918  1.00  0.00     0.191 HD
HETATM    7  N   UNL     1      27.055  45.066  50.929  1.00  0.00    -0.176 NA
ENDROOT
BRANCH   1   8
HETATM    8  C   UNL     1      27.292  45.083  53.271  1.00  0.00     0.019 A 
HETATM    9  C   UNL     1      28.439  44.462  53.893  1.00  0.00     0.005 A 
HETATM   10  C   UNL     1      28.823  45.261  54.975  1.00  0.00     0.049 A 
HETATM   11  C   UNL     1      29.200  43.301  53.629  1.00  0.00     0.014 A 
HETATM   12  C   UNL     1      29.938  44.986  55.793  1.00  0.00    -0.031 A 
HETATM   13  N   UNL     1      27.925  46.300  55.042  1.00  0.00    -0.364 N 
HETATM   14  C   UNL     1      30.658  43.817  55.492  1.00  0.00     0.009 A 
HETATM   15  C   UNL     1      30.298  42.989  54.435  1.00  0.00     0.002 A 
HETATM   16  C   UNL     1      27.012  46.210  54.027  1.00  0.00     0.102 A 
HETATM   17  H   UNL     1      27.954  47.030  55.742  1.00  0.00     0.165 HD
BRANCH  12  18
HETATM   18  C   UNL     1      30.367  45.856  56.949  1.00  0.00     0.036 C 
HETATM   19  C   UNL     1      29.579  45.550  58.212  1.00  0.00     0.010 C 
ENDBRANCH  12  18
ENDBRANCH   1   8
BRANCH   4  20
HETATM   20  N   UNL     1      24.780  43.582  48.411  1.00  0.00    -0.365 N 
HETATM   21  H   UNL     1      25.198  42.814  47.891  1.00  0.00     0.162 HD
BRANCH  20  22
HETATM   22  C   UNL     1      23.641  44.302  47.840  1.00  0.00     0.083 C 
HETATM   23  C   UNL     1      22.656  43.313  47.228  1.00  0.00     0.025 C 
HETATM   24  C   UNL     1      21.355  44.093  47.218  1.00  0.00     0.002 C 
HETATM   25  C   UNL     1      21.361  44.821  48.556  1.00  0.00     0.002 C 
HETATM   26  C   UNL     1      22.833  45.027  48.915  1.00  0.00     0.025 C 
ENDBRANCH  20  22
ENDBRANCH   4  20
TORSDOF 4
ENDMDL
