MODEL 1
REMARK VINA RESULT:      -9.8      0.000      0.000
REMARK  7 active torsions:
REMARK  status: ('A' for Active; 'I' for Inactive)
REMARK    1  A    between atoms: C_2  and  C_3 
REMARK    2  A    between atoms: C_6  and  C_7 
REMARK    3  A    between atoms: N_8  and  C_9 
REMARK    4  A    between atoms: C_14  and  S_15 
REMARK    5  A    between atoms: S_15  and  C_16 
REMARK    6  A    between atoms: C_16  and  C_17 
REMARK       I    between atoms: C_17  and  N_18 
REMARK    7  A    between atoms: N_18  and  C_19 
ROOT
HETATM    1  C   UNL     1      22.335  48.561  49.113  1.00  0.00     0.164 C 
HETATM    2  N   UNL     1      22.683  47.234  48.911  1.00  0.00    -0.302 N 
HETATM    3  C   UNL     1      23.881  47.090  49.560  1.00  0.00     0.192 C 
HETATM    4  N   UNL     1      24.362  48.273  49.859  1.00  0.00    -0.122 NA
HETATM    5  N   UNL     1      23.394  49.194  49.592  1.00  0.00    -0.128 NA
ENDROOT
BRANCH   3   6
HETATM    6  S   UNL     1      24.605  45.594  50.029  1.00  0.00    -0.081 SA
BRANCH   6   7
HETATM    7  C   UNL     1      25.262  46.003  51.675  1.00  0.00     0.185 C 
BRANCH   7   8
HETATM    8  C   UNL     1      26.527  45.222  52.021  1.00  0.00     0.231 C 
HETATM    9  N   UNL     1      26.752  45.113  53.381  1.00  0.00    -0.326 N 
HETATM   10  H   UNL     1      25.960  45.336  53.986  1.00  0.00     0.169 HD
HETATM   11  O   UNL     1      27.262  44.786  51.137  1.00  0.00    -0.272 OA
BRANCH   9  12
HETATM   12  C   UNL     1      27.897  44.632  54.045  1.00  0.00     0.037 A 
HETATM   13  C   UNL     1      28.507  45.297  55.113  1.00  0.00     0.061 A 
HETATM   14  C   UNL     1      29.580  44.666  55.706  1.00  0.00     0.065 A 
HETATM   15  C   UNL     1      30.059  43.433  55.270  1.00  0.00     0.063 A 
HETATM   16  N   UNL     1      30.352  45.060  56.795  1.00  0.00    -0.306 N 
HETATM   17  N   UNL     1      31.126  43.071  56.085  1.00  0.00    -0.307 N 
HETATM   18  C   UNL     1      29.495  42.761  54.215  1.00  0.00     0.034 A 
HETATM   19  C   UNL     1      31.317  44.074  57.047  1.00  0.00     0.325 A 
HETATM   20  H   UNL     1      31.678  42.232  56.033  1.00  0.00     0.170 HD
HETATM   21  O   UNL     1      32.154  44.081  57.931  1.00  0.00    -0.247 OA
HETATM   22  C   UNL     1      28.394  43.376  53.605  1.00  0.00     0.032 A 
HETATM   23  H   UNL     1      30.248  45.899  57.341  1.00  0.00     0.170 HD
ENDBRANCH   9  12
ENDBRANCH   7   8
ENDBRANCH   6   7
ENDBRANCH   3   6
BRANCH   2  24
HETATM   24  C   UNL     1      22.000  46.302  48.040  1.00  0.00     0.094 C 
HETATM   25  C   UNL     1      20.880  45.490  48.711  1.00  0.00     0.026 C 
HETATM   26  C   UNL     1      20.016  45.051  47.541  1.00  0.00     0.002 C 
HETATM   27  C   UNL     1      19.986  46.283  46.651  1.00  0.00     0.002 C 
HETATM   28  C   UNL     1      21.386  46.889  46.758  1.00  0.00     0.026 C 
ENDBRANCH   2  24
BRANCH   1  29
HETATM   29  C   UNL     1      21.037  49.192  48.877  1.00  0.00     0.012 A 
HETATM   30  C   UNL     1      19.898  48.830  49.603  1.00  0.00     0.016 A 
HETATM   31  C   UNL     1      18.688  49.516  49.433  1.00  0.00     0.009 A 
HETATM   32  C   UNL     1      18.580  50.601  48.548  1.00  0.00    -0.051 A 
HETATM   33  C   UNL     1      19.730  50.945  47.815  1.00  0.00     0.009 A 
HETATM   34  C   UNL     1      20.940  50.261  47.983  1.00  0.00     0.016 A 
BRANCH  32  35
HETATM   35  C   UNL     1      17.280  51.405  48.374  1.00  0.00    -0.024 C 
HETATM   36  C   UNL     1      17.064  52.480  49.463  1.00  0.00     0.019 C 
HETATM   37  C   UNL     1      16.080  50.438  48.426  1.00  0.00     0.019 C 
HETATM   38  C   UNL     1      17.280  52.142  47.015  1.00  0.00     0.019 C 
ENDBRANCH  32  35
ENDBRANCH   1  29
TORSDOF 7
ENDMDL
MODEL 2
REMARK VINA RESULT:      -9.5      1.474      2.001
REMARK  7 active torsions:
REMARK  status: ('A' for Active; 'I' for Inactive)
REMARK    1  A    between atoms: C_2  and  C_3 
REMARK    2  A    between atoms: C_6  and  C_7 
REMARK    3  A    between atoms: N_8  and  C_9 
REMARK    4  A    between atoms: C_14  and  S_15 
REMARK    5  A    between atoms: S_15  and  C_16 
REMARK    6  A    between atoms: C_16  and  C_17 
REMARK       I    between atoms: C_17  and  N_18 
REMARK    7  A    between atoms: N_18  and  C_19 
ROOT
HETATM    1  C   UNL     1      23.645  48.086  49.225  1.00  0.00     0.164 C 
HETATM    2  N   UNL     1      23.771  46.705  49.236  1.00  0.00    -0.302 N 
HETATM    3  C   UNL     1      24.987  46.476  49.827  1.00  0.00     0.192 C 
HETATM    4  N   UNL     1      25.664  47.597  49.885  1.00  0.00    -0.122 NA
HETATM    5  N   UNL     1      24.825  48.608  49.522  1.00  0.00    -0.128 NA
ENDROOT
BRANCH   3   6
HETATM    6  S   UNL     1      25.516  44.978  50.505  1.00  0.00    -0.081 SA
BRANCH   6   7
HETATM    7  C   UNL     1      24.677  44.987  52.118  1.00  0.00     0.185 C 
BRANCH   7   8
HETATM    8  C   UNL     1      25.597  44.589  53.270  1.00  0.00     0.231 C 
HETATM    9  N   UNL     1      26.925  44.898  53.043  1.00  0.00    -0.326 N 
HETATM   10  H   UNL     1      27.111  45.553  52.281  1.00  0.00     0.169 HD
HETATM   11  O   UNL     1      25.154  44.016  54.263  1.00  0.00    -0.272 OA
BRANCH   9  12
HETATM   12  C   UNL     1      28.054  44.514  53.793  1.00  0.00     0.037 A 
HETATM   13  C   UNL     1      28.474  45.175  54.952  1.00  0.00     0.061 A 
HETATM   14  C   UNL     1      29.556  44.640  55.615  1.00  0.00     0.065 A 
HETATM   15  C   UNL     1      30.225  43.504  55.163  1.00  0.00     0.063 A 
HETATM   16  N   UNL     1      30.167  45.050  56.796  1.00  0.00    -0.306 N 
HETATM   17  N   UNL     1      31.248  43.220  56.062  1.00  0.00    -0.307 N 
HETATM   18  C   UNL     1      29.851  42.841  54.022  1.00  0.00     0.034 A 
HETATM   19  C   UNL     1      31.220  44.172  57.091  1.00  0.00     0.325 A 
HETATM   20  H   UNL     1      31.903  42.458  56.021  1.00  0.00     0.170 HD
HETATM   21  O   UNL     1      31.963  44.221  58.055  1.00  0.00    -0.247 OA
HETATM   22  C   UNL     1      28.745  43.359  53.339  1.00  0.00     0.032 A 
HETATM   23  H   UNL     1      29.907  45.833  57.374  1.00  0.00     0.170 HD
ENDBRANCH   9  12
ENDBRANCH   7   8
ENDBRANCH   6   7
ENDBRANCH   3   6
BRANCH   2  24
HETATM   24  C   UNL     1      22.884  45.767  48.583  1.00  0.00     0.094 C 
HETATM   25  C   UNL     1      23.487  45.042  47.369  1.00  0.00     0.026 C 
HETATM   26  C   UNL     1      22.624  43.799  47.238  1.00  0.00     0.002 C 
HETATM   27  C   UNL     1      22.417  43.367  48.681  1.00  0.00     0.002 C 
HETATM   28  C   UNL     1      22.278  44.668  49.472  1.00  0.00     0.026 C 
ENDBRANCH   2  24
BRANCH   1  29
HETATM   29  C   UNL     1      22.441  48.873  48.961  1.00  0.00     0.012 A 
HETATM   30  C   UNL     1      22.507  50.188  48.492  1.00  0.00     0.016 A 
HETATM   31  C   UNL     1      21.343  50.890  48.150  1.00  0.00     0.009 A 
HETATM   32  C   UNL     1      20.075  50.294  48.246  1.00  0.00    -0.051 A 
HETATM   33  C   UNL     1      20.023  48.975  48.734  1.00  0.00     0.009 A 
HETATM   34  C   UNL     1      21.185  48.273  49.076  1.00  0.00     0.016 A 
BRANCH  32  35
HETATM   35  C   UNL     1      18.783  51.020  47.834  1.00  0.00    -0.024 C 
HETATM   36  C   UNL     1      17.505  50.416  48.457  1.00  0.00     0.019 C 
HETATM   37  C   UNL     1      18.634  50.951  46.300  1.00  0.00     0.019 C 
HETATM   38  C   UNL     1      18.834  52.502  48.273  1.00  0.00     0.019 C 
ENDBRANCH  32  35
ENDBRANCH   1  29
TORSDOF 7
ENDMDL
MODEL 3
REMARK VINA RESULT:      -9.5      3.550     11.744
REMARK  7 active torsions:
REMARK  status: ('A' for Active; 'I' for Inactive)
REMARK    1  A    between atoms: C_2  and  C_3 
REMARK    2  A    between atoms: C_6  and  C_7 
REMARK    3  A    between atoms: N_8  and  C_9 
REMARK    4  A    between atoms: C_14  and  S_15 
REMARK    5  A    between atoms: S_15  and  C_16 
REMARK    6  A    between atoms: C_16  and  C_17 
REMARK       I    between atoms: C_17  and  N_18 
REMARK    7  A    between atoms: N_18  and  C_19 
ROOT
HETATM    1  C   UNL     1      26.613  46.295  53.203  1.00  0.00     0.164 C 
HETATM    2  N   UNL     1      26.128  45.713  52.041  1.00  0.00    -0.302 N 
HETATM    3  C   UNL     1      25.290  46.658  51.509  1.00  0.00     0.192 C 
HETATM    4  N   UNL     1      25.050  47.585  52.404  1.00  0.00    -0.122 NA
HETATM    5  N   UNL     1      25.884  47.369  53.460  1.00  0.00    -0.128 NA
ENDROOT
BRANCH   3   6
HETATM    6  S   UNL     1      24.724  46.704  49.878  1.00  0.00    -0.081 SA
BRANCH   6   7
HETATM    7  C   UNL     1      25.133  48.409  49.394  1.00  0.00     0.185 C 
BRANCH   7   8
HETATM    8  C   UNL     1      23.954  49.148  48.766  1.00  0.00     0.231 C 
HETATM    9  N   UNL     1      22.824  49.156  49.561  1.00  0.00    -0.326 N 
HETATM   10  H   UNL     1      22.962  48.900  50.541  1.00  0.00     0.169 HD
HETATM   11  O   UNL     1      24.043  49.637  47.641  1.00  0.00    -0.272 OA
BRANCH   9  12
HETATM   12  C   UNL     1      21.521  49.575  49.229  1.00  0.00     0.037 A 
HETATM   13  C   UNL     1      20.464  48.693  48.986  1.00  0.00     0.061 A 
HETATM   14  C   UNL     1      19.229  49.254  48.740  1.00  0.00     0.065 A 
HETATM   15  C   UNL     1      19.024  50.632  48.716  1.00  0.00     0.063 A 
HETATM   16  N   UNL     1      18.004  48.638  48.505  1.00  0.00    -0.306 N 
HETATM   17  N   UNL     1      17.677  50.863  48.462  1.00  0.00    -0.307 N 
HETATM   18  C   UNL     1      20.041  51.526  48.934  1.00  0.00     0.034 A 
HETATM   19  C   UNL     1      17.025  49.628  48.335  1.00  0.00     0.325 A 
HETATM   20  H   UNL     1      17.211  51.752  48.394  1.00  0.00     0.170 HD
HETATM   21  O   UNL     1      15.838  49.452  48.124  1.00  0.00    -0.247 OA
HETATM   22  C   UNL     1      21.302  50.979  49.200  1.00  0.00     0.032 A 
HETATM   23  H   UNL     1      17.817  47.649  48.473  1.00  0.00     0.170 HD
ENDBRANCH   9  12
ENDBRANCH   7   8
ENDBRANCH   6   7
ENDBRANCH   3   6
BRANCH   2  24
HETATM   24  C   UNL     1      26.336  44.343  51.629  1.00  0.00     0.094 C 
HETATM   25  C   UNL     1      25.050  43.527  51.419  1.00  0.00     0.026 C 
HETATM   26  C   UNL     1      25.495  42.398  50.506  1.00  0.00     0.002 C 
HETATM   27  C   UNL     1      26.430  43.092  49.528  1.00  0.00     0.002 C 
HETATM   28  C   UNL     1      27.180  44.131  50.361  1.00  0.00     0.026 C 
ENDBRANCH   2  24
BRANCH   1  29
HETATM   29  C   UNL     1      27.742  45.853  54.022  1.00  0.00     0.012 A 
HETATM   30  C   UNL     1      28.356  46.700  54.950  1.00  0.00     0.016 A 
HETATM   31  C   UNL     1      29.369  46.227  55.795  1.00  0.00     0.009 A 
HETATM   32  C   UNL     1      29.788  44.887  55.756  1.00  0.00    -0.051 A 
HETATM   33  C   UNL     1      29.171  44.051  54.808  1.00  0.00     0.009 A 
HETATM   34  C   UNL     1      28.160  44.522  53.962  1.00  0.00     0.016 A 
BRANCH  32  35
HETATM   35  C   UNL     1      30.863  44.325  56.703  1.00  0.00    -0.024 C 
HETATM   36  C   UNL     1      32.310  44.622  56.246  1.00  0.00     0.019 C 
HETATM   37  C   UNL     1      30.704  42.794  56.793  1.00  0.00     0.019 C 
HETATM   38  C   UNL     1      30.709  44.936  58.115  1.00  0.00     0.019 C 
ENDBRANCH  32  35
ENDBRANCH   1  29
TORSDOF 7
ENDMDL
MODEL 4
REMARK VINA RESULT:      -9.3      3.124      3.997
REMARK  7 active torsions:
REMARK  status: ('A' for Active; 'I' for Inactive)
REMARK    1  A    between atoms: C_2  and  C_3 
REMARK    2  A    between atoms: C_6  and  C_7 
REMARK    3  A    between atoms: N_8  and  C_9 
REMARK    4  A    between atoms: C_14  and  S_15 
REMARK    5  A    between atoms: S_15  and  C_16 
REMARK    6  A    between atoms: C_16  and  C_17 
REMARK       I    between atoms: C_17  and  N_18 
REMARK    7  A    between atoms: N_18  and  C_19 
ROOT
HETATM    1  C   UNL     1      21.633  50.045  49.268  1.00  0.00     0.164 C 
HETATM    2  N   UNL     1      21.872  48.719  48.937  1.00  0.00    -0.302 N 
HETATM    3  C   UNL     1      23.150  48.482  49.370  1.00  0.00     0.192 C 
HETATM    4  N   UNL     1      23.736  49.621  49.650  1.00  0.00    -0.122 NA
HETATM    5  N   UNL     1      22.788  50.599  49.600  1.00  0.00    -0.128 NA
ENDROOT
BRANCH   3   6
HETATM    6  S   UNL     1      23.859  46.929  49.628  1.00  0.00    -0.081 SA
BRANCH   6   7
HETATM    7  C   UNL     1      25.614  47.356  49.840  1.00  0.00     0.185 C 
BRANCH   7   8
HETATM    8  C   UNL     1      26.536  46.141  49.755  1.00  0.00     0.231 C 
HETATM    9  N   UNL     1      26.035  45.025  50.399  1.00  0.00    -0.326 N 
HETATM   10  H   UNL     1      25.042  45.051  50.636  1.00  0.00     0.169 HD
HETATM   11  O   UNL     1      27.626  46.214  49.191  1.00  0.00    -0.272 OA
BRANCH   9  12
HETATM   12  C   UNL     1      26.687  43.808  50.678  1.00  0.00     0.037 A 
HETATM   13  C   UNL     1      26.651  42.699  49.826  1.00  0.00     0.061 A 
HETATM   14  C   UNL     1      27.395  41.602  50.202  1.00  0.00     0.065 A 
HETATM   15  C   UNL     1      28.144  41.572  51.377  1.00  0.00     0.063 A 
HETATM   16  N   UNL     1      27.581  40.388  49.549  1.00  0.00    -0.306 N 
HETATM   17  N   UNL     1      28.784  40.340  51.448  1.00  0.00    -0.307 N 
HETATM   18  C   UNL     1      28.189  42.635  52.243  1.00  0.00     0.034 A 
HETATM   19  C   UNL     1      28.449  39.592  50.311  1.00  0.00     0.325 A 
HETATM   20  H   UNL     1      29.406  40.014  52.170  1.00  0.00     0.170 HD
HETATM   21  O   UNL     1      28.841  38.471  50.037  1.00  0.00    -0.247 OA
HETATM   22  C   UNL     1      27.451  43.766  51.875  1.00  0.00     0.032 A 
HETATM   23  H   UNL     1      27.185  40.106  48.668  1.00  0.00     0.170 HD
ENDBRANCH   9  12
ENDBRANCH   7   8
ENDBRANCH   6   7
ENDBRANCH   3   6
BRANCH   2  24
HETATM   24  C   UNL     1      21.007  47.876  48.141  1.00  0.00     0.094 C 
HETATM   25  C   UNL     1      21.724  47.056  47.055  1.00  0.00     0.026 C 
HETATM   26  C   UNL     1      20.755  45.919  46.777  1.00  0.00     0.002 C 
HETATM   27  C   UNL     1      20.248  45.550  48.163  1.00  0.00     0.002 C 
HETATM   28  C   UNL     1      20.128  46.877  48.912  1.00  0.00     0.026 C 
ENDBRANCH   2  24
BRANCH   1  29
HETATM   29  C   UNL     1      20.350  50.747  49.286  1.00  0.00     0.012 A 
HETATM   30  C   UNL     1      20.105  51.857  48.473  1.00  0.00     0.016 A 
HETATM   31  C   UNL     1      18.837  52.452  48.432  1.00  0.00     0.009 A 
HETATM   32  C   UNL     1      17.766  51.946  49.185  1.00  0.00    -0.051 A 
HETATM   33  C   UNL     1      18.031  50.837  50.009  1.00  0.00     0.009 A 
HETATM   34  C   UNL     1      19.297  50.241  50.052  1.00  0.00     0.016 A 
BRANCH  32  35
HETATM   35  C   UNL     1      16.351  52.546  49.125  1.00  0.00    -0.024 C 
HETATM   36  C   UNL     1      15.846  52.804  47.687  1.00  0.00     0.019 C 
HETATM   37  C   UNL     1      16.344  53.895  49.873  1.00  0.00     0.019 C 
HETATM   38  C   UNL     1      15.331  51.592  49.789  1.00  0.00     0.019 C 
ENDBRANCH  32  35
ENDBRANCH   1  29
TORSDOF 7
ENDMDL
MODEL 5
REMARK VINA RESULT:      -9.3      5.282      7.738
REMARK  7 active torsions:
REMARK  status: ('A' for Active; 'I' for Inactive)
REMARK    1  A    between atoms: C_2  and  C_3 
REMARK    2  A    between atoms: C_6  and  C_7 
REMARK    3  A    between atoms: N_8  and  C_9 
REMARK    4  A    between atoms: C_14  and  S_15 
REMARK    5  A    between atoms: S_15  and  C_16 
REMARK    6  A    between atoms: C_16  and  C_17 
REMARK       I    between atoms: C_17  and  N_18 
REMARK    7  A    between atoms: N_18  and  C_19 
ROOT
HETATM    1  C   UNL     1      17.140  51.282  49.472  1.00  0.00     0.164 C 
HETATM    2  N   UNL     1      17.231  50.508  48.325  1.00  0.00    -0.302 N 
HETATM    3  C   UNL     1      18.071  49.481  48.669  1.00  0.00     0.192 C 
HETATM    4  N   UNL     1      18.672  49.767  49.800  1.00  0.00    -0.122 NA
HETATM    5  N   UNL     1      18.084  50.886  50.310  1.00  0.00    -0.128 NA
ENDROOT
BRANCH   3   6
HETATM    6  S   UNL     1      18.238  47.983  47.826  1.00  0.00    -0.081 SA
BRANCH   6   7
HETATM    7  C   UNL     1      19.194  46.995  49.016  1.00  0.00     0.185 C 
BRANCH   7   8
HETATM    8  C   UNL     1      20.700  47.069  48.776  1.00  0.00     0.231 C 
HETATM    9  N   UNL     1      21.273  48.240  49.235  1.00  0.00    -0.326 N 
HETATM   10  H   UNL     1      20.707  48.795  49.879  1.00  0.00     0.169 HD
HETATM   11  O   UNL     1      21.291  46.164  48.190  1.00  0.00    -0.272 OA
BRANCH   9  12
HETATM   12  C   UNL     1      22.580  48.720  49.020  1.00  0.00     0.037 A 
HETATM   13  C   UNL     1      23.720  48.136  49.580  1.00  0.00     0.061 A 
HETATM   14  C   UNL     1      24.936  48.677  49.221  1.00  0.00     0.065 A 
HETATM   15  C   UNL     1      25.047  49.761  48.354  1.00  0.00     0.063 A 
HETATM   16  N   UNL     1      26.223  48.290  49.583  1.00  0.00    -0.306 N 
HETATM   17  N   UNL     1      26.398  50.044  48.186  1.00  0.00    -0.307 N 
HETATM   18  C   UNL     1      23.949  50.368  47.798  1.00  0.00     0.034 A 
HETATM   19  C   UNL     1      27.146  49.129  48.942  1.00  0.00     0.325 A 
HETATM   20  H   UNL     1      26.806  50.763  47.613  1.00  0.00     0.170 HD
HETATM   21  O   UNL     1      28.360  49.073  49.019  1.00  0.00    -0.247 OA
HETATM   22  C   UNL     1      22.703  49.828  48.138  1.00  0.00     0.032 A 
HETATM   23  H   UNL     1      26.480  47.528  50.189  1.00  0.00     0.170 HD
ENDBRANCH   9  12
ENDBRANCH   7   8
ENDBRANCH   6   7
ENDBRANCH   3   6
BRANCH   2  24
HETATM   24  C   UNL     1      16.698  50.852  47.025  1.00  0.00     0.094 C 
HETATM   25  C   UNL     1      15.199  50.561  46.842  1.00  0.00     0.026 C 
HETATM   26  C   UNL     1      14.802  51.474  45.695  1.00  0.00     0.002 C 
HETATM   27  C   UNL     1      15.559  52.758  45.995  1.00  0.00     0.002 C 
HETATM   28  C   UNL     1      16.904  52.304  46.565  1.00  0.00     0.026 C 
ENDBRANCH   2  24
BRANCH   1  29
HETATM   29  C   UNL     1      16.176  52.343  49.761  1.00  0.00     0.012 A 
HETATM   30  C   UNL     1      14.856  52.061  50.126  1.00  0.00     0.016 A 
HETATM   31  C   UNL     1      13.978  53.088  50.498  1.00  0.00     0.009 A 
HETATM   32  C   UNL     1      14.393  54.429  50.537  1.00  0.00    -0.051 A 
HETATM   33  C   UNL     1      15.720  54.699  50.153  1.00  0.00     0.009 A 
HETATM   34  C   UNL     1      16.599  53.674  49.782  1.00  0.00     0.016 A 
BRANCH  32  35
HETATM   35  C   UNL     1      13.468  55.572  50.985  1.00  0.00    -0.024 C 
HETATM   36  C   UNL     1      13.409  55.759  52.519  1.00  0.00     0.019 C 
HETATM   37  C   UNL     1      12.035  55.283  50.494  1.00  0.00     0.019 C 
HETATM   38  C   UNL     1      13.946  56.918  50.392  1.00  0.00     0.019 C 
ENDBRANCH  32  35
ENDBRANCH   1  29
TORSDOF 7
ENDMDL
MODEL 6
REMARK VINA RESULT:      -9.1      1.780      2.651
REMARK  7 active torsions:
REMARK  status: ('A' for Active; 'I' for Inactive)
REMARK    1  A    between atoms: C_2  and  C_3 
REMARK    2  A    between atoms: C_6  and  C_7 
REMARK    3  A    between atoms: N_8  and  C_9 
REMARK    4  A    between atoms: C_14  and  S_15 
REMARK    5  A    between atoms: S_15  and  C_16 
REMARK    6  A    between atoms: C_16  and  C_17 
REMARK       I    between atoms: C_17  and  N_18 
REMARK    7  A    between atoms: N_18  and  C_19 
ROOT
HETATM    1  C   UNL     1      22.035  47.406  48.682  1.00  0.00     0.164 C 
HETATM    2  N   UNL     1      21.880  46.098  48.245  1.00  0.00    -0.302 N 
HETATM    3  C   UNL     1      22.971  45.438  48.748  1.00  0.00     0.192 C 
HETATM    4  N   UNL     1      23.851  46.310  49.178  1.00  0.00    -0.122 NA
HETATM    5  N   UNL     1      23.265  47.540  49.150  1.00  0.00    -0.128 NA
ENDROOT
BRANCH   3   6
HETATM    6  S   UNL     1      23.132  43.726  48.910  1.00  0.00    -0.081 SA
BRANCH   6   7
HETATM    7  C   UNL     1      24.825  43.574  49.556  1.00  0.00     0.185 C 
BRANCH   7   8
HETATM    8  C   UNL     1      24.937  43.966  51.028  1.00  0.00     0.231 C 
HETATM    9  N   UNL     1      25.848  44.980  51.259  1.00  0.00    -0.326 N 
HETATM   10  H   UNL     1      26.150  45.508  50.438  1.00  0.00     0.169 HD
HETATM   11  O   UNL     1      24.286  43.377  51.889  1.00  0.00    -0.272 OA
BRANCH   9  12
HETATM   12  C   UNL     1      26.335  45.456  52.492  1.00  0.00     0.037 A 
HETATM   13  C   UNL     1      27.337  44.815  53.226  1.00  0.00     0.061 A 
HETATM   14  C   UNL     1      27.758  45.439  54.380  1.00  0.00     0.065 A 
HETATM   15  C   UNL     1      27.216  46.644  54.821  1.00  0.00     0.063 A 
HETATM   16  N   UNL     1      28.749  45.065  55.283  1.00  0.00    -0.306 N 
HETATM   17  N   UNL     1      27.868  47.008  55.993  1.00  0.00    -0.307 N 
HETATM   18  C   UNL     1      26.221  47.292  54.134  1.00  0.00     0.034 A 
HETATM   19  C   UNL     1      28.834  46.035  56.291  1.00  0.00     0.325 A 
HETATM   20  H   UNL     1      27.713  47.832  56.550  1.00  0.00     0.170 HD
HETATM   21  O   UNL     1      29.599  46.038  57.239  1.00  0.00    -0.247 OA
HETATM   22  C   UNL     1      25.787  46.684  52.950  1.00  0.00     0.032 A 
HETATM   23  H   UNL     1      29.335  44.247  55.236  1.00  0.00     0.170 HD
ENDBRANCH   9  12
ENDBRANCH   7   8
ENDBRANCH   6   7
ENDBRANCH   3   6
BRANCH   2  24
HETATM   24  C   UNL     1      20.882  45.629  47.310  1.00  0.00     0.094 C 
HETATM   25  C   UNL     1      19.507  45.324  47.929  1.00  0.00     0.026 C 
HETATM   26  C   UNL     1      18.563  45.401  46.742  1.00  0.00     0.002 C 
HETATM   27  C   UNL     1      19.084  46.598  45.961  1.00  0.00     0.002 C 
HETATM   28  C   UNL     1      20.606  46.530  46.095  1.00  0.00     0.026 C 
ENDBRANCH   2  24
BRANCH   1  29
HETATM   29  C   UNL     1      21.038  48.477  48.671  1.00  0.00     0.012 A 
HETATM   30  C   UNL     1      21.134  49.563  47.797  1.00  0.00     0.016 A 
HETATM   31  C   UNL     1      20.117  50.526  47.731  1.00  0.00     0.009 A 
HETATM   32  C   UNL     1      18.961  50.423  48.523  1.00  0.00    -0.051 A 
HETATM   33  C   UNL     1      18.886  49.332  49.408  1.00  0.00     0.009 A 
HETATM   34  C   UNL     1      19.901  48.371  49.474  1.00  0.00     0.016 A 
BRANCH  32  35
HETATM   35  C   UNL     1      17.806  51.436  48.440  1.00  0.00    -0.024 C 
HETATM   36  C   UNL     1      16.407  50.798  48.596  1.00  0.00     0.019 C 
HETATM   37  C   UNL     1      17.850  52.139  47.068  1.00  0.00     0.019 C 
HETATM   38  C   UNL     1      17.938  52.496  49.558  1.00  0.00     0.019 C 
ENDBRANCH  32  35
ENDBRANCH   1  29
TORSDOF 7
ENDMDL
MODEL 7
REMARK VINA RESULT:      -9.0      4.270     10.821
REMARK  7 active torsions:
REMARK  status: ('A' for Active; 'I' for Inactive)
REMARK    1  A    between atoms: C_2  and  C_3 
REMARK    2  A    between atoms: C_6  and  C_7 
REMARK    3  A    between atoms: N_8  and  C_9 
REMARK    4  A    between atoms: C_14  and  S_15 
REMARK    5  A    between atoms: S_15  and  C_16 
REMARK    6  A    between atoms: C_16  and  C_17 
REMARK       I    between atoms: C_17  and  N_18 
REMARK    7  A    between atoms: N_18  and  C_19 
ROOT
HETATM    1  C   UNL     1      24.553  44.353  51.201  1.00  0.00     0.164 C 
HETATM    2  N   UNL     1      24.241  44.936  49.982  1.00  0.00    -0.302 N 
HETATM    3  C   UNL     1      23.263  44.132  49.457  1.00  0.00     0.192 C 
HETATM    4  N   UNL     1      23.207  43.011  50.135  1.00  0.00    -0.122 NA
HETATM    5  N   UNL     1      24.003  43.150  51.233  1.00  0.00    -0.128 NA
ENDROOT
BRANCH   3   6
HETATM    6  S   UNL     1      22.181  44.556  48.180  1.00  0.00    -0.081 SA
BRANCH   6   7
HETATM    7  C   UNL     1      20.747  45.184  49.105  1.00  0.00     0.185 C 
BRANCH   7   8
HETATM    8  C   UNL     1      20.163  46.460  48.503  1.00  0.00     0.231 C 
HETATM    9  N   UNL     1      20.431  47.592  49.250  1.00  0.00    -0.326 N 
HETATM   10  H   UNL     1      21.165  47.502  49.955  1.00  0.00     0.169 HD
HETATM   11  O   UNL     1      19.494  46.423  47.473  1.00  0.00    -0.272 OA
BRANCH   9  12
HETATM   12  C   UNL     1      19.901  48.888  49.098  1.00  0.00     0.037 A 
HETATM   13  C   UNL     1      18.683  49.295  49.653  1.00  0.00     0.061 A 
HETATM   14  C   UNL     1      18.331  50.615  49.476  1.00  0.00     0.065 A 
HETATM   15  C   UNL     1      19.126  51.516  48.770  1.00  0.00     0.063 A 
HETATM   16  N   UNL     1      17.215  51.307  49.937  1.00  0.00    -0.306 N 
HETATM   17  N   UNL     1      18.499  52.756  48.793  1.00  0.00    -0.307 N 
HETATM   18  C   UNL     1      20.318  51.146  48.199  1.00  0.00     0.034 A 
HETATM   19  C   UNL     1      17.308  52.644  49.524  1.00  0.00     0.325 A 
HETATM   20  H   UNL     1      18.825  53.614  48.381  1.00  0.00     0.170 HD
HETATM   21  O   UNL     1      16.513  53.537  49.758  1.00  0.00    -0.247 OA
HETATM   22  C   UNL     1      20.704  49.813  48.378  1.00  0.00     0.032 A 
HETATM   23  H   UNL     1      16.459  50.939  50.491  1.00  0.00     0.170 HD
ENDBRANCH   9  12
ENDBRANCH   7   8
ENDBRANCH   6   7
ENDBRANCH   3   6
BRANCH   2  24
HETATM   24  C   UNL     1      24.950  46.033  49.360  1.00  0.00     0.094 C 
HETATM   25  C   UNL     1      24.408  47.431  49.702  1.00  0.00     0.026 C 
HETATM   26  C   UNL     1      25.588  48.344  49.414  1.00  0.00     0.002 C 
HETATM   27  C   UNL     1      26.774  47.556  49.944  1.00  0.00     0.002 C 
HETATM   28  C   UNL     1      26.466  46.095  49.611  1.00  0.00     0.026 C 
ENDBRANCH   2  24
BRANCH   1  29
HETATM   29  C   UNL     1      25.328  44.931  52.298  1.00  0.00     0.012 A 
HETATM   30  C   UNL     1      26.461  44.296  52.816  1.00  0.00     0.016 A 
HETATM   31  C   UNL     1      27.247  44.914  53.797  1.00  0.00     0.009 A 
HETATM   32  C   UNL     1      26.940  46.197  54.279  1.00  0.00    -0.051 A 
HETATM   33  C   UNL     1      25.790  46.818  53.759  1.00  0.00     0.009 A 
HETATM   34  C   UNL     1      25.003  46.202  52.779  1.00  0.00     0.016 A 
BRANCH  32  35
HETATM   35  C   UNL     1      27.810  46.923  55.320  1.00  0.00    -0.024 C 
HETATM   36  C   UNL     1      28.508  45.972  56.319  1.00  0.00     0.019 C 
HETATM   37  C   UNL     1      26.923  47.888  56.133  1.00  0.00     0.019 C 
HETATM   38  C   UNL     1      28.928  47.730  54.620  1.00  0.00     0.019 C 
ENDBRANCH  32  35
ENDBRANCH   1  29
TORSDOF 7
ENDMDL
MODEL 8
REMARK VINA RESULT:      -8.9     19.697     21.482
REMARK  7 active torsions:
REMARK  status: ('A' for Active; 'I' for Inactive)
REMARK    1  A    between atoms: C_2  and  C_3 
REMARK    2  A    between atoms: C_6  and  C_7 
REMARK    3  A    between atoms: N_8  and  C_9 
REMARK    4  A    between atoms: C_14  and  S_15 
REMARK    5  A    between atoms: S_15  and  C_16 
REMARK    6  A    between atoms: C_16  and  C_17 
REMARK       I    between atoms: C_17  and  N_18 
REMARK    7  A    between atoms: N_18  and  C_19 
ROOT
HETATM    1  C   UNL     1      37.294  46.997  64.832  1.00  0.00     0.164 C 
HETATM    2  N   UNL     1      38.269  46.014  64.744  1.00  0.00    -0.302 N 
HETATM    3  C   UNL     1      37.874  45.232  63.690  1.00  0.00     0.192 C 
HETATM    4  N   UNL     1      36.635  45.522  63.370  1.00  0.00    -0.122 NA
HETATM    5  N   UNL     1      36.273  46.632  64.072  1.00  0.00    -0.128 NA
ENDROOT
BRANCH   3   6
HETATM    6  S   UNL     1      38.872  44.120  62.825  1.00  0.00    -0.081 SA
BRANCH   6   7
HETATM    7  C   UNL     1      38.062  42.534  63.194  1.00  0.00     0.185 C 
BRANCH   7   8
HETATM    8  C   UNL     1      37.459  42.487  64.596  1.00  0.00     0.231 C 
HETATM    9  N   UNL     1      36.138  42.894  64.639  1.00  0.00    -0.326 N 
HETATM   10  H   UNL     1      35.653  42.942  63.742  1.00  0.00     0.169 HD
HETATM   11  O   UNL     1      38.137  42.149  65.564  1.00  0.00    -0.272 OA
BRANCH   9  12
HETATM   12  C   UNL     1      35.337  43.151  65.769  1.00  0.00     0.037 A 
HETATM   13  C   UNL     1      34.149  42.467  66.045  1.00  0.00     0.061 A 
HETATM   14  C   UNL     1      33.511  42.782  67.225  1.00  0.00     0.065 A 
HETATM   15  C   UNL     1      34.000  43.741  68.109  1.00  0.00     0.063 A 
HETATM   16  N   UNL     1      32.350  42.249  67.778  1.00  0.00    -0.306 N 
HETATM   17  N   UNL     1      33.140  43.802  69.200  1.00  0.00    -0.307 N 
HETATM   18  C   UNL     1      35.154  44.442  67.862  1.00  0.00     0.034 A 
HETATM   19  C   UNL     1      32.108  42.871  69.011  1.00  0.00     0.325 A 
HETATM   20  H   UNL     1      33.224  44.389  70.013  1.00  0.00     0.170 HD
HETATM   21  O   UNL     1      31.186  42.645  69.775  1.00  0.00    -0.247 OA
HETATM   22  C   UNL     1      35.827  44.130  66.675  1.00  0.00     0.032 A 
HETATM   23  H   UNL     1      31.769  41.526  67.388  1.00  0.00     0.170 HD
ENDBRANCH   9  12
ENDBRANCH   7   8
ENDBRANCH   6   7
ENDBRANCH   3   6
BRANCH   2  24
HETATM   24  C   UNL     1      39.336  45.791  65.694  1.00  0.00     0.094 C 
HETATM   25  C   UNL     1      40.515  46.772  65.585  1.00  0.00     0.026 C 
HETATM   26  C   UNL     1      41.169  46.688  66.954  1.00  0.00     0.002 C 
HETATM   27  C   UNL     1      39.982  46.627  67.902  1.00  0.00     0.002 C 
HETATM   28  C   UNL     1      38.937  45.776  67.179  1.00  0.00     0.026 C 
ENDBRANCH   2  24
BRANCH   1  29
HETATM   29  C   UNL     1      37.346  48.244  65.595  1.00  0.00     0.012 A 
HETATM   30  C   UNL     1      36.737  48.368  66.847  1.00  0.00     0.016 A 
HETATM   31  C   UNL     1      36.885  49.537  67.606  1.00  0.00     0.009 A 
HETATM   32  C   UNL     1      37.662  50.613  67.148  1.00  0.00    -0.051 A 
HETATM   33  C   UNL     1      38.256  50.480  65.880  1.00  0.00     0.009 A 
HETATM   34  C   UNL     1      38.110  49.313  65.121  1.00  0.00     0.016 A 
BRANCH  32  35
HETATM   35  C   UNL     1      37.882  51.890  67.977  1.00  0.00    -0.024 C 
HETATM   36  C   UNL     1      38.261  53.125  67.128  1.00  0.00     0.019 C 
HETATM   37  C   UNL     1      39.025  51.646  68.984  1.00  0.00     0.019 C 
HETATM   38  C   UNL     1      36.595  52.260  68.750  1.00  0.00     0.019 C 
ENDBRANCH  32  35
ENDBRANCH   1  29
TORSDOF 7
ENDMDL
MODEL 9
REMARK VINA RESULT:      -8.9      4.501     12.277
REMARK  7 active torsions:
REMARK  status: ('A' for Active; 'I' for Inactive)
REMARK    1  A    between atoms: C_2  and  C_3 
REMARK    2  A    between atoms: C_6  and  C_7 
REMARK    3  A    between atoms: N_8  and  C_9 
REMARK    4  A    between atoms: C_14  and  S_15 
REMARK    5  A    between atoms: S_15  and  C_16 
REMARK    6  A    between atoms: C_16  and  C_17 
REMARK       I    between atoms: C_17  and  N_18 
REMARK    7  A    between atoms: N_18  and  C_19 
ROOT
HETATM    1  C   UNL     1      24.480  46.174  49.855  1.00  0.00     0.164 C 
HETATM    2  N   UNL     1      24.509  47.527  49.550  1.00  0.00    -0.302 N 
HETATM    3  C   UNL     1      23.310  47.764  48.930  1.00  0.00     0.192 C 
HETATM    4  N   UNL     1      22.747  46.623  48.613  1.00  0.00    -0.122 NA
HETATM    5  N   UNL     1      23.468  45.627  49.200  1.00  0.00    -0.128 NA
ENDROOT
BRANCH   3   6
HETATM    6  S   UNL     1      22.579  49.312  48.699  1.00  0.00    -0.081 SA
BRANCH   6   7
HETATM    7  C   UNL     1      20.828  48.945  49.030  1.00  0.00     0.185 C 
BRANCH   7   8
HETATM    8  C   UNL     1      19.968  50.202  49.141  1.00  0.00     0.231 C 
HETATM    9  N   UNL     1      18.612  49.937  49.192  1.00  0.00    -0.326 N 
HETATM   10  H   UNL     1      18.351  48.970  49.393  1.00  0.00     0.169 HD
HETATM   11  O   UNL     1      20.481  51.320  49.143  1.00  0.00    -0.272 OA
BRANCH   9  12
HETATM   12  C   UNL     1      17.538  50.845  49.110  1.00  0.00     0.037 A 
HETATM   13  C   UNL     1      17.288  51.835  50.065  1.00  0.00     0.061 A 
HETATM   14  C   UNL     1      16.240  52.693  49.812  1.00  0.00     0.065 A 
HETATM   15  C   UNL     1      15.446  52.589  48.671  1.00  0.00     0.063 A 
HETATM   16  N   UNL     1      15.783  53.780  50.549  1.00  0.00    -0.306 N 
HETATM   17  N   UNL     1      14.500  53.607  48.710  1.00  0.00    -0.307 N 
HETATM   18  C   UNL     1      15.653  51.621  47.722  1.00  0.00     0.034 A 
HETATM   19  C   UNL     1      14.702  54.365  49.873  1.00  0.00     0.325 A 
HETATM   20  H   UNL     1      13.789  53.808  48.027  1.00  0.00     0.170 HD
HETATM   21  O   UNL     1      14.065  55.342  50.222  1.00  0.00    -0.247 OA
HETATM   22  C   UNL     1      16.722  50.746  47.951  1.00  0.00     0.032 A 
HETATM   23  H   UNL     1      16.157  54.124  51.418  1.00  0.00     0.170 HD
ENDBRANCH   9  12
ENDBRANCH   7   8
ENDBRANCH   6   7
ENDBRANCH   3   6
BRANCH   2  24
HETATM   24  C   UNL     1      25.649  48.405  49.697  1.00  0.00     0.094 C 
HETATM   25  C   UNL     1      27.005  47.770  49.346  1.00  0.00     0.026 C 
HETATM   26  C   UNL     1      27.888  48.970  49.050  1.00  0.00     0.002 C 
HETATM   27  C   UNL     1      26.966  49.895  48.272  1.00  0.00     0.002 C 
HETATM   28  C   UNL     1      25.593  49.733  48.924  1.00  0.00     0.026 C 
ENDBRANCH   2  24
BRANCH   1  29
HETATM   29  C   UNL     1      25.370  45.440  50.753  1.00  0.00     0.012 A 
HETATM   30  C   UNL     1      26.225  44.437  50.286  1.00  0.00     0.016 A 
HETATM   31  C   UNL     1      27.143  43.816  51.145  1.00  0.00     0.009 A 
HETATM   32  C   UNL     1      27.251  44.190  52.494  1.00  0.00    -0.051 A 
HETATM   33  C   UNL     1      26.375  45.190  52.953  1.00  0.00     0.009 A 
HETATM   34  C   UNL     1      25.458  45.811  52.097  1.00  0.00     0.016 A 
BRANCH  32  35
HETATM   35  C   UNL     1      28.280  43.562  53.450  1.00  0.00    -0.024 C 
HETATM   36  C   UNL     1      27.798  42.247  54.105  1.00  0.00     0.019 C 
HETATM   37  C   UNL     1      28.592  44.562  54.582  1.00  0.00     0.019 C 
HETATM   38  C   UNL     1      29.586  43.229  52.692  1.00  0.00     0.019 C 
ENDBRANCH  32  35
ENDBRANCH   1  29
TORSDOF 7
ENDMDL
MODEL 10
REMARK VINA RESULT:      -8.8      2.206      3.938
REMARK  7 active torsions:
REMARK  status: ('A' for Active; 'I' for Inactive)
REMARK    1  A    between atoms: C_2  and  C_3 
REMARK    2  A    between atoms: C_6  and  C_7 
REMARK    3  A    between atoms: N_8  and  C_9 
REMARK    4  A    between atoms: C_14  and  S_15 
REMARK    5  A    between atoms: S_15  and  C_16 
REMARK    6  A    between atoms: C_16  and  C_17 
REMARK       I    between atoms: C_17  and  N_18 
REMARK    7  A    between atoms: N_18  and  C_19 
ROOT
HETATM    1  C   UNL     1      19.796  48.341  47.128  1.00  0.00     0.164 C 
HETATM    2  N   UNL     1      20.614  48.654  48.203  1.00  0.00    -0.302 N 
HETATM    3  C   UNL     1      21.664  47.779  48.101  1.00  0.00     0.192 C 
HETATM    4  N   UNL     1      21.365  46.833  47.242  1.00  0.00    -0.122 NA
HETATM    5  N   UNL     1      20.204  47.188  46.624  1.00  0.00    -0.128 NA
ENDROOT
BRANCH   3   6
HETATM    6  S   UNL     1      23.198  47.943  48.879  1.00  0.00    -0.081 SA
BRANCH   6   7
HETATM    7  C   UNL     1      23.580  46.216  49.306  1.00  0.00     0.185 C 
BRANCH   7   8
HETATM    8  C   UNL     1      24.875  46.074  50.101  1.00  0.00     0.231 C 
HETATM    9  N   UNL     1      24.673  45.960  51.464  1.00  0.00    -0.326 N 
HETATM   10  H   UNL     1      23.721  45.740  51.760  1.00  0.00     0.169 HD
HETATM   11  O   UNL     1      25.968  46.103  49.539  1.00  0.00    -0.272 OA
BRANCH   9  12
HETATM   12  C   UNL     1      25.629  45.999  52.498  1.00  0.00     0.037 A 
HETATM   13  C   UNL     1      26.496  44.941  52.790  1.00  0.00     0.061 A 
HETATM   14  C   UNL     1      27.424  45.154  53.786  1.00  0.00     0.065 A 
HETATM   15  C   UNL     1      27.503  46.353  54.492  1.00  0.00     0.063 A 
HETATM   16  N   UNL     1      28.425  44.314  54.263  1.00  0.00    -0.306 N 
HETATM   17  N   UNL     1      28.547  46.248  55.404  1.00  0.00    -0.307 N 
HETATM   18  C   UNL     1      26.659  47.405  54.243  1.00  0.00     0.034 A 
HETATM   19  C   UNL     1      29.138  44.983  55.268  1.00  0.00     0.325 A 
HETATM   20  H   UNL     1      28.865  46.949  56.053  1.00  0.00     0.170 HD
HETATM   21  O   UNL     1      30.088  44.555  55.899  1.00  0.00    -0.247 OA
HETATM   22  C   UNL     1      25.716  47.217  53.225  1.00  0.00     0.032 A 
HETATM   23  H   UNL     1      28.637  43.382  53.947  1.00  0.00     0.170 HD
ENDBRANCH   9  12
ENDBRANCH   7   8
ENDBRANCH   6   7
ENDBRANCH   3   6
BRANCH   2  24
HETATM   24  C   UNL     1      20.294  49.571  49.275  1.00  0.00     0.094 C 
HETATM   25  C   UNL     1      20.248  51.053  48.866  1.00  0.00     0.026 C 
HETATM   26  C   UNL     1      19.392  51.689  49.948  1.00  0.00     0.002 C 
HETATM   27  C   UNL     1      18.294  50.661  50.171  1.00  0.00     0.002 C 
HETATM   28  C   UNL     1      18.985  49.303  50.035  1.00  0.00     0.026 C 
ENDBRANCH   2  24
BRANCH   1  29
HETATM   29  C   UNL     1      18.683  49.124  46.593  1.00  0.00     0.012 A 
HETATM   30  C   UNL     1      17.361  48.891  46.985  1.00  0.00     0.016 A 
HETATM   31  C   UNL     1      16.322  49.718  46.539  1.00  0.00     0.009 A 
HETATM   32  C   UNL     1      16.570  50.818  45.701  1.00  0.00    -0.051 A 
HETATM   33  C   UNL     1      17.902  51.032  45.304  1.00  0.00     0.009 A 
HETATM   34  C   UNL     1      18.942  50.206  45.749  1.00  0.00     0.016 A 
BRANCH  32  35
HETATM   35  C   UNL     1      15.458  51.773  45.233  1.00  0.00    -0.024 C 
HETATM   36  C   UNL     1      14.183  51.049  44.744  1.00  0.00     0.019 C 
HETATM   37  C   UNL     1      15.988  52.629  44.065  1.00  0.00     0.019 C 
HETATM   38  C   UNL     1      15.025  52.704  46.389  1.00  0.00     0.019 C 
ENDBRANCH  32  35
ENDBRANCH   1  29
TORSDOF 7
ENDMDL
