MODEL 1
REMARK VINA RESULT:      -9.3      0.000      0.000
REMARK  6 active torsions:
REMARK  status: ('A' for Active; 'I' for Inactive)
REMARK    1  A    between atoms: C_2  and  C_3 
REMARK    2  A    between atoms: C_3  and  C_4 
REMARK    3  A    between atoms: C_3  and  C_10 
REMARK    4  A    between atoms: C_10  and  C_11 
REMARK       I    between atoms: C_11  and  N_12 
REMARK    5  A    between atoms: N_12  and  C_13 
REMARK    6  A    between atoms: C_20  and  C_21 
REMARK       I    between atoms: C_21  and  N_22 
ROOT
HETATM    1  C   UNL     1      27.571  41.898  51.239  1.00  0.00     0.035 A 
HETATM    2  C   UNL     1      28.218  40.655  51.185  1.00  0.00     0.046 A 
HETATM    3  C   UNL     1      28.257  39.941  49.966  1.00  0.00     0.030 A 
HETATM    4  C   UNL     1      27.656  40.498  48.844  1.00  0.00     0.063 A 
HETATM    5  N   UNL     1      27.856  39.595  47.838  1.00  0.00    -0.277 N 
HETATM    6  H   UNL     1      27.553  39.671  46.874  1.00  0.00     0.189 HD
HETATM    7  N   UNL     1      28.530  38.493  48.206  1.00  0.00    -0.168 NA
HETATM    8  C   UNL     1      28.785  38.692  49.521  1.00  0.00     0.156 A 
HETATM    9  C   UNL     1      27.006  41.733  48.860  1.00  0.00     0.034 A 
HETATM   10  C   UNL     1      26.974  42.417  50.082  1.00  0.00     0.032 A 
ENDROOT
BRANCH   1  11
HETATM   11  N   UNL     1      27.456  42.673  52.412  1.00  0.00    -0.327 N 
HETATM   12  C   UNL     1      28.453  43.387  53.054  1.00  0.00     0.222 C 
HETATM   13  O   UNL     1      29.609  43.537  52.678  1.00  0.00    -0.273 OA
HETATM   14  H   UNL     1      26.531  42.724  52.820  1.00  0.00     0.169 HD
BRANCH  12  15
HETATM   15  C   UNL     1      27.985  43.991  54.366  1.00  0.00     0.112 C 
BRANCH  15  16
HETATM   16  C   UNL     1      28.814  45.233  54.741  1.00  0.00     0.027 C 
BRANCH  16  17
HETATM   17  C   UNL     1      27.972  46.520  54.912  1.00  0.00     0.005 C 
HETATM   18  C   UNL     1      26.820  46.693  53.931  1.00  0.00     0.006 C 
ENDBRANCH  16  17
BRANCH  16  19
HETATM   19  C   UNL     1      29.730  45.001  55.936  1.00  0.00    -0.054 A 
HETATM   20  C   UNL     1      30.678  43.967  55.972  1.00  0.00     0.007 A 
HETATM   21  C   UNL     1      31.491  43.783  57.093  1.00  0.00     0.001 A 
HETATM   22  C   UNL     1      31.368  44.626  58.194  1.00  0.00     0.000 A 
HETATM   23  C   UNL     1      30.426  45.651  58.179  1.00  0.00     0.001 A 
HETATM   24  C   UNL     1      29.611  45.835  57.061  1.00  0.00     0.007 A 
ENDBRANCH  16  19
ENDBRANCH  15  16
ENDBRANCH  12  15
ENDBRANCH   1  11
BRANCH   8  25
HETATM   25  C   UNL     1      29.514  37.692  50.312  1.00  0.00     0.270 C 
HETATM   26  N   UNL     1      28.734  36.663  50.767  1.00  0.00    -0.365 N 
HETATM   27  H   UNL     1      27.747  36.666  50.540  1.00  0.00     0.159 HD
HETATM   28  H   UNL     1      29.148  35.933  51.325  1.00  0.00     0.159 HD
HETATM   29  O   UNL     1      30.713  37.739  50.568  1.00  0.00    -0.266 OA
ENDBRANCH   8  25
TORSDOF 6
ENDMDL
MODEL 2
REMARK VINA RESULT:      -9.2      5.376      7.783
REMARK  6 active torsions:
REMARK  status: ('A' for Active; 'I' for Inactive)
REMARK    1  A    between atoms: C_2  and  C_3 
REMARK    2  A    between atoms: C_3  and  C_4 
REMARK    3  A    between atoms: C_3  and  C_10 
REMARK    4  A    between atoms: C_10  and  C_11 
REMARK       I    between atoms: C_11  and  N_12 
REMARK    5  A    between atoms: N_12  and  C_13 
REMARK    6  A    between atoms: C_20  and  C_21 
REMARK       I    between atoms: C_21  and  N_22 
ROOT
HETATM    1  C   UNL     1      25.951  47.327  50.224  1.00  0.00     0.035 A 
HETATM    2  C   UNL     1      24.634  47.512  49.780  1.00  0.00     0.046 A 
HETATM    3  C   UNL     1      24.339  48.580  48.902  1.00  0.00     0.030 A 
HETATM    4  C   UNL     1      25.369  49.417  48.494  1.00  0.00     0.063 A 
HETATM    5  N   UNL     1      24.786  50.333  47.664  1.00  0.00    -0.277 N 
HETATM    6  H   UNL     1      25.240  51.100  47.180  1.00  0.00     0.189 HD
HETATM    7  N   UNL     1      23.463  50.172  47.498  1.00  0.00    -0.168 NA
HETATM    8  C   UNL     1      23.171  49.091  48.259  1.00  0.00     0.156 A 
HETATM    9  C   UNL     1      26.691  49.261  48.914  1.00  0.00     0.034 A 
HETATM   10  C   UNL     1      26.957  48.201  49.789  1.00  0.00     0.032 A 
ENDROOT
BRANCH   1  11
HETATM   11  N   UNL     1      26.341  46.308  51.120  1.00  0.00    -0.327 N 
HETATM   12  C   UNL     1      26.869  45.068  50.810  1.00  0.00     0.222 C 
HETATM   13  O   UNL     1      27.165  44.651  49.697  1.00  0.00    -0.273 OA
HETATM   14  H   UNL     1      26.236  46.521  52.104  1.00  0.00     0.169 HD
BRANCH  12  15
HETATM   15  C   UNL     1      27.042  44.186  52.034  1.00  0.00     0.112 C 
BRANCH  15  16
HETATM   16  C   UNL     1      27.176  45.025  53.318  1.00  0.00     0.027 C 
BRANCH  16  17
HETATM   17  C   UNL     1      25.896  45.051  54.185  1.00  0.00     0.005 C 
HETATM   18  C   UNL     1      25.544  43.747  54.889  1.00  0.00     0.006 C 
ENDBRANCH  16  17
BRANCH  16  19
HETATM   19  C   UNL     1      28.403  44.662  54.144  1.00  0.00    -0.054 A 
HETATM   20  C   UNL     1      28.837  45.435  55.232  1.00  0.00     0.007 A 
HETATM   21  C   UNL     1      29.975  45.071  55.957  1.00  0.00     0.001 A 
HETATM   22  C   UNL     1      30.697  43.933  55.605  1.00  0.00     0.000 A 
HETATM   23  C   UNL     1      30.285  43.160  54.522  1.00  0.00     0.001 A 
HETATM   24  C   UNL     1      29.149  43.523  53.796  1.00  0.00     0.007 A 
ENDBRANCH  16  19
ENDBRANCH  15  16
ENDBRANCH  12  15
ENDBRANCH   1  11
BRANCH   8  25
HETATM   25  C   UNL     1      21.796  48.581  48.355  1.00  0.00     0.270 C 
HETATM   26  N   UNL     1      21.213  48.775  49.578  1.00  0.00    -0.365 N 
HETATM   27  H   UNL     1      21.751  49.235  50.303  1.00  0.00     0.159 HD
HETATM   28  H   UNL     1      20.273  48.451  49.739  1.00  0.00     0.159 HD
HETATM   29  O   UNL     1      21.192  48.021  47.446  1.00  0.00    -0.266 OA
ENDBRANCH   8  25
TORSDOF 6
ENDMDL
MODEL 3
REMARK VINA RESULT:      -8.9      5.433      7.875
REMARK  6 active torsions:
REMARK  status: ('A' for Active; 'I' for Inactive)
REMARK    1  A    between atoms: C_2  and  C_3 
REMARK    2  A    between atoms: C_3  and  C_4 
REMARK    3  A    between atoms: C_3  and  C_10 
REMARK    4  A    between atoms: C_10  and  C_11 
REMARK       I    between atoms: C_11  and  N_12 
REMARK    5  A    between atoms: N_12  and  C_13 
REMARK    6  A    between atoms: C_20  and  C_21 
REMARK       I    between atoms: C_21  and  N_22 
ROOT
HETATM    1  C   UNL     1      25.928  47.602  50.416  1.00  0.00     0.035 A 
HETATM    2  C   UNL     1      24.621  47.795  49.946  1.00  0.00     0.046 A 
HETATM    3  C   UNL     1      24.378  48.751  48.934  1.00  0.00     0.030 A 
HETATM    4  C   UNL     1      25.449  49.472  48.423  1.00  0.00     0.063 A 
HETATM    5  N   UNL     1      24.911  50.299  47.477  1.00  0.00    -0.277 N 
HETATM    6  H   UNL     1      25.402  50.971  46.897  1.00  0.00     0.189 HD
HETATM    7  N   UNL     1      23.581  50.186  47.330  1.00  0.00    -0.168 NA
HETATM    8  C   UNL     1      23.236  49.232  48.226  1.00  0.00     0.156 A 
HETATM    9  C   UNL     1      26.762  49.305  48.864  1.00  0.00     0.034 A 
HETATM   10  C   UNL     1      26.977  48.357  49.872  1.00  0.00     0.032 A 
ENDROOT
BRANCH   1  11
HETATM   11  N   UNL     1      26.268  46.692  51.439  1.00  0.00    -0.327 N 
HETATM   12  C   UNL     1      25.929  46.761  52.778  1.00  0.00     0.222 C 
HETATM   13  O   UNL     1      25.204  47.592  53.312  1.00  0.00    -0.273 OA
HETATM   14  H   UNL     1      26.810  45.886  51.152  1.00  0.00     0.169 HD
BRANCH  12  15
HETATM   15  C   UNL     1      26.588  45.670  53.604  1.00  0.00     0.112 C 
BRANCH  15  16
HETATM   16  C   UNL     1      27.734  46.232  54.466  1.00  0.00     0.027 C 
BRANCH  16  17
HETATM   17  C   UNL     1      27.257  46.979  55.733  1.00  0.00     0.005 C 
HETATM   18  C   UNL     1      27.191  48.497  55.623  1.00  0.00     0.006 C 
ENDBRANCH  16  17
BRANCH  16  19
HETATM   19  C   UNL     1      28.797  45.192  54.797  1.00  0.00    -0.054 A 
HETATM   20  C   UNL     1      29.703  45.349  55.857  1.00  0.00     0.007 A 
HETATM   21  C   UNL     1      30.670  44.375  56.120  1.00  0.00     0.001 A 
HETATM   22  C   UNL     1      30.748  43.233  55.328  1.00  0.00     0.000 A 
HETATM   23  C   UNL     1      29.862  43.066  54.266  1.00  0.00     0.001 A 
HETATM   24  C   UNL     1      28.897  44.038  54.002  1.00  0.00     0.007 A 
ENDBRANCH  16  19
ENDBRANCH  15  16
ENDBRANCH  12  15
ENDBRANCH   1  11
BRANCH   8  25
HETATM   25  C   UNL     1      21.837  48.811  48.385  1.00  0.00     0.270 C 
HETATM   26  N   UNL     1      21.356  48.941  49.659  1.00  0.00    -0.365 N 
HETATM   27  H   UNL     1      21.975  49.300  50.376  1.00  0.00     0.159 HD
HETATM   28  H   UNL     1      20.408  48.670  49.864  1.00  0.00     0.159 HD
HETATM   29  O   UNL     1      21.131  48.373  47.482  1.00  0.00    -0.266 OA
ENDBRANCH   8  25
TORSDOF 6
ENDMDL
MODEL 4
REMARK VINA RESULT:      -8.7      4.180      6.145
REMARK  6 active torsions:
REMARK  status: ('A' for Active; 'I' for Inactive)
REMARK    1  A    between atoms: C_2  and  C_3 
REMARK    2  A    between atoms: C_3  and  C_4 
REMARK    3  A    between atoms: C_3  and  C_10 
REMARK    4  A    between atoms: C_10  and  C_11 
REMARK       I    between atoms: C_11  and  N_12 
REMARK    5  A    between atoms: N_12  and  C_13 
REMARK    6  A    between atoms: C_20  and  C_21 
REMARK       I    between atoms: C_21  and  N_22 
ROOT
HETATM    1  C   UNL     1      25.254  44.601  51.745  1.00  0.00     0.035 A 
HETATM    2  C   UNL     1      24.798  45.827  51.239  1.00  0.00     0.046 A 
HETATM    3  C   UNL     1      24.043  45.850  50.044  1.00  0.00     0.030 A 
HETATM    4  C   UNL     1      23.765  44.649  49.404  1.00  0.00     0.063 A 
HETATM    5  N   UNL     1      23.032  44.986  48.301  1.00  0.00    -0.277 N 
HETATM    6  H   UNL     1      22.653  44.360  47.600  1.00  0.00     0.189 HD
HETATM    7  N   UNL     1      22.812  46.304  48.160  1.00  0.00    -0.168 NA
HETATM    8  C   UNL     1      23.432  46.852  49.231  1.00  0.00     0.156 A 
HETATM    9  C   UNL     1      24.200  43.411  49.881  1.00  0.00     0.034 A 
HETATM   10  C   UNL     1      24.952  43.415  51.062  1.00  0.00     0.032 A 
ENDROOT
BRANCH   1  11
HETATM   11  N   UNL     1      26.034  44.477  52.914  1.00  0.00    -0.327 N 
HETATM   12  C   UNL     1      27.398  44.261  53.001  1.00  0.00     0.222 C 
HETATM   13  O   UNL     1      28.195  44.211  52.073  1.00  0.00    -0.273 OA
HETATM   14  H   UNL     1      25.536  44.575  53.790  1.00  0.00     0.169 HD
BRANCH  12  15
HETATM   15  C   UNL     1      27.865  44.049  54.430  1.00  0.00     0.112 C 
BRANCH  15  16
HETATM   16  C   UNL     1      28.673  45.255  54.944  1.00  0.00     0.027 C 
BRANCH  16  17
HETATM   17  C   UNL     1      27.797  46.430  55.438  1.00  0.00     0.005 C 
HETATM   18  C   UNL     1      27.840  47.693  54.587  1.00  0.00     0.006 C 
ENDBRANCH  16  17
BRANCH  16  19
HETATM   19  C   UNL     1      29.728  44.873  55.974  1.00  0.00    -0.054 A 
HETATM   20  C   UNL     1      29.920  45.596  57.161  1.00  0.00     0.007 A 
HETATM   21  C   UNL     1      30.908  45.216  58.075  1.00  0.00     0.001 A 
HETATM   22  C   UNL     1      31.717  44.113  57.815  1.00  0.00     0.000 A 
HETATM   23  C   UNL     1      31.544  43.391  56.638  1.00  0.00     0.001 A 
HETATM   24  C   UNL     1      30.560  43.769  55.723  1.00  0.00     0.007 A 
ENDBRANCH  16  19
ENDBRANCH  15  16
ENDBRANCH  12  15
ENDBRANCH   1  11
BRANCH   8  25
HETATM   25  C   UNL     1      23.431  48.305  49.447  1.00  0.00     0.270 C 
HETATM   26  N   UNL     1      22.186  48.840  49.643  1.00  0.00    -0.365 N 
HETATM   27  H   UNL     1      21.385  48.221  49.623  1.00  0.00     0.159 HD
HETATM   28  H   UNL     1      22.088  49.831  49.792  1.00  0.00     0.159 HD
HETATM   29  O   UNL     1      24.433  49.013  49.453  1.00  0.00    -0.266 OA
ENDBRANCH   8  25
TORSDOF 6
ENDMDL
MODEL 5
REMARK VINA RESULT:      -8.7      1.740      2.070
REMARK  6 active torsions:
REMARK  status: ('A' for Active; 'I' for Inactive)
REMARK    1  A    between atoms: C_2  and  C_3 
REMARK    2  A    between atoms: C_3  and  C_4 
REMARK    3  A    between atoms: C_3  and  C_10 
REMARK    4  A    between atoms: C_10  and  C_11 
REMARK       I    between atoms: C_11  and  N_12 
REMARK    5  A    between atoms: N_12  and  C_13 
REMARK    6  A    between atoms: C_20  and  C_21 
REMARK       I    between atoms: C_21  and  N_22 
ROOT
HETATM    1  C   UNL     1      27.065  43.383  51.700  1.00  0.00     0.035 A 
HETATM    2  C   UNL     1      27.252  42.040  51.344  1.00  0.00     0.046 A 
HETATM    3  C   UNL     1      26.978  41.624  50.021  1.00  0.00     0.030 A 
HETATM    4  C   UNL     1      26.535  42.566  49.101  1.00  0.00     0.063 A 
HETATM    5  N   UNL     1      26.362  41.878  47.933  1.00  0.00    -0.277 N 
HETATM    6  H   UNL     1      26.046  42.248  47.043  1.00  0.00     0.189 HD
HETATM    7  N   UNL     1      26.646  40.568  48.010  1.00  0.00    -0.168 NA
HETATM    8  C   UNL     1      27.028  40.395  49.297  1.00  0.00     0.156 A 
HETATM    9  C   UNL     1      26.341  43.911  49.419  1.00  0.00     0.034 A 
HETATM   10  C   UNL     1      26.612  44.297  50.737  1.00  0.00     0.032 A 
ENDROOT
BRANCH   1  11
HETATM   11  N   UNL     1      27.287  43.890  52.998  1.00  0.00    -0.327 N 
HETATM   12  C   UNL     1      26.337  44.273  53.928  1.00  0.00     0.222 C 
HETATM   13  O   UNL     1      25.121  44.174  53.823  1.00  0.00    -0.273 OA
HETATM   14  H   UNL     1      28.255  43.963  53.284  1.00  0.00     0.169 HD
BRANCH  12  15
HETATM   15  C   UNL     1      26.955  44.895  55.168  1.00  0.00     0.112 C 
BRANCH  15  16
HETATM   16  C   UNL     1      28.329  45.519  54.861  1.00  0.00     0.027 C 
BRANCH  16  17
HETATM   17  C   UNL     1      28.336  47.065  54.892  1.00  0.00     0.005 C 
HETATM   18  C   UNL     1      26.980  47.730  55.092  1.00  0.00     0.006 C 
ENDBRANCH  16  17
BRANCH  16  19
HETATM   19  C   UNL     1      29.452  44.938  55.710  1.00  0.00    -0.054 A 
HETATM   20  C   UNL     1      30.165  43.788  55.335  1.00  0.00     0.007 A 
HETATM   21  C   UNL     1      31.182  43.282  56.149  1.00  0.00     0.001 A 
HETATM   22  C   UNL     1      31.499  43.914  57.349  1.00  0.00     0.000 A 
HETATM   23  C   UNL     1      30.796  45.050  57.740  1.00  0.00     0.001 A 
HETATM   24  C   UNL     1      29.779  45.556  56.928  1.00  0.00     0.007 A 
ENDBRANCH  16  19
ENDBRANCH  15  16
ENDBRANCH  12  15
ENDBRANCH   1  11
BRANCH   8  25
HETATM   25  C   UNL     1      27.423  39.072  49.800  1.00  0.00     0.270 C 
HETATM   26  N   UNL     1      26.374  38.291  50.201  1.00  0.00    -0.365 N 
HETATM   27  H   UNL     1      25.436  38.666  50.131  1.00  0.00     0.159 HD
HETATM   28  H   UNL     1      26.550  37.369  50.567  1.00  0.00     0.159 HD
HETATM   29  O   UNL     1      28.579  38.667  49.873  1.00  0.00    -0.266 OA
ENDBRANCH   8  25
TORSDOF 6
ENDMDL
MODEL 6
REMARK VINA RESULT:      -8.6      4.165      8.215
REMARK  6 active torsions:
REMARK  status: ('A' for Active; 'I' for Inactive)
REMARK    1  A    between atoms: C_2  and  C_3 
REMARK    2  A    between atoms: C_3  and  C_4 
REMARK    3  A    between atoms: C_3  and  C_10 
REMARK    4  A    between atoms: C_10  and  C_11 
REMARK       I    between atoms: C_11  and  N_12 
REMARK    5  A    between atoms: N_12  and  C_13 
REMARK    6  A    between atoms: C_20  and  C_21 
REMARK       I    between atoms: C_21  and  N_22 
ROOT
HETATM    1  C   UNL     1      28.160  44.556  53.625  1.00  0.00     0.035 A 
HETATM    2  C   UNL     1      28.501  45.124  54.861  1.00  0.00     0.046 A 
HETATM    3  C   UNL     1      29.580  44.590  55.600  1.00  0.00     0.030 A 
HETATM    4  C   UNL     1      30.284  43.514  55.075  1.00  0.00     0.063 A 
HETATM    5  N   UNL     1      31.251  43.227  55.997  1.00  0.00    -0.277 N 
HETATM    6  H   UNL     1      31.953  42.497  55.945  1.00  0.00     0.189 HD
HETATM    7  N   UNL     1      31.237  44.018  57.083  1.00  0.00    -0.168 NA
HETATM    8  C   UNL     1      30.208  44.866  56.852  1.00  0.00     0.156 A 
HETATM    9  C   UNL     1      29.974  42.925  53.848  1.00  0.00     0.034 A 
HETATM   10  C   UNL     1      28.896  43.468  53.138  1.00  0.00     0.032 A 
ENDROOT
BRANCH   1  11
HETATM   11  N   UNL     1      27.085  45.001  52.826  1.00  0.00    -0.327 N 
HETATM   12  C   UNL     1      25.738  44.734  52.997  1.00  0.00     0.222 C 
HETATM   13  O   UNL     1      25.221  44.117  53.920  1.00  0.00    -0.273 OA
HETATM   14  H   UNL     1      27.331  45.600  52.049  1.00  0.00     0.169 HD
BRANCH  12  15
HETATM   15  C   UNL     1      24.888  45.274  51.861  1.00  0.00     0.112 C 
BRANCH  15  16
HETATM   16  C   UNL     1      25.723  45.484  50.583  1.00  0.00     0.027 C 
BRANCH  16  17
HETATM   17  C   UNL     1      25.564  44.353  49.539  1.00  0.00     0.005 C 
HETATM   18  C   UNL     1      26.612  43.249  49.591  1.00  0.00     0.006 C 
ENDBRANCH  16  17
BRANCH  16  19
HETATM   19  C   UNL     1      25.521  46.857  49.956  1.00  0.00    -0.054 A 
HETATM   20  C   UNL     1      26.594  47.682  49.584  1.00  0.00     0.007 A 
HETATM   21  C   UNL     1      26.364  48.940  49.020  1.00  0.00     0.001 A 
HETATM   22  C   UNL     1      25.062  49.393  48.824  1.00  0.00     0.000 A 
HETATM   23  C   UNL     1      23.987  48.590  49.196  1.00  0.00     0.001 A 
HETATM   24  C   UNL     1      24.215  47.334  49.760  1.00  0.00     0.007 A 
ENDBRANCH  16  19
ENDBRANCH  15  16
ENDBRANCH  12  15
ENDBRANCH   1  11
BRANCH   8  25
HETATM   25  C   UNL     1      29.849  45.906  57.826  1.00  0.00     0.270 C 
HETATM   26  N   UNL     1      30.906  46.371  58.561  1.00  0.00    -0.365 N 
HETATM   27  H   UNL     1      31.824  45.978  58.391  1.00  0.00     0.159 HD
HETATM   28  H   UNL     1      30.754  47.081  59.259  1.00  0.00     0.159 HD
HETATM   29  O   UNL     1      28.716  46.343  57.999  1.00  0.00    -0.266 OA
ENDBRANCH   8  25
TORSDOF 6
ENDMDL
MODEL 7
REMARK VINA RESULT:      -8.4      2.554      4.697
REMARK  6 active torsions:
REMARK  status: ('A' for Active; 'I' for Inactive)
REMARK    1  A    between atoms: C_2  and  C_3 
REMARK    2  A    between atoms: C_3  and  C_4 
REMARK    3  A    between atoms: C_3  and  C_10 
REMARK    4  A    between atoms: C_10  and  C_11 
REMARK       I    between atoms: C_11  and  N_12 
REMARK    5  A    between atoms: N_12  and  C_13 
REMARK    6  A    between atoms: C_20  and  C_21 
REMARK       I    between atoms: C_21  and  N_22 
ROOT
HETATM    1  C   UNL     1      27.786  41.911  51.034  1.00  0.00     0.035 A 
HETATM    2  C   UNL     1      26.553  42.544  50.825  1.00  0.00     0.046 A 
HETATM    3  C   UNL     1      25.591  41.938  49.986  1.00  0.00     0.030 A 
HETATM    4  C   UNL     1      25.892  40.718  49.393  1.00  0.00     0.063 A 
HETATM    5  N   UNL     1      24.789  40.390  48.657  1.00  0.00    -0.277 N 
HETATM    6  H   UNL     1      24.653  39.561  48.090  1.00  0.00     0.189 HD
HETATM    7  N   UNL     1      23.794  41.291  48.711  1.00  0.00    -0.168 NA
HETATM    8  C   UNL     1      24.276  42.256  49.529  1.00  0.00     0.156 A 
HETATM    9  C   UNL     1      27.107  40.058  49.581  1.00  0.00     0.034 A 
HETATM   10  C   UNL     1      28.047  40.682  50.411  1.00  0.00     0.032 A 
ENDROOT
BRANCH   1  11
HETATM   11  N   UNL     1      28.819  42.447  51.832  1.00  0.00    -0.327 N 
HETATM   12  C   UNL     1      29.178  42.071  53.114  1.00  0.00     0.222 C 
HETATM   13  O   UNL     1      28.709  41.148  53.769  1.00  0.00    -0.273 OA
HETATM   14  H   UNL     1      29.371  43.181  51.406  1.00  0.00     0.169 HD
BRANCH  12  15
HETATM   15  C   UNL     1      30.253  42.966  53.704  1.00  0.00     0.112 C 
BRANCH  15  16
HETATM   16  C   UNL     1      29.814  43.556  55.058  1.00  0.00     0.027 C 
BRANCH  16  17
HETATM   17  C   UNL     1      30.990  44.016  55.951  1.00  0.00     0.005 C 
HETATM   18  C   UNL     1      31.418  43.040  57.039  1.00  0.00     0.006 C 
ENDBRANCH  16  17
BRANCH  16  19
HETATM   19  C   UNL     1      28.757  44.644  54.921  1.00  0.00    -0.054 A 
HETATM   20  C   UNL     1      27.450  44.376  54.486  1.00  0.00     0.007 A 
HETATM   21  C   UNL     1      26.513  45.406  54.365  1.00  0.00     0.001 A 
HETATM   22  C   UNL     1      26.868  46.716  54.672  1.00  0.00     0.000 A 
HETATM   23  C   UNL     1      28.164  47.001  55.096  1.00  0.00     0.001 A 
HETATM   24  C   UNL     1      29.101  45.973  55.216  1.00  0.00     0.007 A 
ENDBRANCH  16  19
ENDBRANCH  15  16
ENDBRANCH  12  15
ENDBRANCH   1  11
BRANCH   8  25
HETATM   25  C   UNL     1      23.479  43.449  49.847  1.00  0.00     0.270 C 
HETATM   26  N   UNL     1      23.922  44.594  49.243  1.00  0.00    -0.365 N 
HETATM   27  H   UNL     1      24.738  44.542  48.646  1.00  0.00     0.159 HD
HETATM   28  H   UNL     1      23.440  45.463  49.409  1.00  0.00     0.159 HD
HETATM   29  O   UNL     1      22.500  43.460  50.587  1.00  0.00    -0.266 OA
ENDBRANCH   8  25
TORSDOF 6
ENDMDL
MODEL 8
REMARK VINA RESULT:      -8.3      3.941      5.085
REMARK  6 active torsions:
REMARK  status: ('A' for Active; 'I' for Inactive)
REMARK    1  A    between atoms: C_2  and  C_3 
REMARK    2  A    between atoms: C_3  and  C_4 
REMARK    3  A    between atoms: C_3  and  C_10 
REMARK    4  A    between atoms: C_10  and  C_11 
REMARK       I    between atoms: C_11  and  N_12 
REMARK    5  A    between atoms: N_12  and  C_13 
REMARK    6  A    between atoms: C_20  and  C_21 
REMARK       I    between atoms: C_21  and  N_22 
ROOT
HETATM    1  C   UNL     1      25.453  45.436  51.688  1.00  0.00     0.035 A 
HETATM    2  C   UNL     1      24.925  44.498  50.789  1.00  0.00     0.046 A 
HETATM    3  C   UNL     1      24.144  44.941  49.698  1.00  0.00     0.030 A 
HETATM    4  C   UNL     1      23.925  46.303  49.540  1.00  0.00     0.063 A 
HETATM    5  N   UNL     1      23.153  46.419  48.418  1.00  0.00    -0.277 N 
HETATM    6  H   UNL     1      22.800  47.273  48.001  1.00  0.00     0.189 HD
HETATM    7  N   UNL     1      22.842  45.251  47.833  1.00  0.00    -0.168 NA
HETATM    8  C   UNL     1      23.448  44.326  48.614  1.00  0.00     0.156 A 
HETATM    9  C   UNL     1      24.436  47.265  50.413  1.00  0.00     0.034 A 
HETATM   10  C   UNL     1      25.201  46.801  51.490  1.00  0.00     0.032 A 
ENDROOT
BRANCH   1  11
HETATM   11  N   UNL     1      26.222  45.093  52.820  1.00  0.00    -0.327 N 
HETATM   12  C   UNL     1      27.439  44.436  52.846  1.00  0.00     0.222 C 
HETATM   13  O   UNL     1      28.112  44.094  51.882  1.00  0.00    -0.273 OA
HETATM   14  H   UNL     1      25.844  45.377  53.714  1.00  0.00     0.169 HD
BRANCH  12  15
HETATM   15  C   UNL     1      27.901  44.121  54.258  1.00  0.00     0.112 C 
BRANCH  15  16
HETATM   16  C   UNL     1      28.711  45.286  54.858  1.00  0.00     0.027 C 
BRANCH  16  17
HETATM   17  C   UNL     1      27.836  46.427  55.430  1.00  0.00     0.005 C 
HETATM   18  C   UNL     1      27.893  47.748  54.674  1.00  0.00     0.006 C 
ENDBRANCH  16  17
BRANCH  16  19
HETATM   19  C   UNL     1      29.761  44.829  55.863  1.00  0.00    -0.054 A 
HETATM   20  C   UNL     1      30.584  43.714  55.641  1.00  0.00     0.007 A 
HETATM   21  C   UNL     1      31.527  43.323  56.594  1.00  0.00     0.001 A 
HETATM   22  C   UNL     1      31.660  44.036  57.783  1.00  0.00     0.000 A 
HETATM   23  C   UNL     1      30.845  45.139  58.023  1.00  0.00     0.001 A 
HETATM   24  C   UNL     1      29.901  45.530  57.072  1.00  0.00     0.007 A 
ENDBRANCH  16  19
ENDBRANCH  15  16
ENDBRANCH  12  15
ENDBRANCH   1  11
BRANCH   8  25
HETATM   25  C   UNL     1      23.344  42.892  48.311  1.00  0.00     0.270 C 
HETATM   26  N   UNL     1      24.386  42.400  47.571  1.00  0.00    -0.365 N 
HETATM   27  H   UNL     1      25.123  43.035  47.292  1.00  0.00     0.159 HD
HETATM   28  H   UNL     1      24.395  41.427  47.310  1.00  0.00     0.159 HD
HETATM   29  O   UNL     1      22.421  42.167  48.666  1.00  0.00    -0.266 OA
ENDBRANCH   8  25
TORSDOF 6
ENDMDL
MODEL 9
REMARK VINA RESULT:      -8.3      2.134      2.968
REMARK  6 active torsions:
REMARK  status: ('A' for Active; 'I' for Inactive)
REMARK    1  A    between atoms: C_2  and  C_3 
REMARK    2  A    between atoms: C_3  and  C_4 
REMARK    3  A    between atoms: C_3  and  C_10 
REMARK    4  A    between atoms: C_10  and  C_11 
REMARK       I    between atoms: C_11  and  N_12 
REMARK    5  A    between atoms: N_12  and  C_13 
REMARK    6  A    between atoms: C_20  and  C_21 
REMARK       I    between atoms: C_21  and  N_22 
ROOT
HETATM    1  C   UNL     1      27.322  41.844  52.174  1.00  0.00     0.035 A 
HETATM    2  C   UNL     1      26.380  41.834  51.136  1.00  0.00     0.046 A 
HETATM    3  C   UNL     1      26.548  40.945  50.050  1.00  0.00     0.030 A 
HETATM    4  C   UNL     1      27.646  40.093  50.045  1.00  0.00     0.063 A 
HETATM    5  N   UNL     1      27.537  39.367  48.893  1.00  0.00    -0.277 N 
HETATM    6  H   UNL     1      28.166  38.646  48.559  1.00  0.00     0.189 HD
HETATM    7  N   UNL     1      26.467  39.674  48.140  1.00  0.00    -0.168 NA
HETATM    8  C   UNL     1      25.846  40.650  48.843  1.00  0.00     0.156 A 
HETATM    9  C   UNL     1      28.601  40.074  51.063  1.00  0.00     0.034 A 
HETATM   10  C   UNL     1      28.416  40.969  52.124  1.00  0.00     0.032 A 
ENDROOT
BRANCH   1  11
HETATM   11  N   UNL     1      27.256  42.710  53.286  1.00  0.00    -0.327 N 
HETATM   12  C   UNL     1      27.265  44.094  53.280  1.00  0.00     0.222 C 
HETATM   13  O   UNL     1      27.259  44.826  52.299  1.00  0.00    -0.273 OA
HETATM   14  H   UNL     1      27.175  42.263  54.190  1.00  0.00     0.169 HD
BRANCH  12  15
HETATM   15  C   UNL     1      27.315  44.682  54.680  1.00  0.00     0.112 C 
BRANCH  15  16
HETATM   16  C   UNL     1      28.530  45.612  54.856  1.00  0.00     0.027 C 
BRANCH  16  17
HETATM   17  C   UNL     1      28.154  47.075  55.191  1.00  0.00     0.005 C 
HETATM   18  C   UNL     1      26.762  47.518  54.759  1.00  0.00     0.006 C 
ENDBRANCH  16  17
BRANCH  16  19
HETATM   19  C   UNL     1      29.566  45.064  55.829  1.00  0.00    -0.054 A 
HETATM   20  C   UNL     1      30.334  43.923  55.550  1.00  0.00     0.007 A 
HETATM   21  C   UNL     1      31.267  43.448  56.476  1.00  0.00     0.001 A 
HETATM   22  C   UNL     1      31.443  44.101  57.693  1.00  0.00     0.000 A 
HETATM   23  C   UNL     1      30.682  45.229  57.989  1.00  0.00     0.001 A 
HETATM   24  C   UNL     1      29.749  45.704  57.066  1.00  0.00     0.007 A 
ENDBRANCH  16  19
ENDBRANCH  15  16
ENDBRANCH  12  15
ENDBRANCH   1  11
BRANCH   8  25
HETATM   25  C   UNL     1      24.612  41.274  48.346  1.00  0.00     0.270 C 
HETATM   26  N   UNL     1      23.683  40.382  47.881  1.00  0.00    -0.365 N 
HETATM   27  H   UNL     1      23.905  39.395  47.907  1.00  0.00     0.159 HD
HETATM   28  H   UNL     1      22.808  40.720  47.514  1.00  0.00     0.159 HD
HETATM   29  O   UNL     1      24.396  42.481  48.328  1.00  0.00    -0.266 OA
ENDBRANCH   8  25
TORSDOF 6
ENDMDL
MODEL 10
REMARK VINA RESULT:      -8.2      4.766      7.229
REMARK  6 active torsions:
REMARK  status: ('A' for Active; 'I' for Inactive)
REMARK    1  A    between atoms: C_2  and  C_3 
REMARK    2  A    between atoms: C_3  and  C_4 
REMARK    3  A    between atoms: C_3  and  C_10 
REMARK    4  A    between atoms: C_10  and  C_11 
REMARK       I    between atoms: C_11  and  N_12 
REMARK    5  A    between atoms: N_12  and  C_13 
REMARK    6  A    between atoms: C_20  and  C_21 
REMARK       I    between atoms: C_21  and  N_22 
ROOT
HETATM    1  C   UNL     1      25.128  45.093  49.835  1.00  0.00     0.035 A 
HETATM    2  C   UNL     1      24.709  46.431  49.833  1.00  0.00     0.046 A 
HETATM    3  C   UNL     1      23.530  46.791  49.141  1.00  0.00     0.030 A 
HETATM    4  C   UNL     1      22.810  45.802  48.484  1.00  0.00     0.063 A 
HETATM    5  N   UNL     1      21.742  46.443  47.922  1.00  0.00    -0.277 N 
HETATM    6  H   UNL     1      21.001  46.031  47.366  1.00  0.00     0.189 HD
HETATM    7  N   UNL     1      21.705  47.766  48.147  1.00  0.00    -0.168 NA
HETATM    8  C   UNL     1      22.806  47.997  48.900  1.00  0.00     0.156 A 
HETATM    9  C   UNL     1      23.195  44.461  48.468  1.00  0.00     0.034 A 
HETATM   10  C   UNL     1      24.370  44.130  49.155  1.00  0.00     0.032 A 
ENDROOT
BRANCH   1  11
HETATM   11  N   UNL     1      26.301  44.639  50.474  1.00  0.00    -0.327 N 
HETATM   12  C   UNL     1      26.418  44.099  51.743  1.00  0.00     0.222 C 
HETATM   13  O   UNL     1      25.507  43.847  52.522  1.00  0.00    -0.273 OA
HETATM   14  H   UNL     1      27.153  44.702  49.931  1.00  0.00     0.169 HD
BRANCH  12  15
HETATM   15  C   UNL     1      27.862  43.849  52.139  1.00  0.00     0.112 C 
BRANCH  15  16
HETATM   16  C   UNL     1      27.956  43.088  53.475  1.00  0.00     0.027 C 
BRANCH  16  17
HETATM   17  C   UNL     1      28.278  41.584  53.318  1.00  0.00     0.005 C 
HETATM   18  C   UNL     1      28.472  41.093  51.888  1.00  0.00     0.006 C 
ENDBRANCH  16  17
BRANCH  16  19
HETATM   19  C   UNL     1      28.885  43.757  54.480  1.00  0.00    -0.054 A 
HETATM   20  C   UNL     1      28.627  45.027  55.017  1.00  0.00     0.007 A 
HETATM   21  C   UNL     1      29.513  45.609  55.929  1.00  0.00     0.001 A 
HETATM   22  C   UNL     1      30.667  44.933  56.313  1.00  0.00     0.000 A 
HETATM   23  C   UNL     1      30.943  43.676  55.782  1.00  0.00     0.001 A 
HETATM   24  C   UNL     1      30.060  43.094  54.871  1.00  0.00     0.007 A 
ENDBRANCH  16  19
ENDBRANCH  15  16
ENDBRANCH  12  15
ENDBRANCH   1  11
BRANCH   8  25
HETATM   25  C   UNL     1      23.138  49.352  49.362  1.00  0.00     0.270 C 
HETATM   26  N   UNL     1      22.111  49.991  50.003  1.00  0.00    -0.365 N 
HETATM   27  H   UNL     1      21.228  49.507  50.105  1.00  0.00     0.159 HD
HETATM   28  H   UNL     1      22.246  50.928  50.348  1.00  0.00     0.159 HD
HETATM   29  O   UNL     1      24.225  49.899  49.204  1.00  0.00    -0.266 OA
ENDBRANCH   8  25
TORSDOF 6
ENDMDL
