MODEL 1
REMARK VINA RESULT:      -8.0      0.000      0.000
REMARK  7 active torsions:
REMARK  status: ('A' for Active; 'I' for Inactive)
REMARK       I    between atoms: C_2  and  N_3 
REMARK    1  A    between atoms: N_3  and  C_4 
REMARK    2  A    between atoms: C_7  and  N_8 
REMARK       I    between atoms: N_8  and  C_9 
REMARK    3  A    between atoms: C_9  and  C_10 
REMARK    4  A    between atoms: C_11  and  C_12 
REMARK    5  A    between atoms: C_13  and  O_14 
REMARK    6  A    between atoms: N_20  and  C_21 
REMARK    7  A    between atoms: C_24  and  O_25 
ROOT
HETATM    1  C   UNL     1      17.202  50.129  47.656  1.00  0.00     0.106 C 
HETATM    2  C   UNL     1      18.094  48.894  47.994  1.00  0.00     0.142 C 
HETATM    3  N   UNL     1      19.145  49.249  48.974  1.00  0.00    -0.308 N 
HETATM    4  C   UNL     1      18.632  49.757  50.178  1.00  0.00     0.225 C 
HETATM    5  O   UNL     1      18.818  49.266  51.286  1.00  0.00    -0.273 OA
HETATM    6  C   UNL     1      17.890  51.057  49.961  1.00  0.00     0.104 C 
HETATM    7  C   UNL     1      16.788  50.899  48.927  1.00  0.00     0.026 C 
ENDROOT
BRANCH   1   8
HETATM    8  C   UNL     1      17.811  51.042  46.591  1.00  0.00     0.228 C 
HETATM    9  N   UNL     1      16.878  51.407  45.639  1.00  0.00    -0.327 N 
HETATM   10  H   UNL     1      15.918  51.137  45.835  1.00  0.00     0.169 HD
HETATM   11  O   UNL     1      18.990  51.376  46.613  1.00  0.00    -0.273 OA
BRANCH   9  12
HETATM   12  C   UNL     1      17.069  52.036  44.399  1.00  0.00     0.034 A 
HETATM   13  C   UNL     1      17.689  51.448  43.302  1.00  0.00     0.032 A 
HETATM   14  C   UNL     1      17.746  52.128  42.074  1.00  0.00     0.032 A 
HETATM   15  C   UNL     1      17.193  53.404  41.936  1.00  0.00     0.034 A 
HETATM   16  C   UNL     1      16.603  54.004  43.050  1.00  0.00     0.032 A 
HETATM   17  C   UNL     1      16.536  53.323  44.267  1.00  0.00     0.032 A 
BRANCH  15  18
HETATM   18  N   UNL     1      17.170  54.138  40.734  1.00  0.00    -0.328 N 
HETATM   19  C   UNL     1      16.208  54.104  39.742  1.00  0.00     0.218 C 
HETATM   20  C   UNL     1      16.507  55.082  38.633  1.00  0.00     0.117 C 
HETATM   21  O   UNL     1      15.191  53.420  39.721  1.00  0.00    -0.274 OA
HETATM   22  H   UNL     1      17.922  54.803  40.609  1.00  0.00     0.169 HD
ENDBRANCH  15  18
ENDBRANCH   9  12
ENDBRANCH   1   8
BRANCH   2  23
HETATM   23  C   UNL     1      18.454  47.853  46.910  1.00  0.00    -0.001 C 
HETATM   24  C   UNL     1      18.762  46.508  47.198  1.00  0.00     0.076 C 
HETATM   25  C   UNL     1      18.994  45.571  46.177  1.00  0.00     0.037 C 
HETATM   26  C   UNL     1      19.035  45.974  44.849  1.00  0.00     0.003 C 
HETATM   27  C   UNL     1      18.879  47.318  44.545  1.00  0.00     0.001 C 
HETATM   28  C   UNL     1      18.622  48.242  45.563  1.00  0.00     0.012 C 
BRANCH  24  29
HETATM   29  O   UNL     1      18.788  46.090  48.506  1.00  0.00    -0.355 OA
HETATM   30  C   UNL     1      19.967  45.341  48.818  1.00  0.00     0.210 C 
ENDBRANCH  24  29
ENDBRANCH   2  23
BRANCH   3  31
HETATM   31  C   UNL     1      20.489  49.662  48.657  1.00  0.00     0.038 A 
HETATM   32  C   UNL     1      21.374  48.718  48.108  1.00  0.00     0.032 A 
HETATM   33  C   UNL     1      22.681  49.063  47.752  1.00  0.00     0.039 A 
HETATM   34  C   UNL     1      23.147  50.359  47.943  1.00  0.00     0.068 A 
HETATM   35  C   UNL     1      22.288  51.308  48.490  1.00  0.00     0.039 A 
HETATM   36  C   UNL     1      20.968  50.964  48.834  1.00  0.00     0.032 A 
BRANCH  34  37
HETATM   37  O   UNL     1      24.440  50.563  47.549  1.00  0.00    -0.356 OA
HETATM   38  C   UNL     1      25.441  49.801  48.211  1.00  0.00     0.210 C 
ENDBRANCH  34  37
ENDBRANCH   3  31
TORSDOF 7
ENDMDL
MODEL 2
REMARK VINA RESULT:      -7.6      1.729      2.231
REMARK  7 active torsions:
REMARK  status: ('A' for Active; 'I' for Inactive)
REMARK       I    between atoms: C_2  and  N_3 
REMARK    1  A    between atoms: N_3  and  C_4 
REMARK    2  A    between atoms: C_7  and  N_8 
REMARK       I    between atoms: N_8  and  C_9 
REMARK    3  A    between atoms: C_9  and  C_10 
REMARK    4  A    between atoms: C_11  and  C_12 
REMARK    5  A    between atoms: C_13  and  O_14 
REMARK    6  A    between atoms: N_20  and  C_21 
REMARK    7  A    between atoms: C_24  and  O_25 
ROOT
HETATM    1  C   UNL     1      16.944  50.645  47.974  1.00  0.00     0.106 C 
HETATM    2  C   UNL     1      17.572  49.248  48.272  1.00  0.00     0.142 C 
HETATM    3  N   UNL     1      18.775  49.376  49.125  1.00  0.00    -0.308 N 
HETATM    4  C   UNL     1      18.519  50.007  50.352  1.00  0.00     0.225 C 
HETATM    5  O   UNL     1      18.711  49.508  51.455  1.00  0.00    -0.273 OA
HETATM    6  C   UNL     1      18.063  51.437  50.157  1.00  0.00     0.104 C 
HETATM    7  C   UNL     1      16.849  51.511  49.248  1.00  0.00     0.026 C 
ENDROOT
BRANCH   1   8
HETATM    8  C   UNL     1      17.621  51.379  46.817  1.00  0.00     0.228 C 
HETATM    9  N   UNL     1      17.138  50.955  45.593  1.00  0.00    -0.327 N 
HETATM   10  H   UNL     1      16.337  50.330  45.626  1.00  0.00     0.169 HD
HETATM   11  O   UNL     1      18.488  52.226  46.997  1.00  0.00    -0.273 OA
BRANCH   9  12
HETATM   12  C   UNL     1      17.635  51.203  44.303  1.00  0.00     0.034 A 
HETATM   13  C   UNL     1      18.650  50.474  43.695  1.00  0.00     0.032 A 
HETATM   14  C   UNL     1      19.012  50.740  42.364  1.00  0.00     0.032 A 
HETATM   15  C   UNL     1      18.367  51.742  41.634  1.00  0.00     0.034 A 
HETATM   16  C   UNL     1      17.373  52.495  42.262  1.00  0.00     0.032 A 
HETATM   17  C   UNL     1      17.006  52.223  43.581  1.00  0.00     0.032 A 
BRANCH  15  18
HETATM   18  N   UNL     1      18.637  52.047  40.286  1.00  0.00    -0.328 N 
HETATM   19  C   UNL     1      18.199  51.371  39.163  1.00  0.00     0.218 C 
HETATM   20  C   UNL     1      18.651  52.042  37.889  1.00  0.00     0.117 C 
HETATM   21  O   UNL     1      17.492  50.371  39.131  1.00  0.00    -0.274 OA
HETATM   22  H   UNL     1      19.175  52.889  40.123  1.00  0.00     0.169 HD
ENDBRANCH  15  18
ENDBRANCH   9  12
ENDBRANCH   1   8
BRANCH   2  23
HETATM   23  C   UNL     1      17.575  48.134  47.201  1.00  0.00    -0.001 C 
HETATM   24  C   UNL     1      16.399  47.542  46.694  1.00  0.00     0.076 C 
HETATM   25  C   UNL     1      16.440  46.598  45.655  1.00  0.00     0.037 C 
HETATM   26  C   UNL     1      17.657  46.137  45.171  1.00  0.00     0.003 C 
HETATM   27  C   UNL     1      18.832  46.592  45.749  1.00  0.00     0.001 C 
HETATM   28  C   UNL     1      18.786  47.553  46.765  1.00  0.00     0.012 C 
BRANCH  24  29
HETATM   29  O   UNL     1      15.182  47.933  47.193  1.00  0.00    -0.355 OA
HETATM   30  C   UNL     1      14.347  48.530  46.196  1.00  0.00     0.210 C 
ENDBRANCH  24  29
ENDBRANCH   2  23
BRANCH   3  31
HETATM   31  C   UNL     1      20.135  49.473  48.657  1.00  0.00     0.038 A 
HETATM   32  C   UNL     1      20.555  50.665  48.042  1.00  0.00     0.032 A 
HETATM   33  C   UNL     1      21.868  50.831  47.592  1.00  0.00     0.039 A 
HETATM   34  C   UNL     1      22.799  49.808  47.734  1.00  0.00     0.068 A 
HETATM   35  C   UNL     1      22.402  48.618  48.336  1.00  0.00     0.039 A 
HETATM   36  C   UNL     1      21.084  48.456  48.801  1.00  0.00     0.032 A 
BRANCH  34  37
HETATM   37  O   UNL     1      24.045  50.103  47.256  1.00  0.00    -0.356 OA
HETATM   38  C   UNL     1      25.139  49.889  48.139  1.00  0.00     0.210 C 
ENDBRANCH  34  37
ENDBRANCH   3  31
TORSDOF 7
ENDMDL
MODEL 3
REMARK VINA RESULT:      -7.6      2.530      7.833
REMARK  7 active torsions:
REMARK  status: ('A' for Active; 'I' for Inactive)
REMARK       I    between atoms: C_2  and  N_3 
REMARK    1  A    between atoms: N_3  and  C_4 
REMARK    2  A    between atoms: C_7  and  N_8 
REMARK       I    between atoms: N_8  and  C_9 
REMARK    3  A    between atoms: C_9  and  C_10 
REMARK    4  A    between atoms: C_11  and  C_12 
REMARK    5  A    between atoms: C_13  and  O_14 
REMARK    6  A    between atoms: N_20  and  C_21 
REMARK    7  A    between atoms: C_24  and  O_25 
ROOT
HETATM    1  C   UNL     1      17.442  50.839  47.286  1.00  0.00     0.106 C 
HETATM    2  C   UNL     1      16.584  50.689  45.990  1.00  0.00     0.142 C 
HETATM    3  N   UNL     1      16.199  49.277  45.767  1.00  0.00    -0.308 N 
HETATM    4  C   UNL     1      15.474  48.725  46.834  1.00  0.00     0.225 C 
HETATM    5  O   UNL     1      14.342  48.263  46.752  1.00  0.00    -0.273 OA
HETATM    6  C   UNL     1      16.299  48.676  48.100  1.00  0.00     0.104 C 
HETATM    7  C   UNL     1      16.836  50.050  48.464  1.00  0.00     0.026 C 
ENDROOT
BRANCH   1   8
HETATM    8  C   UNL     1      18.923  50.525  47.070  1.00  0.00     0.228 C 
HETATM    9  N   UNL     1      19.450  49.810  48.130  1.00  0.00    -0.327 N 
HETATM   10  H   UNL     1      18.781  49.489  48.823  1.00  0.00     0.169 HD
HETATM   11  O   UNL     1      19.530  50.889  46.070  1.00  0.00    -0.273 OA
BRANCH   9  12
HETATM   12  C   UNL     1      20.791  49.521  48.430  1.00  0.00     0.034 A 
HETATM   13  C   UNL     1      21.367  48.259  48.336  1.00  0.00     0.032 A 
HETATM   14  C   UNL     1      22.742  48.090  48.568  1.00  0.00     0.032 A 
HETATM   15  C   UNL     1      23.550  49.179  48.905  1.00  0.00     0.034 A 
HETATM   16  C   UNL     1      22.959  50.438  49.034  1.00  0.00     0.032 A 
HETATM   17  C   UNL     1      21.595  50.608  48.792  1.00  0.00     0.032 A 
BRANCH  15  18
HETATM   18  N   UNL     1      24.941  49.107  49.114  1.00  0.00    -0.328 N 
HETATM   19  C   UNL     1      25.941  49.644  48.327  1.00  0.00     0.218 C 
HETATM   20  C   UNL     1      27.310  49.406  48.916  1.00  0.00     0.117 C 
HETATM   21  O   UNL     1      25.804  50.285  47.292  1.00  0.00    -0.274 OA
HETATM   22  H   UNL     1      25.235  48.649  49.967  1.00  0.00     0.169 HD
ENDBRANCH  15  18
ENDBRANCH   9  12
ENDBRANCH   1   8
BRANCH   2  23
HETATM   23  C   UNL     1      16.873  51.554  44.742  1.00  0.00    -0.001 C 
HETATM   24  C   UNL     1      16.414  52.879  44.594  1.00  0.00     0.076 C 
HETATM   25  C   UNL     1      16.774  53.664  43.486  1.00  0.00     0.037 C 
HETATM   26  C   UNL     1      17.509  53.113  42.444  1.00  0.00     0.003 C 
HETATM   27  C   UNL     1      17.852  51.770  42.493  1.00  0.00     0.001 C 
HETATM   28  C   UNL     1      17.513  51.001  43.612  1.00  0.00     0.012 C 
BRANCH  24  29
HETATM   29  O   UNL     1      15.635  53.435  45.579  1.00  0.00    -0.355 OA
HETATM   30  C   UNL     1      14.618  54.294  45.054  1.00  0.00     0.210 C 
ENDBRANCH  24  29
ENDBRANCH   2  23
BRANCH   3  31
HETATM   31  C   UNL     1      16.915  48.327  44.954  1.00  0.00     0.038 A 
HETATM   32  C   UNL     1      16.301  47.836  43.789  1.00  0.00     0.032 A 
HETATM   33  C   UNL     1      16.954  46.934  42.944  1.00  0.00     0.039 A 
HETATM   34  C   UNL     1      18.236  46.487  43.242  1.00  0.00     0.068 A 
HETATM   35  C   UNL     1      18.860  46.957  44.393  1.00  0.00     0.039 A 
HETATM   36  C   UNL     1      18.209  47.876  45.236  1.00  0.00     0.032 A 
BRANCH  34  37
HETATM   37  O   UNL     1      18.760  45.612  42.331  1.00  0.00    -0.356 OA
HETATM   38  C   UNL     1      19.707  44.670  42.817  1.00  0.00     0.210 C 
ENDBRANCH  34  37
ENDBRANCH   3  31
TORSDOF 7
ENDMDL
MODEL 4
REMARK VINA RESULT:      -7.4     14.950     19.995
REMARK  7 active torsions:
REMARK  status: ('A' for Active; 'I' for Inactive)
REMARK       I    between atoms: C_2  and  N_3 
REMARK    1  A    between atoms: N_3  and  C_4 
REMARK    2  A    between atoms: C_7  and  N_8 
REMARK       I    between atoms: N_8  and  C_9 
REMARK    3  A    between atoms: C_9  and  C_10 
REMARK    4  A    between atoms: C_11  and  C_12 
REMARK    5  A    between atoms: C_13  and  O_14 
REMARK    6  A    between atoms: N_20  and  C_21 
REMARK    7  A    between atoms: C_24  and  O_25 
ROOT
HETATM    1  C   UNL     1      37.620  53.563  45.155  1.00  0.00     0.106 C 
HETATM    2  C   UNL     1      39.092  53.060  45.027  1.00  0.00     0.142 C 
HETATM    3  N   UNL     1      39.923  54.030  44.278  1.00  0.00    -0.308 N 
HETATM    4  C   UNL     1      39.949  55.305  44.864  1.00  0.00     0.225 C 
HETATM    5  O   UNL     1      40.959  55.882  45.252  1.00  0.00    -0.273 OA
HETATM    6  C   UNL     1      38.577  55.940  44.873  1.00  0.00     0.104 C 
HETATM    7  C   UNL     1      37.559  55.049  45.564  1.00  0.00     0.026 C 
ENDROOT
BRANCH   1   8
HETATM    8  C   UNL     1      36.768  53.260  43.922  1.00  0.00     0.228 C 
HETATM    9  N   UNL     1      35.825  52.284  44.184  1.00  0.00    -0.327 N 
HETATM   10  H   UNL     1      35.739  52.001  45.156  1.00  0.00     0.169 HD
HETATM   11  O   UNL     1      36.942  53.829  42.851  1.00  0.00    -0.273 OA
BRANCH   9  12
HETATM   12  C   UNL     1      35.010  51.569  43.291  1.00  0.00     0.034 A 
HETATM   13  C   UNL     1      35.481  50.832  42.209  1.00  0.00     0.032 A 
HETATM   14  C   UNL     1      34.592  50.074  41.430  1.00  0.00     0.032 A 
HETATM   15  C   UNL     1      33.225  50.052  41.720  1.00  0.00     0.034 A 
HETATM   16  C   UNL     1      32.753  50.822  42.785  1.00  0.00     0.032 A 
HETATM   17  C   UNL     1      33.638  51.567  43.567  1.00  0.00     0.032 A 
BRANCH  15  18
HETATM   18  N   UNL     1      32.272  49.289  41.018  1.00  0.00    -0.328 N 
HETATM   19  C   UNL     1      32.242  47.917  40.857  1.00  0.00     0.218 C 
HETATM   20  C   UNL     1      31.024  47.466  40.088  1.00  0.00     0.117 C 
HETATM   21  O   UNL     1      33.048  47.104  41.293  1.00  0.00    -0.274 OA
HETATM   22  H   UNL     1      31.493  49.805  40.630  1.00  0.00     0.169 HD
ENDBRANCH  15  18
ENDBRANCH   9  12
ENDBRANCH   1   8
BRANCH   2  23
HETATM   23  C   UNL     1      39.405  51.558  44.837  1.00  0.00    -0.001 C 
HETATM   24  C   UNL     1      40.530  50.923  45.401  1.00  0.00     0.076 C 
HETATM   25  C   UNL     1      40.730  49.538  45.281  1.00  0.00     0.037 C 
HETATM   26  C   UNL     1      39.874  48.769  44.504  1.00  0.00     0.003 C 
HETATM   27  C   UNL     1      38.841  49.389  43.818  1.00  0.00     0.001 C 
HETATM   28  C   UNL     1      38.631  50.764  43.963  1.00  0.00     0.012 C 
BRANCH  24  29
HETATM   29  O   UNL     1      41.428  51.666  46.126  1.00  0.00    -0.355 OA
HETATM   30  C   UNL     1      42.787  51.325  45.831  1.00  0.00     0.210 C 
ENDBRANCH  24  29
ENDBRANCH   2  23
BRANCH   3  31
HETATM   31  C   UNL     1      40.184  53.999  42.861  1.00  0.00     0.038 A 
HETATM   32  C   UNL     1      40.971  52.956  42.342  1.00  0.00     0.032 A 
HETATM   33  C   UNL     1      41.237  52.853  40.974  1.00  0.00     0.039 A 
HETATM   34  C   UNL     1      40.733  53.795  40.083  1.00  0.00     0.068 A 
HETATM   35  C   UNL     1      39.956  54.838  40.578  1.00  0.00     0.039 A 
HETATM   36  C   UNL     1      39.677  54.933  41.953  1.00  0.00     0.032 A 
BRANCH  34  37
HETATM   37  O   UNL     1      41.064  53.575  38.775  1.00  0.00    -0.356 OA
HETATM   38  C   UNL     1      39.993  53.506  37.844  1.00  0.00     0.210 C 
ENDBRANCH  34  37
ENDBRANCH   3  31
TORSDOF 7
ENDMDL
MODEL 5
REMARK VINA RESULT:      -7.2     26.181     29.557
REMARK  7 active torsions:
REMARK  status: ('A' for Active; 'I' for Inactive)
REMARK       I    between atoms: C_2  and  N_3 
REMARK    1  A    between atoms: N_3  and  C_4 
REMARK    2  A    between atoms: C_7  and  N_8 
REMARK       I    between atoms: N_8  and  C_9 
REMARK    3  A    between atoms: C_9  and  C_10 
REMARK    4  A    between atoms: C_11  and  C_12 
REMARK    5  A    between atoms: C_13  and  O_14 
REMARK    6  A    between atoms: N_20  and  C_21 
REMARK    7  A    between atoms: C_24  and  O_25 
ROOT
HETATM    1  C   UNL     1      36.651  46.586  65.593  1.00  0.00     0.106 C 
HETATM    2  C   UNL     1      37.714  47.012  66.653  1.00  0.00     0.142 C 
HETATM    3  N   UNL     1      38.804  47.794  66.029  1.00  0.00    -0.308 N 
HETATM    4  C   UNL     1      38.352  48.953  65.378  1.00  0.00     0.225 C 
HETATM    5  O   UNL     1      38.703  50.096  65.649  1.00  0.00    -0.273 OA
HETATM    6  C   UNL     1      37.441  48.618  64.218  1.00  0.00     0.104 C 
HETATM    7  C   UNL     1      36.272  47.757  64.664  1.00  0.00     0.026 C 
ENDROOT
BRANCH   1   8
HETATM    8  C   UNL     1      37.040  45.326  64.819  1.00  0.00     0.228 C 
HETATM    9  N   UNL     1      37.421  44.304  65.669  1.00  0.00    -0.327 N 
HETATM   10  H   UNL     1      37.275  44.475  66.660  1.00  0.00     0.169 HD
HETATM   11  O   UNL     1      37.011  45.276  63.595  1.00  0.00    -0.273 OA
BRANCH   9  12
HETATM   12  C   UNL     1      38.050  43.085  65.371  1.00  0.00     0.034 A 
HETATM   13  C   UNL     1      37.471  42.056  64.637  1.00  0.00     0.032 A 
HETATM   14  C   UNL     1      38.219  40.912  64.312  1.00  0.00     0.032 A 
HETATM   15  C   UNL     1      39.548  40.785  64.724  1.00  0.00     0.034 A 
HETATM   16  C   UNL     1      40.113  41.805  65.491  1.00  0.00     0.032 A 
HETATM   17  C   UNL     1      39.373  42.947  65.805  1.00  0.00     0.032 A 
BRANCH  15  18
HETATM   18  N   UNL     1      40.380  39.693  64.408  1.00  0.00    -0.328 N 
HETATM   19  C   UNL     1      40.624  38.569  65.172  1.00  0.00     0.218 C 
HETATM   20  C   UNL     1      41.530  37.591  64.464  1.00  0.00     0.117 C 
HETATM   21  O   UNL     1      40.161  38.311  66.277  1.00  0.00    -0.274 OA
HETATM   22  H   UNL     1      40.810  39.717  63.492  1.00  0.00     0.169 HD
ENDBRANCH  15  18
ENDBRANCH   9  12
ENDBRANCH   1   8
BRANCH   2  23
HETATM   23  C   UNL     1      38.091  46.073  67.822  1.00  0.00    -0.001 C 
HETATM   24  C   UNL     1      37.138  45.416  68.628  1.00  0.00     0.076 C 
HETATM   25  C   UNL     1      37.520  44.500  69.621  1.00  0.00     0.037 C 
HETATM   26  C   UNL     1      38.863  44.298  69.912  1.00  0.00     0.003 C 
HETATM   27  C   UNL     1      39.821  45.038  69.236  1.00  0.00     0.001 C 
HETATM   28  C   UNL     1      39.435  45.929  68.229  1.00  0.00     0.012 C 
BRANCH  24  29
HETATM   29  O   UNL     1      35.802  45.639  68.405  1.00  0.00    -0.355 OA
HETATM   30  C   UNL     1      35.022  44.443  68.507  1.00  0.00     0.210 C 
ENDBRANCH  24  29
ENDBRANCH   2  23
BRANCH   3  31
HETATM   31  C   UNL     1      40.051  47.262  65.540  1.00  0.00     0.038 A 
HETATM   32  C   UNL     1      41.253  47.767  66.065  1.00  0.00     0.032 A 
HETATM   33  C   UNL     1      42.495  47.273  65.653  1.00  0.00     0.039 A 
HETATM   34  C   UNL     1      42.573  46.266  64.697  1.00  0.00     0.068 A 
HETATM   35  C   UNL     1      41.395  45.756  64.162  1.00  0.00     0.039 A 
HETATM   36  C   UNL     1      40.145  46.243  64.587  1.00  0.00     0.032 A 
BRANCH  34  37
HETATM   37  O   UNL     1      43.846  45.873  64.389  1.00  0.00    -0.356 OA
HETATM   38  C   UNL     1      44.890  46.793  64.677  1.00  0.00     0.210 C 
ENDBRANCH  34  37
ENDBRANCH   3  31
TORSDOF 7
ENDMDL
MODEL 6
REMARK VINA RESULT:      -7.1      2.890      8.057
REMARK  7 active torsions:
REMARK  status: ('A' for Active; 'I' for Inactive)
REMARK       I    between atoms: C_2  and  N_3 
REMARK    1  A    between atoms: N_3  and  C_4 
REMARK    2  A    between atoms: C_7  and  N_8 
REMARK       I    between atoms: N_8  and  C_9 
REMARK    3  A    between atoms: C_9  and  C_10 
REMARK    4  A    between atoms: C_11  and  C_12 
REMARK    5  A    between atoms: C_13  and  O_14 
REMARK    6  A    between atoms: N_20  and  C_21 
REMARK    7  A    between atoms: C_24  and  O_25 
ROOT
HETATM    1  C   UNL     1      15.271  48.893  47.075  1.00  0.00     0.106 C 
HETATM    2  C   UNL     1      15.616  50.396  46.840  1.00  0.00     0.142 C 
HETATM    3  N   UNL     1      15.513  50.748  45.406  1.00  0.00    -0.308 N 
HETATM    4  C   UNL     1      14.240  50.505  44.866  1.00  0.00     0.225 C 
HETATM    5  O   UNL     1      13.518  51.353  44.354  1.00  0.00    -0.273 OA
HETATM    6  C   UNL     1      13.894  49.033  44.900  1.00  0.00     0.104 C 
HETATM    7  C   UNL     1      14.000  48.472  46.308  1.00  0.00     0.026 C 
ENDROOT
BRANCH   1   8
HETATM    8  C   UNL     1      16.449  47.953  46.815  1.00  0.00     0.228 C 
HETATM    9  N   UNL     1      17.366  47.988  47.849  1.00  0.00    -0.327 N 
HETATM   10  H   UNL     1      17.084  48.513  48.672  1.00  0.00     0.169 HD
HETATM   11  O   UNL     1      16.535  47.278  45.795  1.00  0.00    -0.273 OA
BRANCH   9  12
HETATM   12  C   UNL     1      18.666  47.462  47.906  1.00  0.00     0.034 A 
HETATM   13  C   UNL     1      19.828  48.208  47.740  1.00  0.00     0.032 A 
HETATM   14  C   UNL     1      21.085  47.605  47.910  1.00  0.00     0.032 A 
HETATM   15  C   UNL     1      21.191  46.251  48.238  1.00  0.00     0.034 A 
HETATM   16  C   UNL     1      20.022  45.499  48.369  1.00  0.00     0.032 A 
HETATM   17  C   UNL     1      18.772  46.100  48.211  1.00  0.00     0.032 A 
BRANCH  15  18
HETATM   18  N   UNL     1      22.407  45.578  48.467  1.00  0.00    -0.328 N 
HETATM   19  C   UNL     1      23.524  46.054  49.125  1.00  0.00     0.218 C 
HETATM   20  C   UNL     1      24.611  45.011  49.220  1.00  0.00     0.117 C 
HETATM   21  O   UNL     1      23.668  47.160  49.634  1.00  0.00    -0.274 OA
HETATM   22  H   UNL     1      22.445  44.617  48.153  1.00  0.00     0.169 HD
ENDBRANCH  15  18
ENDBRANCH   9  12
ENDBRANCH   1   8
BRANCH   2  23
HETATM   23  C   UNL     1      16.717  51.097  47.667  1.00  0.00    -0.001 C 
HETATM   24  C   UNL     1      16.490  51.667  48.937  1.00  0.00     0.076 C 
HETATM   25  C   UNL     1      17.537  52.214  49.697  1.00  0.00     0.037 C 
HETATM   26  C   UNL     1      18.816  52.307  49.165  1.00  0.00     0.003 C 
HETATM   27  C   UNL     1      19.041  51.887  47.863  1.00  0.00     0.001 C 
HETATM   28  C   UNL     1      18.001  51.319  47.121  1.00  0.00     0.012 C 
BRANCH  24  29
HETATM   29  O   UNL     1      15.223  51.644  49.466  1.00  0.00    -0.355 OA
HETATM   30  C   UNL     1      14.892  52.858  50.148  1.00  0.00     0.210 C 
ENDBRANCH  24  29
ENDBRANCH   2  23
BRANCH   3  31
HETATM   31  C   UNL     1      16.595  50.737  44.454  1.00  0.00     0.038 A 
HETATM   32  C   UNL     1      16.900  51.923  43.764  1.00  0.00     0.032 A 
HETATM   33  C   UNL     1      17.956  51.985  42.850  1.00  0.00     0.039 A 
HETATM   34  C   UNL     1      18.734  50.862  42.590  1.00  0.00     0.068 A 
HETATM   35  C   UNL     1      18.445  49.677  43.260  1.00  0.00     0.039 A 
HETATM   36  C   UNL     1      17.392  49.618  44.190  1.00  0.00     0.032 A 
BRANCH  34  37
HETATM   37  O   UNL     1      19.734  51.061  41.681  1.00  0.00    -0.356 OA
HETATM   38  C   UNL     1      19.378  51.702  40.464  1.00  0.00     0.210 C 
ENDBRANCH  34  37
ENDBRANCH   3  31
TORSDOF 7
ENDMDL
MODEL 7
REMARK VINA RESULT:      -7.1      1.925      4.637
REMARK  7 active torsions:
REMARK  status: ('A' for Active; 'I' for Inactive)
REMARK       I    between atoms: C_2  and  N_3 
REMARK    1  A    between atoms: N_3  and  C_4 
REMARK    2  A    between atoms: C_7  and  N_8 
REMARK       I    between atoms: N_8  and  C_9 
REMARK    3  A    between atoms: C_9  and  C_10 
REMARK    4  A    between atoms: C_11  and  C_12 
REMARK    5  A    between atoms: C_13  and  O_14 
REMARK    6  A    between atoms: N_20  and  C_21 
REMARK    7  A    between atoms: C_24  and  O_25 
ROOT
HETATM    1  C   UNL     1      18.366  48.766  45.865  1.00  0.00     0.106 C 
HETATM    2  C   UNL     1      18.540  48.879  47.411  1.00  0.00     0.142 C 
HETATM    3  N   UNL     1      17.247  49.166  48.073  1.00  0.00    -0.308 N 
HETATM    4  C   UNL     1      16.266  48.196  47.816  1.00  0.00     0.225 C 
HETATM    5  O   UNL     1      15.697  47.525  48.670  1.00  0.00    -0.273 OA
HETATM    6  C   UNL     1      15.912  48.140  46.346  1.00  0.00     0.104 C 
HETATM    7  C   UNL     1      17.144  47.903  45.490  1.00  0.00     0.026 C 
ENDROOT
BRANCH   1   8
HETATM    8  C   UNL     1      18.365  50.121  45.156  1.00  0.00     0.228 C 
HETATM    9  N   UNL     1      17.281  50.251  44.308  1.00  0.00    -0.327 N 
HETATM   10  H   UNL     1      16.586  49.512  44.362  1.00  0.00     0.169 HD
HETATM   11  O   UNL     1      19.243  50.956  45.340  1.00  0.00    -0.273 OA
BRANCH   9  12
HETATM   12  C   UNL     1      17.029  51.221  43.325  1.00  0.00     0.034 A 
HETATM   13  C   UNL     1      15.912  52.049  43.300  1.00  0.00     0.032 A 
HETATM   14  C   UNL     1      15.799  53.054  42.325  1.00  0.00     0.032 A 
HETATM   15  C   UNL     1      16.796  53.233  41.363  1.00  0.00     0.034 A 
HETATM   16  C   UNL     1      17.898  52.376  41.370  1.00  0.00     0.032 A 
HETATM   17  C   UNL     1      18.016  51.384  42.346  1.00  0.00     0.032 A 
BRANCH  15  18
HETATM   18  N   UNL     1      16.782  54.239  40.377  1.00  0.00    -0.328 N 
HETATM   19  C   UNL     1      16.352  54.133  39.068  1.00  0.00     0.218 C 
HETATM   20  C   UNL     1      16.439  55.450  38.337  1.00  0.00     0.117 C 
HETATM   21  O   UNL     1      15.903  53.135  38.517  1.00  0.00    -0.274 OA
HETATM   22  H   UNL     1      17.077  55.158  40.681  1.00  0.00     0.169 HD
ENDBRANCH  15  18
ENDBRANCH   9  12
ENDBRANCH   1   8
BRANCH   2  23
HETATM   23  C   UNL     1      19.809  49.513  48.024  1.00  0.00    -0.001 C 
HETATM   24  C   UNL     1      20.875  48.757  48.555  1.00  0.00     0.076 C 
HETATM   25  C   UNL     1      22.051  49.369  49.019  1.00  0.00     0.037 C 
HETATM   26  C   UNL     1      22.152  50.753  49.069  1.00  0.00     0.003 C 
HETATM   27  C   UNL     1      21.064  51.525  48.688  1.00  0.00     0.001 C 
HETATM   28  C   UNL     1      19.906  50.911  48.201  1.00  0.00     0.012 C 
BRANCH  24  29
HETATM   29  O   UNL     1      20.782  47.388  48.576  1.00  0.00    -0.355 OA
HETATM   30  C   UNL     1      21.653  46.765  47.625  1.00  0.00     0.210 C 
ENDBRANCH  24  29
ENDBRANCH   2  23
BRANCH   3  31
HETATM   31  C   UNL     1      16.745  50.474  48.410  1.00  0.00     0.038 A 
HETATM   32  C   UNL     1      17.064  51.017  49.666  1.00  0.00     0.032 A 
HETATM   33  C   UNL     1      16.631  52.292  50.042  1.00  0.00     0.039 A 
HETATM   34  C   UNL     1      15.858  53.060  49.178  1.00  0.00     0.068 A 
HETATM   35  C   UNL     1      15.527  52.538  47.931  1.00  0.00     0.039 A 
HETATM   36  C   UNL     1      15.975  51.261  47.548  1.00  0.00     0.032 A 
BRANCH  34  37
HETATM   37  O   UNL     1      15.506  54.287  49.667  1.00  0.00    -0.356 OA
HETATM   38  C   UNL     1      14.335  54.883  49.126  1.00  0.00     0.210 C 
ENDBRANCH  34  37
ENDBRANCH   3  31
TORSDOF 7
ENDMDL
MODEL 8
REMARK VINA RESULT:      -6.9      3.134      7.939
REMARK  7 active torsions:
REMARK  status: ('A' for Active; 'I' for Inactive)
REMARK       I    between atoms: C_2  and  N_3 
REMARK    1  A    between atoms: N_3  and  C_4 
REMARK    2  A    between atoms: C_7  and  N_8 
REMARK       I    between atoms: N_8  and  C_9 
REMARK    3  A    between atoms: C_9  and  C_10 
REMARK    4  A    between atoms: C_11  and  C_12 
REMARK    5  A    between atoms: C_13  and  O_14 
REMARK    6  A    between atoms: N_20  and  C_21 
REMARK    7  A    between atoms: C_24  and  O_25 
ROOT
HETATM    1  C   UNL     1      18.083  47.673  48.890  1.00  0.00     0.106 C 
HETATM    2  C   UNL     1      18.385  49.156  48.509  1.00  0.00     0.142 C 
HETATM    3  N   UNL     1      17.506  49.613  47.409  1.00  0.00    -0.308 N 
HETATM    4  C   UNL     1      16.140  49.512  47.713  1.00  0.00     0.225 C 
HETATM    5  O   UNL     1      15.350  50.449  47.727  1.00  0.00    -0.273 OA
HETATM    6  C   UNL     1      15.724  48.074  47.932  1.00  0.00     0.104 C 
HETATM    7  C   UNL     1      16.568  47.412  49.007  1.00  0.00     0.026 C 
ENDROOT
BRANCH   1   8
HETATM    8  C   UNL     1      18.783  46.661  47.982  1.00  0.00     0.228 C 
HETATM    9  N   UNL     1      20.018  46.295  48.485  1.00  0.00    -0.327 N 
HETATM   10  H   UNL     1      20.233  46.634  49.419  1.00  0.00     0.169 HD
HETATM   11  O   UNL     1      18.279  46.258  46.941  1.00  0.00    -0.273 OA
BRANCH   9  12
HETATM   12  C   UNL     1      21.056  45.580  47.868  1.00  0.00     0.034 A 
HETATM   13  C   UNL     1      21.773  44.551  48.469  1.00  0.00     0.032 A 
HETATM   14  C   UNL     1      22.730  43.833  47.733  1.00  0.00     0.032 A 
HETATM   15  C   UNL     1      22.984  44.143  46.394  1.00  0.00     0.034 A 
HETATM   16  C   UNL     1      22.287  45.200  45.806  1.00  0.00     0.032 A 
HETATM   17  C   UNL     1      21.327  45.906  46.534  1.00  0.00     0.032 A 
BRANCH  15  18
HETATM   18  N   UNL     1      23.894  43.449  45.573  1.00  0.00    -0.328 N 
HETATM   19  C   UNL     1      23.639  42.359  44.764  1.00  0.00     0.218 C 
HETATM   20  C   UNL     1      24.862  41.934  43.989  1.00  0.00     0.117 C 
HETATM   21  O   UNL     1      22.567  41.786  44.611  1.00  0.00    -0.274 OA
HETATM   22  H   UNL     1      24.832  43.827  45.538  1.00  0.00     0.169 HD
ENDBRANCH  15  18
ENDBRANCH   9  12
ENDBRANCH   1   8
BRANCH   2  23
HETATM   23  C   UNL     1      19.829  49.707  48.541  1.00  0.00    -0.001 C 
HETATM   24  C   UNL     1      20.265  50.687  49.457  1.00  0.00     0.076 C 
HETATM   25  C   UNL     1      21.608  51.094  49.514  1.00  0.00     0.037 C 
HETATM   26  C   UNL     1      22.528  50.618  48.589  1.00  0.00     0.003 C 
HETATM   27  C   UNL     1      22.098  49.763  47.586  1.00  0.00     0.001 C 
HETATM   28  C   UNL     1      20.765  49.340  47.550  1.00  0.00     0.012 C 
BRANCH  24  29
HETATM   29  O   UNL     1      19.367  51.222  50.346  1.00  0.00    -0.355 OA
HETATM   30  C   UNL     1      18.536  52.224  49.750  1.00  0.00     0.210 C 
ENDBRANCH  24  29
ENDBRANCH   2  23
BRANCH   3  31
HETATM   31  C   UNL     1      17.827  49.578  46.004  1.00  0.00     0.038 A 
HETATM   32  C   UNL     1      18.264  50.760  45.382  1.00  0.00     0.032 A 
HETATM   33  C   UNL     1      18.617  50.787  44.029  1.00  0.00     0.039 A 
HETATM   34  C   UNL     1      18.535  49.635  43.255  1.00  0.00     0.068 A 
HETATM   35  C   UNL     1      18.100  48.455  43.851  1.00  0.00     0.039 A 
HETATM   36  C   UNL     1      17.758  48.426  45.215  1.00  0.00     0.032 A 
BRANCH  34  37
HETATM   37  O   UNL     1      18.913  49.797  41.952  1.00  0.00    -0.356 OA
HETATM   38  C   UNL     1      19.235  51.118  41.536  1.00  0.00     0.210 C 
ENDBRANCH  34  37
ENDBRANCH   3  31
TORSDOF 7
ENDMDL
MODEL 9
REMARK VINA RESULT:      -6.7     10.098     13.670
REMARK  7 active torsions:
REMARK  status: ('A' for Active; 'I' for Inactive)
REMARK       I    between atoms: C_2  and  N_3 
REMARK    1  A    between atoms: N_3  and  C_4 
REMARK    2  A    between atoms: C_7  and  N_8 
REMARK       I    between atoms: N_8  and  C_9 
REMARK    3  A    between atoms: C_9  and  C_10 
REMARK    4  A    between atoms: C_11  and  C_12 
REMARK    5  A    between atoms: C_13  and  O_14 
REMARK    6  A    between atoms: N_20  and  C_21 
REMARK    7  A    between atoms: C_24  and  O_25 
ROOT
HETATM    1  C   UNL     1      28.739  45.044  39.190  1.00  0.00     0.106 C 
HETATM    2  C   UNL     1      27.209  44.740  39.177  1.00  0.00     0.142 C 
HETATM    3  N   UNL     1      26.533  45.457  38.072  1.00  0.00    -0.308 N 
HETATM    4  C   UNL     1      27.050  45.138  36.807  1.00  0.00     0.225 C 
HETATM    5  O   UNL     1      26.405  44.653  35.884  1.00  0.00    -0.273 OA
HETATM    6  C   UNL     1      28.497  45.559  36.676  1.00  0.00     0.104 C 
HETATM    7  C   UNL     1      29.350  44.954  37.777  1.00  0.00     0.026 C 
ENDROOT
BRANCH   1   8
HETATM    8  C   UNL     1      29.089  46.354  39.897  1.00  0.00     0.228 C 
HETATM    9  N   UNL     1      30.315  46.843  39.484  1.00  0.00    -0.327 N 
HETATM   10  H   UNL     1      30.745  46.357  38.702  1.00  0.00     0.169 HD
HETATM   11  O   UNL     1      28.350  46.868  40.728  1.00  0.00    -0.273 OA
BRANCH   9  12
HETATM   12  C   UNL     1      31.094  47.875  40.032  1.00  0.00     0.034 A 
HETATM   13  C   UNL     1      30.868  49.231  39.823  1.00  0.00     0.032 A 
HETATM   14  C   UNL     1      31.647  50.188  40.494  1.00  0.00     0.032 A 
HETATM   15  C   UNL     1      32.663  49.798  41.369  1.00  0.00     0.034 A 
HETATM   16  C   UNL     1      32.910  48.436  41.547  1.00  0.00     0.032 A 
HETATM   17  C   UNL     1      32.128  47.484  40.890  1.00  0.00     0.032 A 
BRANCH  15  18
HETATM   18  N   UNL     1      33.463  50.689  42.112  1.00  0.00    -0.328 N 
HETATM   19  C   UNL     1      33.216  51.195  43.373  1.00  0.00     0.218 C 
HETATM   20  C   UNL     1      34.341  52.075  43.859  1.00  0.00     0.117 C 
HETATM   21  O   UNL     1      32.245  50.964  44.085  1.00  0.00    -0.274 OA
HETATM   22  H   UNL     1      34.345  50.948  41.688  1.00  0.00     0.169 HD
ENDBRANCH  15  18
ENDBRANCH   9  12
ENDBRANCH   1   8
BRANCH   2  23
HETATM   23  C   UNL     1      26.423  44.563  40.496  1.00  0.00    -0.001 C 
HETATM   24  C   UNL     1      26.837  43.705  41.537  1.00  0.00     0.076 C 
HETATM   25  C   UNL     1      26.144  43.641  42.757  1.00  0.00     0.037 C 
HETATM   26  C   UNL     1      24.960  44.345  42.931  1.00  0.00     0.003 C 
HETATM   27  C   UNL     1      24.450  45.083  41.874  1.00  0.00     0.001 C 
HETATM   28  C   UNL     1      25.158  45.165  40.670  1.00  0.00     0.012 C 
BRANCH  24  29
HETATM   29  O   UNL     1      27.972  42.951  41.373  1.00  0.00    -0.355 OA
HETATM   30  C   UNL     1      27.982  41.789  42.209  1.00  0.00     0.210 C 
ENDBRANCH  24  29
ENDBRANCH   2  23
BRANCH   3  31
HETATM   31  C   UNL     1      25.896  46.747  38.168  1.00  0.00     0.038 A 
HETATM   32  C   UNL     1      24.511  46.834  37.949  1.00  0.00     0.032 A 
HETATM   33  C   UNL     1      23.829  48.050  38.055  1.00  0.00     0.039 A 
HETATM   34  C   UNL     1      24.513  49.218  38.375  1.00  0.00     0.068 A 
HETATM   35  C   UNL     1      25.886  49.154  38.591  1.00  0.00     0.039 A 
HETATM   36  C   UNL     1      26.569  47.927  38.498  1.00  0.00     0.032 A 
BRANCH  34  37
HETATM   37  O   UNL     1      23.728  50.334  38.451  1.00  0.00    -0.356 OA
HETATM   38  C   UNL     1      22.472  50.193  39.102  1.00  0.00     0.210 C 
ENDBRANCH  34  37
ENDBRANCH   3  31
TORSDOF 7
ENDMDL
MODEL 10
REMARK VINA RESULT:      -6.7      8.650     11.290
REMARK  7 active torsions:
REMARK  status: ('A' for Active; 'I' for Inactive)
REMARK       I    between atoms: C_2  and  N_3 
REMARK    1  A    between atoms: N_3  and  C_4 
REMARK    2  A    between atoms: C_7  and  N_8 
REMARK       I    between atoms: N_8  and  C_9 
REMARK    3  A    between atoms: C_9  and  C_10 
REMARK    4  A    between atoms: C_11  and  C_12 
REMARK    5  A    between atoms: C_13  and  O_14 
REMARK    6  A    between atoms: N_20  and  C_21 
REMARK    7  A    between atoms: C_24  and  O_25 
ROOT
HETATM    1  C   UNL     1      26.486  49.055  37.609  1.00  0.00     0.106 C 
HETATM    2  C   UNL     1      27.736  48.216  38.021  1.00  0.00     0.142 C 
HETATM    3  N   UNL     1      27.398  46.779  38.134  1.00  0.00    -0.308 N 
HETATM    4  C   UNL     1      26.882  46.236  36.947  1.00  0.00     0.225 C 
HETATM    5  O   UNL     1      27.374  45.301  36.327  1.00  0.00    -0.273 OA
HETATM    6  C   UNL     1      25.569  46.884  36.565  1.00  0.00     0.104 C 
HETATM    7  C   UNL     1      25.709  48.393  36.454  1.00  0.00     0.026 C 
ENDROOT
BRANCH   1   8
HETATM    8  C   UNL     1      25.584  49.415  38.791  1.00  0.00     0.228 C 
HETATM    9  N   UNL     1      24.260  49.115  38.529  1.00  0.00    -0.327 N 
HETATM   10  H   UNL     1      24.084  48.597  37.673  1.00  0.00     0.169 HD
HETATM   11  O   UNL     1      26.022  49.915  39.820  1.00  0.00    -0.273 OA
BRANCH   9  12
HETATM   12  C   UNL     1      23.106  49.484  39.238  1.00  0.00     0.034 A 
HETATM   13  C   UNL     1      22.327  48.610  39.989  1.00  0.00     0.032 A 
HETATM   14  C   UNL     1      21.244  49.095  40.740  1.00  0.00     0.032 A 
HETATM   15  C   UNL     1      20.925  50.455  40.739  1.00  0.00     0.034 A 
HETATM   16  C   UNL     1      21.688  51.323  39.955  1.00  0.00     0.032 A 
HETATM   17  C   UNL     1      22.771  50.843  39.218  1.00  0.00     0.032 A 
BRANCH  15  18
HETATM   18  N   UNL     1      19.884  51.032  41.493  1.00  0.00    -0.328 N 
HETATM   19  C   UNL     1      18.703  51.575  41.025  1.00  0.00     0.218 C 
HETATM   20  C   UNL     1      17.811  52.040  42.149  1.00  0.00     0.117 C 
HETATM   21  O   UNL     1      18.341  51.660  39.857  1.00  0.00    -0.274 OA
HETATM   22  H   UNL     1      19.997  50.998  42.498  1.00  0.00     0.169 HD
ENDBRANCH  15  18
ENDBRANCH   9  12
ENDBRANCH   1   8
BRANCH   2  23
HETATM   23  C   UNL     1      28.783  48.781  39.007  1.00  0.00    -0.001 C 
HETATM   24  C   UNL     1      29.309  50.086  38.917  1.00  0.00     0.076 C 
HETATM   25  C   UNL     1      30.190  50.593  39.886  1.00  0.00     0.037 C 
HETATM   26  C   UNL     1      30.655  49.777  40.909  1.00  0.00     0.003 C 
HETATM   27  C   UNL     1      30.269  48.446  40.942  1.00  0.00     0.001 C 
HETATM   28  C   UNL     1      29.370  47.954  39.990  1.00  0.00     0.012 C 
BRANCH  24  29
HETATM   29  O   UNL     1      28.915  50.899  37.883  1.00  0.00    -0.355 OA
HETATM   30  C   UNL     1      28.454  52.176  38.336  1.00  0.00     0.210 C 
ENDBRANCH  24  29
ENDBRANCH   2  23
BRANCH   3  31
HETATM   31  C   UNL     1      27.008  46.097  39.342  1.00  0.00     0.038 A 
HETATM   32  C   UNL     1      27.695  44.928  39.710  1.00  0.00     0.032 A 
HETATM   33  C   UNL     1      27.384  44.236  40.885  1.00  0.00     0.039 A 
HETATM   34  C   UNL     1      26.369  44.686  41.722  1.00  0.00     0.068 A 
HETATM   35  C   UNL     1      25.673  45.839  41.373  1.00  0.00     0.039 A 
HETATM   36  C   UNL     1      25.996  46.543  40.198  1.00  0.00     0.032 A 
BRANCH  34  37
HETATM   37  O   UNL     1      26.170  43.921  42.837  1.00  0.00    -0.356 OA
HETATM   38  C   UNL     1      26.733  42.616  42.829  1.00  0.00     0.210 C 
ENDBRANCH  34  37
ENDBRANCH   3  31
TORSDOF 7
ENDMDL
