MODEL 1
REMARK VINA RESULT:     -10.8      0.000      0.000
REMARK  8 active torsions:
REMARK  status: ('A' for Active; 'I' for Inactive)
REMARK    1  A    between atoms: O_2  and  C_3 
REMARK    2  A    between atoms: C_6  and  N_7 
REMARK    3  A    between atoms: N_7  and  C_8 
REMARK    4  A    between atoms: C_12  and  C_13 
REMARK       I    between atoms: C_13  and  N_14 
REMARK    5  A    between atoms: N_14  and  C_15 
REMARK    6  A    between atoms: C_15  and  C_16 
REMARK    7  A    between atoms: C_16  and  N_17 
REMARK    8  A    between atoms: N_21  and  C_22 
ROOT
HETATM    1  C   UNL     1      22.671  48.458  48.456  1.00  0.00     0.129 A 
HETATM    2  N   UNL     1      23.623  49.327  48.074  1.00  0.00    -0.231 NA
HETATM    3  C   UNL     1      24.890  49.176  48.486  1.00  0.00     0.070 A 
HETATM    4  C   UNL     1      25.312  48.095  49.282  1.00  0.00     0.009 A 
HETATM    5  C   UNL     1      24.314  47.145  49.599  1.00  0.00     0.048 A 
HETATM    6  C   UNL     1      22.984  47.356  49.230  1.00  0.00     0.068 A 
HETATM    7  C   UNL     1      25.817  50.136  48.106  1.00  0.00     0.032 A 
HETATM    8  C   UNL     1      27.152  50.073  48.507  1.00  0.00     0.002 A 
HETATM    9  C   UNL     1      27.576  49.034  49.321  1.00  0.00     0.001 A 
HETATM   10  C   UNL     1      26.665  48.054  49.712  1.00  0.00     0.015 A 
ENDROOT
BRANCH   5  11
HETATM   11  C   UNL     1      24.595  45.851  50.268  1.00  0.00     0.252 C 
HETATM   12  N   UNL     1      24.744  44.754  49.447  1.00  0.00    -0.355 N 
HETATM   13  H   UNL     1      24.714  44.925  48.444  1.00  0.00     0.162 HD
HETATM   14  O   UNL     1      24.538  45.743  51.489  1.00  0.00    -0.268 OA
BRANCH  12  15
HETATM   15  C   UNL     1      25.253  43.446  49.856  1.00  0.00     0.150 C 
BRANCH  15  16
HETATM   16  C   UNL     1      26.776  43.248  50.032  1.00  0.00     0.254 C 
BRANCH  16  17
HETATM   17  N   UNL     1      27.166  42.747  51.398  1.00  0.00    -0.067 N 
HETATM   18  H   UNL     1      26.683  41.830  51.467  1.00  0.00     0.280 HD
HETATM   19  C   UNL     1      28.653  42.523  51.614  1.00  0.00     0.254 C 
HETATM   20  C   UNL     1      28.902  41.890  53.000  1.00  0.00     0.150 C 
HETATM   21  N   UNL     1      28.287  42.691  54.071  1.00  0.00    -0.378 N 
HETATM   22  C   UNL     1      26.841  42.947  53.894  1.00  0.00     0.150 C 
HETATM   23  C   UNL     1      26.567  43.593  52.517  1.00  0.00     0.254 C 
BRANCH  21  24
HETATM   24  C   UNL     1      29.034  43.584  54.833  1.00  0.00     0.031 A 
HETATM   25  C   UNL     1      30.171  43.142  55.531  1.00  0.00     0.053 A 
HETATM   26  C   UNL     1      30.959  44.018  56.283  1.00  0.00     0.036 A 
HETATM   27 CL   UNL     1      32.344  43.420  57.111  1.00  0.00    -0.084 Cl
HETATM   28  C   UNL     1      30.640  45.366  56.358  1.00  0.00     0.024 A 
HETATM   29  C   UNL     1      29.529  45.838  55.668  1.00  0.00     0.004 A 
HETATM   30  C   UNL     1      28.744  44.956  54.912  1.00  0.00     0.029 A 
ENDBRANCH  21  24
ENDBRANCH  16  17
ENDBRANCH  15  16
ENDBRANCH  12  15
ENDBRANCH   5  11
BRANCH   1  31
HETATM   31  N   UNL     1      21.327  48.627  48.060  1.00  0.00    -0.341 N 
HETATM   32  H   UNL     1      20.900  47.723  47.888  1.00  0.00     0.167 HD
BRANCH  31  33
HETATM   33  C   UNL     1      20.394  49.564  48.555  1.00  0.00     0.033 A 
HETATM   34  C   UNL     1      19.428  49.229  49.508  1.00  0.00     0.032 A 
HETATM   35  C   UNL     1      18.587  50.204  50.055  1.00  0.00     0.039 A 
HETATM   36  C   UNL     1      18.706  51.541  49.677  1.00  0.00     0.068 A 
HETATM   37  C   UNL     1      19.672  51.893  48.737  1.00  0.00     0.039 A 
HETATM   38  C   UNL     1      20.516  50.915  48.194  1.00  0.00     0.032 A 
BRANCH  36  39
HETATM   39  O   UNL     1      17.835  52.390  50.298  1.00  0.00    -0.356 OA
HETATM   40  C   UNL     1      16.527  52.487  49.748  1.00  0.00     0.210 C 
ENDBRANCH  36  39
ENDBRANCH  31  33
ENDBRANCH   1  31
TORSDOF 8
ENDMDL
MODEL 2
REMARK VINA RESULT:     -10.3      3.555     10.712
REMARK  8 active torsions:
REMARK  status: ('A' for Active; 'I' for Inactive)
REMARK    1  A    between atoms: O_2  and  C_3 
REMARK    2  A    between atoms: C_6  and  N_7 
REMARK    3  A    between atoms: N_7  and  C_8 
REMARK    4  A    between atoms: C_12  and  C_13 
REMARK       I    between atoms: C_13  and  N_14 
REMARK    5  A    between atoms: N_14  and  C_15 
REMARK    6  A    between atoms: C_15  and  C_16 
REMARK    7  A    between atoms: C_16  and  N_17 
REMARK    8  A    between atoms: N_21  and  C_22 
ROOT
HETATM    1  C   UNL     1      27.755  41.979  52.921  1.00  0.00     0.129 A 
HETATM    2  N   UNL     1      28.730  42.008  53.848  1.00  0.00    -0.231 NA
HETATM    3  C   UNL     1      29.065  43.157  54.451  1.00  0.00     0.070 A 
HETATM    4  C   UNL     1      28.401  44.372  54.204  1.00  0.00     0.009 A 
HETATM    5  C   UNL     1      27.322  44.304  53.292  1.00  0.00     0.048 A 
HETATM    6  C   UNL     1      27.035  43.118  52.612  1.00  0.00     0.068 A 
HETATM    7  C   UNL     1      30.115  43.134  55.357  1.00  0.00     0.032 A 
HETATM    8  C   UNL     1      30.549  44.286  56.015  1.00  0.00     0.002 A 
HETATM    9  C   UNL     1      29.929  45.498  55.755  1.00  0.00     0.001 A 
HETATM   10  C   UNL     1      28.866  45.547  54.853  1.00  0.00     0.015 A 
ENDROOT
BRANCH   5  11
HETATM   11  C   UNL     1      26.388  45.429  53.040  1.00  0.00     0.252 C 
HETATM   12  N   UNL     1      26.605  46.162  51.894  1.00  0.00    -0.355 N 
HETATM   13  H   UNL     1      27.346  45.838  51.275  1.00  0.00     0.162 HD
HETATM   14  O   UNL     1      25.573  45.778  53.889  1.00  0.00    -0.268 OA
BRANCH  12  15
HETATM   15  C   UNL     1      25.685  47.147  51.325  1.00  0.00     0.150 C 
BRANCH  15  16
HETATM   16  C   UNL     1      26.103  47.928  50.059  1.00  0.00     0.254 C 
BRANCH  16  17
HETATM   17  N   UNL     1      24.965  48.191  49.108  1.00  0.00    -0.067 N 
HETATM   18  H   UNL     1      25.342  47.889  48.188  1.00  0.00     0.280 HD
HETATM   19  C   UNL     1      23.689  47.414  49.381  1.00  0.00     0.254 C 
HETATM   20  C   UNL     1      22.654  47.677  48.267  1.00  0.00     0.150 C 
HETATM   21  N   UNL     1      22.413  49.118  48.089  1.00  0.00    -0.378 N 
HETATM   22  C   UNL     1      23.632  49.917  47.835  1.00  0.00     0.150 C 
HETATM   23  C   UNL     1      24.680  49.682  48.946  1.00  0.00     0.254 C 
BRANCH  21  24
HETATM   24  C   UNL     1      21.309  49.748  48.655  1.00  0.00     0.031 A 
HETATM   25  C   UNL     1      20.514  49.072  49.597  1.00  0.00     0.053 A 
HETATM   26  C   UNL     1      19.414  49.685  50.206  1.00  0.00     0.036 A 
HETATM   27 CL   UNL     1      18.482  48.810  51.357  1.00  0.00    -0.084 Cl
HETATM   28  C   UNL     1      19.076  50.994  49.898  1.00  0.00     0.024 A 
HETATM   29  C   UNL     1      19.851  51.694  48.980  1.00  0.00     0.004 A 
HETATM   30  C   UNL     1      20.955  51.078  48.374  1.00  0.00     0.029 A 
ENDBRANCH  21  24
ENDBRANCH  16  17
ENDBRANCH  15  16
ENDBRANCH  12  15
ENDBRANCH   5  11
BRANCH   1  31
HETATM   31  N   UNL     1      27.419  40.783  52.252  1.00  0.00    -0.341 N 
HETATM   32  H   UNL     1      26.703  40.285  52.770  1.00  0.00     0.167 HD
BRANCH  31  33
HETATM   33  C   UNL     1      27.298  40.579  50.860  1.00  0.00     0.033 A 
HETATM   34  C   UNL     1      28.394  40.270  50.049  1.00  0.00     0.032 A 
HETATM   35  C   UNL     1      28.226  39.970  48.693  1.00  0.00     0.039 A 
HETATM   36  C   UNL     1      26.954  39.952  48.120  1.00  0.00     0.068 A 
HETATM   37  C   UNL     1      25.851  40.245  48.918  1.00  0.00     0.039 A 
HETATM   38  C   UNL     1      26.022  40.541  50.278  1.00  0.00     0.032 A 
BRANCH  36  39
HETATM   39  O   UNL     1      26.930  39.630  46.793  1.00  0.00    -0.356 OA
HETATM   40  C   UNL     1      27.953  38.763  46.322  1.00  0.00     0.210 C 
ENDBRANCH  36  39
ENDBRANCH  31  33
ENDBRANCH   1  31
TORSDOF 8
ENDMDL
MODEL 3
REMARK VINA RESULT:      -9.8      4.731      9.718
REMARK  8 active torsions:
REMARK  status: ('A' for Active; 'I' for Inactive)
REMARK    1  A    between atoms: O_2  and  C_3 
REMARK    2  A    between atoms: C_6  and  N_7 
REMARK    3  A    between atoms: N_7  and  C_8 
REMARK    4  A    between atoms: C_12  and  C_13 
REMARK       I    between atoms: C_13  and  N_14 
REMARK    5  A    between atoms: N_14  and  C_15 
REMARK    6  A    between atoms: C_15  and  C_16 
REMARK    7  A    between atoms: C_16  and  N_17 
REMARK    8  A    between atoms: N_21  and  C_22 
ROOT
HETATM    1  C   UNL     1      27.836  41.125  52.390  1.00  0.00     0.129 A 
HETATM    2  N   UNL     1      28.778  40.170  52.300  1.00  0.00    -0.231 NA
HETATM    3  C   UNL     1      29.000  39.537  51.140  1.00  0.00     0.070 A 
HETATM    4  C   UNL     1      28.318  39.856  49.952  1.00  0.00     0.009 A 
HETATM    5  C   UNL     1      27.394  40.922  50.047  1.00  0.00     0.048 A 
HETATM    6  C   UNL     1      27.116  41.519  51.278  1.00  0.00     0.068 A 
HETATM    7  C   UNL     1      29.947  38.522  51.122  1.00  0.00     0.032 A 
HETATM    8  C   UNL     1      30.227  37.793  49.966  1.00  0.00     0.002 A 
HETATM    9  C   UNL     1      29.537  38.071  48.796  1.00  0.00     0.001 A 
HETATM   10  C   UNL     1      28.586  39.090  48.786  1.00  0.00     0.015 A 
ENDROOT
BRANCH   5  11
HETATM   11  C   UNL     1      26.714  41.526  48.874  1.00  0.00     0.252 C 
HETATM   12  N   UNL     1      25.935  40.682  48.113  1.00  0.00    -0.355 N 
HETATM   13  H   UNL     1      25.832  39.727  48.448  1.00  0.00     0.162 HD
HETATM   14  O   UNL     1      26.966  42.674  48.518  1.00  0.00    -0.268 OA
BRANCH  12  15
HETATM   15  C   UNL     1      24.998  41.096  47.070  1.00  0.00     0.150 C 
BRANCH  15  16
HETATM   16  C   UNL     1      23.485  41.135  47.386  1.00  0.00     0.254 C 
BRANCH  16  17
HETATM   17  N   UNL     1      23.043  42.402  48.071  1.00  0.00    -0.067 N 
HETATM   18  H   UNL     1      22.038  42.477  47.818  1.00  0.00     0.280 HD
HETATM   19  C   UNL     1      23.157  42.402  49.586  1.00  0.00     0.254 C 
HETATM   20  C   UNL     1      22.555  43.698  50.167  1.00  0.00     0.150 C 
HETATM   21  N   UNL     1      23.160  44.892  49.552  1.00  0.00    -0.378 N 
HETATM   22  C   UNL     1      23.085  44.927  48.076  1.00  0.00     0.150 C 
HETATM   23  C   UNL     1      23.695  43.643  47.468  1.00  0.00     0.254 C 
BRANCH  21  24
HETATM   24  C   UNL     1      24.176  45.602  50.185  1.00  0.00     0.031 A 
HETATM   25  C   UNL     1      24.782  46.695  49.544  1.00  0.00     0.053 A 
HETATM   26  C   UNL     1      25.786  47.447  50.162  1.00  0.00     0.036 A 
HETATM   27 CL   UNL     1      26.486  48.780  49.330  1.00  0.00    -0.084 Cl
HETATM   28  C   UNL     1      26.213  47.134  51.444  1.00  0.00     0.024 A 
HETATM   29  C   UNL     1      25.624  46.066  52.111  1.00  0.00     0.004 A 
HETATM   30  C   UNL     1      24.615  45.317  51.489  1.00  0.00     0.029 A 
ENDBRANCH  21  24
ENDBRANCH  16  17
ENDBRANCH  15  16
ENDBRANCH  12  15
ENDBRANCH   5  11
BRANCH   1  31
HETATM   31  N   UNL     1      27.567  41.772  53.615  1.00  0.00    -0.341 N 
HETATM   32  H   UNL     1      27.296  41.089  54.316  1.00  0.00     0.167 HD
BRANCH  31  33
HETATM   33  C   UNL     1      28.259  42.864  54.184  1.00  0.00     0.033 A 
HETATM   34  C   UNL     1      27.626  44.069  54.503  1.00  0.00     0.032 A 
HETATM   35  C   UNL     1      28.315  45.093  55.161  1.00  0.00     0.039 A 
HETATM   36  C   UNL     1      29.649  44.927  55.535  1.00  0.00     0.068 A 
HETATM   37  C   UNL     1      30.289  43.727  55.236  1.00  0.00     0.039 A 
HETATM   38  C   UNL     1      29.595  42.701  54.580  1.00  0.00     0.032 A 
BRANCH  36  39
HETATM   39  O   UNL     1      30.197  45.997  56.183  1.00  0.00    -0.356 OA
HETATM   40  C   UNL     1      30.288  45.915  57.599  1.00  0.00     0.210 C 
ENDBRANCH  36  39
ENDBRANCH  31  33
ENDBRANCH   1  31
TORSDOF 8
ENDMDL
MODEL 4
REMARK VINA RESULT:      -9.7      2.533      6.150
REMARK  8 active torsions:
REMARK  status: ('A' for Active; 'I' for Inactive)
REMARK    1  A    between atoms: O_2  and  C_3 
REMARK    2  A    between atoms: C_6  and  N_7 
REMARK    3  A    between atoms: N_7  and  C_8 
REMARK    4  A    between atoms: C_12  and  C_13 
REMARK       I    between atoms: C_13  and  N_14 
REMARK    5  A    between atoms: N_14  and  C_15 
REMARK    6  A    between atoms: C_15  and  C_16 
REMARK    7  A    between atoms: C_16  and  N_17 
REMARK    8  A    between atoms: N_21  and  C_22 
ROOT
HETATM    1  C   UNL     1      20.396  47.185  48.923  1.00  0.00     0.129 A 
HETATM    2  N   UNL     1      19.331  48.005  48.936  1.00  0.00    -0.231 NA
HETATM    3  C   UNL     1      19.488  49.331  48.814  1.00  0.00     0.070 A 
HETATM    4  C   UNL     1      20.742  49.937  48.614  1.00  0.00     0.009 A 
HETATM    5  C   UNL     1      21.839  49.051  48.515  1.00  0.00     0.048 A 
HETATM    6  C   UNL     1      21.672  47.681  48.723  1.00  0.00     0.068 A 
HETATM    7  C   UNL     1      18.356  50.130  48.891  1.00  0.00     0.032 A 
HETATM    8  C   UNL     1      18.426  51.521  48.798  1.00  0.00     0.002 A 
HETATM    9  C   UNL     1      19.658  52.136  48.637  1.00  0.00     0.001 A 
HETATM   10  C   UNL     1      20.810  51.355  48.551  1.00  0.00     0.015 A 
ENDROOT
BRANCH   5  11
HETATM   11  C   UNL     1      23.206  49.478  48.125  1.00  0.00     0.252 C 
HETATM   12  N   UNL     1      24.227  49.123  48.979  1.00  0.00    -0.355 N 
HETATM   13  H   UNL     1      23.977  48.541  49.776  1.00  0.00     0.162 HD
HETATM   14  O   UNL     1      23.386  50.240  47.180  1.00  0.00    -0.268 OA
BRANCH  12  15
HETATM   15  C   UNL     1      25.657  49.223  48.686  1.00  0.00     0.150 C 
BRANCH  15  16
HETATM   16  C   UNL     1      26.669  48.511  49.611  1.00  0.00     0.254 C 
BRANCH  16  17
HETATM   17  N   UNL     1      26.206  47.159  50.087  1.00  0.00    -0.067 N 
HETATM   18  H   UNL     1      25.254  47.071  49.679  1.00  0.00     0.280 HD
HETATM   19  C   UNL     1      27.038  45.977  49.618  1.00  0.00     0.254 C 
HETATM   20  C   UNL     1      26.385  44.652  50.065  1.00  0.00     0.150 C 
HETATM   21  N   UNL     1      26.145  44.637  51.518  1.00  0.00    -0.378 N 
HETATM   22  C   UNL     1      25.351  45.778  52.021  1.00  0.00     0.150 C 
HETATM   23  C   UNL     1      25.993  47.119  51.598  1.00  0.00     0.254 C 
BRANCH  21  24
HETATM   24  C   UNL     1      27.015  43.993  52.393  1.00  0.00     0.031 A 
HETATM   25  C   UNL     1      27.691  44.723  53.385  1.00  0.00     0.053 A 
HETATM   26  C   UNL     1      28.550  44.103  54.298  1.00  0.00     0.036 A 
HETATM   27 CL   UNL     1      29.346  45.048  55.496  1.00  0.00    -0.084 Cl
HETATM   28  C   UNL     1      28.757  42.732  54.252  1.00  0.00     0.024 A 
HETATM   29  C   UNL     1      28.093  41.980  53.290  1.00  0.00     0.004 A 
HETATM   30  C   UNL     1      27.229  42.605  52.380  1.00  0.00     0.029 A 
ENDBRANCH  21  24
ENDBRANCH  16  17
ENDBRANCH  15  16
ENDBRANCH  12  15
ENDBRANCH   5  11
BRANCH   1  31
HETATM   31  N   UNL     1      20.247  45.791  49.089  1.00  0.00    -0.341 N 
HETATM   32  H   UNL     1      19.281  45.525  48.931  1.00  0.00     0.167 HD
BRANCH  31  33
HETATM   33  C   UNL     1      21.144  44.775  48.693  1.00  0.00     0.033 A 
HETATM   34  C   UNL     1      21.236  44.328  47.371  1.00  0.00     0.032 A 
HETATM   35  C   UNL     1      22.206  43.396  46.991  1.00  0.00     0.039 A 
HETATM   36  C   UNL     1      23.123  42.903  47.920  1.00  0.00     0.068 A 
HETATM   37  C   UNL     1      23.053  43.349  49.238  1.00  0.00     0.039 A 
HETATM   38  C   UNL     1      22.082  44.286  49.616  1.00  0.00     0.032 A 
BRANCH  36  39
HETATM   39  O   UNL     1      24.025  42.011  47.415  1.00  0.00    -0.356 OA
HETATM   40  C   UNL     1      23.965  41.756  46.018  1.00  0.00     0.210 C 
ENDBRANCH  36  39
ENDBRANCH  31  33
ENDBRANCH   1  31
TORSDOF 8
ENDMDL
MODEL 5
REMARK VINA RESULT:      -9.2      4.048      6.377
REMARK  8 active torsions:
REMARK  status: ('A' for Active; 'I' for Inactive)
REMARK    1  A    between atoms: O_2  and  C_3 
REMARK    2  A    between atoms: C_6  and  N_7 
REMARK    3  A    between atoms: N_7  and  C_8 
REMARK    4  A    between atoms: C_12  and  C_13 
REMARK       I    between atoms: C_13  and  N_14 
REMARK    5  A    between atoms: N_14  and  C_15 
REMARK    6  A    between atoms: C_15  and  C_16 
REMARK    7  A    between atoms: C_16  and  N_17 
REMARK    8  A    between atoms: N_21  and  C_22 
ROOT
HETATM    1  C   UNL     1      23.598  43.061  48.908  1.00  0.00     0.129 A 
HETATM    2  N   UNL     1      22.679  42.253  48.352  1.00  0.00    -0.231 NA
HETATM    3  C   UNL     1      23.045  41.107  47.761  1.00  0.00     0.070 A 
HETATM    4  C   UNL     1      24.377  40.655  47.728  1.00  0.00     0.009 A 
HETATM    5  C   UNL     1      25.316  41.476  48.394  1.00  0.00     0.048 A 
HETATM    6  C   UNL     1      24.934  42.704  48.937  1.00  0.00     0.068 A 
HETATM    7  C   UNL     1      22.058  40.342  47.156  1.00  0.00     0.032 A 
HETATM    8  C   UNL     1      22.350  39.147  46.496  1.00  0.00     0.002 A 
HETATM    9  C   UNL     1      23.662  38.706  46.424  1.00  0.00     0.001 A 
HETATM   10  C   UNL     1      24.671  39.454  47.029  1.00  0.00     0.015 A 
ENDROOT
BRANCH   5  11
HETATM   11  C   UNL     1      26.728  41.084  48.628  1.00  0.00     0.252 C 
HETATM   12  N   UNL     1      27.028  40.579  49.875  1.00  0.00    -0.355 N 
HETATM   13  H   UNL     1      26.248  40.453  50.517  1.00  0.00     0.162 HD
HETATM   14  O   UNL     1      27.603  41.348  47.809  1.00  0.00    -0.268 OA
BRANCH  12  15
HETATM   15  C   UNL     1      28.276  39.917  50.250  1.00  0.00     0.150 C 
BRANCH  15  16
HETATM   16  C   UNL     1      28.954  40.284  51.590  1.00  0.00     0.254 C 
BRANCH  16  17
HETATM   17  N   UNL     1      28.387  41.521  52.235  1.00  0.00    -0.067 N 
HETATM   18  H   UNL     1      27.558  41.743  51.649  1.00  0.00     0.280 HD
HETATM   19  C   UNL     1      27.927  41.360  53.674  1.00  0.00     0.254 C 
HETATM   20  C   UNL     1      27.253  42.657  54.169  1.00  0.00     0.150 C 
HETATM   21  N   UNL     1      28.134  43.822  53.981  1.00  0.00    -0.378 N 
HETATM   22  C   UNL     1      28.618  44.010  52.597  1.00  0.00     0.150 C 
HETATM   23  C   UNL     1      29.310  42.727  52.082  1.00  0.00     0.254 C 
BRANCH  21  24
HETATM   24  C   UNL     1      28.892  44.338  55.029  1.00  0.00     0.031 A 
HETATM   25  C   UNL     1      30.044  43.664  55.468  1.00  0.00     0.053 A 
HETATM   26  C   UNL     1      30.844  44.169  56.499  1.00  0.00     0.036 A 
HETATM   27 CL   UNL     1      32.246  43.302  56.990  1.00  0.00    -0.084 Cl
HETATM   28  C   UNL     1      30.520  45.366  57.120  1.00  0.00     0.024 A 
HETATM   29  C   UNL     1      29.394  46.064  56.699  1.00  0.00     0.004 A 
HETATM   30  C   UNL     1      28.598  45.556  55.662  1.00  0.00     0.029 A 
ENDBRANCH  21  24
ENDBRANCH  16  17
ENDBRANCH  15  16
ENDBRANCH  12  15
ENDBRANCH   5  11
BRANCH   1  31
HETATM   31  N   UNL     1      23.230  44.288  49.500  1.00  0.00    -0.341 N 
HETATM   32  H   UNL     1      22.270  44.240  49.828  1.00  0.00     0.167 HD
BRANCH  31  33
HETATM   33  C   UNL     1      24.023  45.125  50.316  1.00  0.00     0.033 A 
HETATM   34  C   UNL     1      24.296  46.455  49.984  1.00  0.00     0.032 A 
HETATM   35  C   UNL     1      24.997  47.288  50.862  1.00  0.00     0.039 A 
HETATM   36  C   UNL     1      25.422  46.815  52.104  1.00  0.00     0.068 A 
HETATM   37  C   UNL     1      25.146  45.496  52.455  1.00  0.00     0.039 A 
HETATM   38  C   UNL     1      24.440  44.665  51.574  1.00  0.00     0.032 A 
BRANCH  36  39
HETATM   39  O   UNL     1      26.081  47.735  52.870  1.00  0.00    -0.356 OA
HETATM   40  C   UNL     1      25.971  47.596  54.280  1.00  0.00     0.210 C 
ENDBRANCH  36  39
ENDBRANCH  31  33
ENDBRANCH   1  31
TORSDOF 8
ENDMDL
MODEL 6
REMARK VINA RESULT:      -9.1      4.307     12.163
REMARK  8 active torsions:
REMARK  status: ('A' for Active; 'I' for Inactive)
REMARK    1  A    between atoms: O_2  and  C_3 
REMARK    2  A    between atoms: C_6  and  N_7 
REMARK    3  A    between atoms: N_7  and  C_8 
REMARK    4  A    between atoms: C_12  and  C_13 
REMARK       I    between atoms: C_13  and  N_14 
REMARK    5  A    between atoms: N_14  and  C_15 
REMARK    6  A    between atoms: C_15  and  C_16 
REMARK    7  A    between atoms: C_16  and  N_17 
REMARK    8  A    between atoms: N_21  and  C_22 
ROOT
HETATM    1  C   UNL     1      25.086  46.023  50.433  1.00  0.00     0.129 A 
HETATM    2  N   UNL     1      26.146  46.847  50.358  1.00  0.00    -0.231 NA
HETATM    3  C   UNL     1      26.088  47.969  49.626  1.00  0.00     0.070 A 
HETATM    4  C   UNL     1      24.926  48.379  48.946  1.00  0.00     0.009 A 
HETATM    5  C   UNL     1      23.797  47.545  49.110  1.00  0.00     0.048 A 
HETATM    6  C   UNL     1      23.894  46.340  49.809  1.00  0.00     0.068 A 
HETATM    7  C   UNL     1      27.231  48.751  49.540  1.00  0.00     0.032 A 
HETATM    8  C   UNL     1      27.271  49.922  48.783  1.00  0.00     0.002 A 
HETATM    9  C   UNL     1      26.146  50.321  48.078  1.00  0.00     0.001 A 
HETATM   10  C   UNL     1      24.983  49.556  48.152  1.00  0.00     0.015 A 
ENDROOT
BRANCH   5  11
HETATM   11  C   UNL     1      22.439  47.899  48.629  1.00  0.00     0.252 C 
HETATM   12  N   UNL     1      21.523  48.269  49.589  1.00  0.00    -0.355 N 
HETATM   13  H   UNL     1      21.865  48.336  50.546  1.00  0.00     0.162 HD
HETATM   14  O   UNL     1      22.112  47.713  47.460  1.00  0.00    -0.268 OA
BRANCH  12  15
HETATM   15  C   UNL     1      20.219  48.879  49.334  1.00  0.00     0.150 C 
BRANCH  15  16
HETATM   16  C   UNL     1      20.137  50.150  48.458  1.00  0.00     0.254 C 
BRANCH  16  17
HETATM   17  N   UNL     1      18.813  50.318  47.760  1.00  0.00    -0.067 N 
HETATM   18  H   UNL     1      18.867  49.645  46.970  1.00  0.00     0.280 HD
HETATM   19  C   UNL     1      17.586  49.984  48.590  1.00  0.00     0.254 C 
HETATM   20  C   UNL     1      16.313  50.073  47.724  1.00  0.00     0.150 C 
HETATM   21  N   UNL     1      16.209  51.383  47.059  1.00  0.00    -0.378 N 
HETATM   22  C   UNL     1      17.389  51.757  46.250  1.00  0.00     0.150 C 
HETATM   23  C   UNL     1      18.677  51.688  47.101  1.00  0.00     0.254 C 
BRANCH  21  24
HETATM   24  C   UNL     1      15.401  52.396  47.568  1.00  0.00     0.031 A 
HETATM   25  C   UNL     1      15.279  52.573  48.957  1.00  0.00     0.053 A 
HETATM   26  C   UNL     1      14.498  53.598  49.502  1.00  0.00     0.036 A 
HETATM   27 CL   UNL     1      14.391  53.770  51.211  1.00  0.00    -0.084 Cl
HETATM   28  C   UNL     1      13.819  54.482  48.676  1.00  0.00     0.024 A 
HETATM   29  C   UNL     1      13.931  54.342  47.298  1.00  0.00     0.004 A 
HETATM   30  C   UNL     1      14.717  53.315  46.756  1.00  0.00     0.029 A 
ENDBRANCH  21  24
ENDBRANCH  16  17
ENDBRANCH  15  16
ENDBRANCH  12  15
ENDBRANCH   5  11
BRANCH   1  31
HETATM   31  N   UNL     1      25.148  44.821  51.170  1.00  0.00    -0.341 N 
HETATM   32  H   UNL     1      24.848  44.044  50.590  1.00  0.00     0.167 HD
BRANCH  31  33
HETATM   33  C   UNL     1      26.132  44.431  52.104  1.00  0.00     0.033 A 
HETATM   34  C   UNL     1      27.378  43.931  51.716  1.00  0.00     0.032 A 
HETATM   35  C   UNL     1      28.369  43.652  52.663  1.00  0.00     0.039 A 
HETATM   36  C   UNL     1      28.145  43.888  54.019  1.00  0.00     0.068 A 
HETATM   37  C   UNL     1      26.913  44.400  54.421  1.00  0.00     0.039 A 
HETATM   38  C   UNL     1      25.923  44.681  53.469  1.00  0.00     0.032 A 
BRANCH  36  39
HETATM   39  O   UNL     1      29.200  43.588  54.834  1.00  0.00    -0.356 OA
HETATM   40  C   UNL     1      30.351  43.026  54.216  1.00  0.00     0.210 C 
ENDBRANCH  36  39
ENDBRANCH  31  33
ENDBRANCH   1  31
TORSDOF 8
ENDMDL
MODEL 7
REMARK VINA RESULT:      -9.1      4.234     10.993
REMARK  8 active torsions:
REMARK  status: ('A' for Active; 'I' for Inactive)
REMARK    1  A    between atoms: O_2  and  C_3 
REMARK    2  A    between atoms: C_6  and  N_7 
REMARK    3  A    between atoms: N_7  and  C_8 
REMARK    4  A    between atoms: C_12  and  C_13 
REMARK       I    between atoms: C_13  and  N_14 
REMARK    5  A    between atoms: N_14  and  C_15 
REMARK    6  A    between atoms: C_15  and  C_16 
REMARK    7  A    between atoms: C_16  and  N_17 
REMARK    8  A    between atoms: N_21  and  C_22 
ROOT
HETATM    1  C   UNL     1      27.588  40.852  51.873  1.00  0.00     0.129 A 
HETATM    2  N   UNL     1      28.415  40.002  51.240  1.00  0.00    -0.231 NA
HETATM    3  C   UNL     1      28.212  39.682  49.954  1.00  0.00     0.070 A 
HETATM    4  C   UNL     1      27.178  40.242  49.181  1.00  0.00     0.009 A 
HETATM    5  C   UNL     1      26.373  41.198  49.840  1.00  0.00     0.048 A 
HETATM    6  C   UNL     1      26.546  41.463  51.200  1.00  0.00     0.068 A 
HETATM    7  C   UNL     1      29.066  38.758  49.370  1.00  0.00     0.032 A 
HETATM    8  C   UNL     1      28.917  38.347  48.045  1.00  0.00     0.002 A 
HETATM    9  C   UNL     1      27.881  38.861  47.281  1.00  0.00     0.001 A 
HETATM   10  C   UNL     1      27.013  39.797  47.842  1.00  0.00     0.015 A 
ENDROOT
BRANCH   5  11
HETATM   11  C   UNL     1      25.355  42.029  49.151  1.00  0.00     0.252 C 
HETATM   12  N   UNL     1      25.158  43.299  49.649  1.00  0.00    -0.355 N 
HETATM   13  H   UNL     1      25.770  43.594  50.407  1.00  0.00     0.162 HD
HETATM   14  O   UNL     1      24.622  41.549  48.291  1.00  0.00    -0.268 OA
BRANCH  12  15
HETATM   15  C   UNL     1      24.394  44.361  48.996  1.00  0.00     0.150 C 
BRANCH  15  16
HETATM   16  C   UNL     1      24.355  45.767  49.638  1.00  0.00     0.254 C 
BRANCH  16  17
HETATM   17  N   UNL     1      23.589  46.780  48.828  1.00  0.00    -0.067 N 
HETATM   18  H   UNL     1      24.154  46.875  47.960  1.00  0.00     0.280 HD
HETATM   19  C   UNL     1      22.177  46.378  48.439  1.00  0.00     0.254 C 
HETATM   20  C   UNL     1      21.555  47.440  47.509  1.00  0.00     0.150 C 
HETATM   21  N   UNL     1      21.616  48.781  48.113  1.00  0.00    -0.378 N 
HETATM   22  C   UNL     1      22.972  49.210  48.521  1.00  0.00     0.150 C 
HETATM   23  C   UNL     1      23.612  48.167  49.465  1.00  0.00     0.254 C 
BRANCH  21  24
HETATM   24  C   UNL     1      20.518  49.340  48.759  1.00  0.00     0.031 A 
HETATM   25  C   UNL     1      20.083  50.635  48.426  1.00  0.00     0.053 A 
HETATM   26  C   UNL     1      18.967  51.216  49.036  1.00  0.00     0.036 A 
HETATM   27 CL   UNL     1      18.478  52.802  48.583  1.00  0.00    -0.084 Cl
HETATM   28  C   UNL     1      18.245  50.519  49.995  1.00  0.00     0.024 A 
HETATM   29  C   UNL     1      18.641  49.232  50.336  1.00  0.00     0.004 A 
HETATM   30  C   UNL     1      19.759  48.652  49.719  1.00  0.00     0.029 A 
ENDBRANCH  21  24
ENDBRANCH  16  17
ENDBRANCH  15  16
ENDBRANCH  12  15
ENDBRANCH   5  11
BRANCH   1  31
HETATM   31  N   UNL     1      27.768  41.166  53.237  1.00  0.00    -0.341 N 
HETATM   32  H   UNL     1      28.147  40.365  53.731  1.00  0.00     0.167 HD
BRANCH  31  33
HETATM   33  C   UNL     1      28.220  42.385  53.788  1.00  0.00     0.033 A 
HETATM   34  C   UNL     1      27.348  43.419  54.141  1.00  0.00     0.032 A 
HETATM   35  C   UNL     1      27.816  44.571  54.781  1.00  0.00     0.039 A 
HETATM   36  C   UNL     1      29.166  44.707  55.103  1.00  0.00     0.068 A 
HETATM   37  C   UNL     1      30.047  43.681  54.770  1.00  0.00     0.039 A 
HETATM   38  C   UNL     1      29.574  42.526  54.132  1.00  0.00     0.032 A 
BRANCH  36  39
HETATM   39  O   UNL     1      29.487  45.873  55.739  1.00  0.00    -0.356 OA
HETATM   40  C   UNL     1      29.041  46.018  57.081  1.00  0.00     0.210 C 
ENDBRANCH  36  39
ENDBRANCH  31  33
ENDBRANCH   1  31
TORSDOF 8
ENDMDL
MODEL 8
REMARK VINA RESULT:      -9.1      3.648      6.986
REMARK  8 active torsions:
REMARK  status: ('A' for Active; 'I' for Inactive)
REMARK    1  A    between atoms: O_2  and  C_3 
REMARK    2  A    between atoms: C_6  and  N_7 
REMARK    3  A    between atoms: N_7  and  C_8 
REMARK    4  A    between atoms: C_12  and  C_13 
REMARK       I    between atoms: C_13  and  N_14 
REMARK    5  A    between atoms: N_14  and  C_15 
REMARK    6  A    between atoms: C_15  and  C_16 
REMARK    7  A    between atoms: C_16  and  N_17 
REMARK    8  A    between atoms: N_21  and  C_22 
ROOT
HETATM    1  C   UNL     1      19.986  48.715  49.033  1.00  0.00     0.129 A 
HETATM    2  N   UNL     1      18.836  49.410  49.002  1.00  0.00    -0.231 NA
HETATM    3  C   UNL     1      17.767  48.935  48.349  1.00  0.00     0.070 A 
HETATM    4  C   UNL     1      17.757  47.681  47.710  1.00  0.00     0.009 A 
HETATM    5  C   UNL     1      18.947  46.927  47.828  1.00  0.00     0.048 A 
HETATM    6  C   UNL     1      20.078  47.467  48.444  1.00  0.00     0.068 A 
HETATM    7  C   UNL     1      16.626  49.723  48.305  1.00  0.00     0.032 A 
HETATM    8  C   UNL     1      15.474  49.319  47.628  1.00  0.00     0.002 A 
HETATM    9  C   UNL     1      15.460  48.103  46.963  1.00  0.00     0.001 A 
HETATM   10  C   UNL     1      16.592  47.289  46.997  1.00  0.00     0.015 A 
ENDROOT
BRANCH   5  11
HETATM   11  C   UNL     1      19.072  45.516  47.385  1.00  0.00     0.252 C 
HETATM   12  N   UNL     1      19.729  45.301  46.193  1.00  0.00    -0.355 N 
HETATM   13  H   UNL     1      20.135  46.118  45.741  1.00  0.00     0.162 HD
HETATM   14  O   UNL     1      18.481  44.613  47.971  1.00  0.00    -0.268 OA
BRANCH  12  15
HETATM   15  C   UNL     1      20.174  44.004  45.687  1.00  0.00     0.150 C 
BRANCH  15  16
HETATM   16  C   UNL     1      21.607  43.519  46.006  1.00  0.00     0.254 C 
BRANCH  16  17
HETATM   17  N   UNL     1      21.960  43.598  47.468  1.00  0.00    -0.067 N 
HETATM   18  H   UNL     1      21.034  43.644  47.939  1.00  0.00     0.280 HD
HETATM   19  C   UNL     1      22.722  42.407  48.024  1.00  0.00     0.254 C 
HETATM   20  C   UNL     1      22.905  42.554  49.549  1.00  0.00     0.150 C 
HETATM   21  N   UNL     1      23.534  43.841  49.891  1.00  0.00    -0.378 N 
HETATM   22  C   UNL     1      22.833  45.029  49.357  1.00  0.00     0.150 C 
HETATM   23  C   UNL     1      22.649  44.911  47.826  1.00  0.00     0.254 C 
BRANCH  21  24
HETATM   24  C   UNL     1      24.896  43.937  50.162  1.00  0.00     0.031 A 
HETATM   25  C   UNL     1      25.565  42.883  50.808  1.00  0.00     0.053 A 
HETATM   26  C   UNL     1      26.938  42.935  51.070  1.00  0.00     0.036 A 
HETATM   27 CL   UNL     1      27.704  41.611  51.859  1.00  0.00    -0.084 Cl
HETATM   28  C   UNL     1      27.688  44.039  50.690  1.00  0.00     0.024 A 
HETATM   29  C   UNL     1      27.057  45.091  50.037  1.00  0.00     0.004 A 
HETATM   30  C   UNL     1      25.682  45.034  49.773  1.00  0.00     0.029 A 
ENDBRANCH  21  24
ENDBRANCH  16  17
ENDBRANCH  15  16
ENDBRANCH  12  15
ENDBRANCH   5  11
BRANCH   1  31
HETATM   31  N   UNL     1      21.130  49.223  49.685  1.00  0.00    -0.341 N 
HETATM   32  H   UNL     1      21.146  48.909  50.650  1.00  0.00     0.167 HD
BRANCH  31  33
HETATM   33  C   UNL     1      22.431  49.368  49.157  1.00  0.00     0.033 A 
HETATM   34  C   UNL     1      22.785  50.428  48.317  1.00  0.00     0.032 A 
HETATM   35  C   UNL     1      24.107  50.602  47.895  1.00  0.00     0.039 A 
HETATM   36  C   UNL     1      25.111  49.732  48.320  1.00  0.00     0.068 A 
HETATM   37  C   UNL     1      24.776  48.679  49.168  1.00  0.00     0.039 A 
HETATM   38  C   UNL     1      23.451  48.509  49.592  1.00  0.00     0.032 A 
BRANCH  36  39
HETATM   39  O   UNL     1      26.359  50.024  47.847  1.00  0.00    -0.356 OA
HETATM   40  C   UNL     1      27.455  49.752  48.710  1.00  0.00     0.210 C 
ENDBRANCH  36  39
ENDBRANCH  31  33
ENDBRANCH   1  31
TORSDOF 8
ENDMDL
MODEL 9
REMARK VINA RESULT:      -9.1      4.175     11.309
REMARK  8 active torsions:
REMARK  status: ('A' for Active; 'I' for Inactive)
REMARK    1  A    between atoms: O_2  and  C_3 
REMARK    2  A    between atoms: C_6  and  N_7 
REMARK    3  A    between atoms: N_7  and  C_8 
REMARK    4  A    between atoms: C_12  and  C_13 
REMARK       I    between atoms: C_13  and  N_14 
REMARK    5  A    between atoms: N_14  and  C_15 
REMARK    6  A    between atoms: C_15  and  C_16 
REMARK    7  A    between atoms: C_16  and  N_17 
REMARK    8  A    between atoms: N_21  and  C_22 
ROOT
HETATM    1  C   UNL     1      26.861  42.507  51.857  1.00  0.00     0.129 A 
HETATM    2  N   UNL     1      26.375  41.539  51.059  1.00  0.00    -0.231 NA
HETATM    3  C   UNL     1      25.668  41.848  49.964  1.00  0.00     0.070 A 
HETATM    4  C   UNL     1      25.436  43.174  49.551  1.00  0.00     0.009 A 
HETATM    5  C   UNL     1      26.030  44.175  50.354  1.00  0.00     0.048 A 
HETATM    6  C   UNL     1      26.696  43.842  51.535  1.00  0.00     0.068 A 
HETATM    7  C   UNL     1      25.144  40.807  49.211  1.00  0.00     0.032 A 
HETATM    8  C   UNL     1      24.376  41.034  48.068  1.00  0.00     0.002 A 
HETATM    9  C   UNL     1      24.108  42.334  47.669  1.00  0.00     0.001 A 
HETATM   10  C   UNL     1      24.628  43.399  48.405  1.00  0.00     0.015 A 
ENDROOT
BRANCH   5  11
HETATM   11  C   UNL     1      26.057  45.612  49.988  1.00  0.00     0.252 C 
HETATM   12  N   UNL     1      24.924  46.341  50.276  1.00  0.00    -0.355 N 
HETATM   13  H   UNL     1      24.182  45.856  50.777  1.00  0.00     0.162 HD
HETATM   14  O   UNL     1      26.976  46.079  49.321  1.00  0.00    -0.268 OA
BRANCH  12  15
HETATM   15  C   UNL     1      24.812  47.799  50.226  1.00  0.00     0.150 C 
BRANCH  15  16
HETATM   16  C   UNL     1      23.961  48.453  49.113  1.00  0.00     0.254 C 
BRANCH  16  17
HETATM   17  N   UNL     1      22.614  48.933  49.586  1.00  0.00    -0.067 N 
HETATM   18  H   UNL     1      22.560  48.582  50.562  1.00  0.00     0.280 HD
HETATM   19  C   UNL     1      22.424  50.439  49.606  1.00  0.00     0.254 C 
HETATM   20  C   UNL     1      21.058  50.798  50.228  1.00  0.00     0.150 C 
HETATM   21  N   UNL     1      19.958  50.096  49.545  1.00  0.00    -0.378 N 
HETATM   22  C   UNL     1      20.109  48.626  49.488  1.00  0.00     0.150 C 
HETATM   23  C   UNL     1      21.466  48.241  48.855  1.00  0.00     0.254 C 
BRANCH  21  24
HETATM   24  C   UNL     1      19.186  50.725  48.573  1.00  0.00     0.031 A 
HETATM   25  C   UNL     1      18.405  49.964  47.686  1.00  0.00     0.053 A 
HETATM   26  C   UNL     1      17.596  50.565  46.716  1.00  0.00     0.036 A 
HETATM   27 CL   UNL     1      16.658  49.582  45.662  1.00  0.00    -0.084 Cl
HETATM   28  C   UNL     1      17.537  51.947  46.605  1.00  0.00     0.024 A 
HETATM   29  C   UNL     1      18.286  52.728  47.477  1.00  0.00     0.004 A 
HETATM   30  C   UNL     1      19.093  52.121  48.450  1.00  0.00     0.029 A 
ENDBRANCH  21  24
ENDBRANCH  16  17
ENDBRANCH  15  16
ENDBRANCH  12  15
ENDBRANCH   5  11
BRANCH   1  31
HETATM   31  N   UNL     1      27.575  42.193  53.033  1.00  0.00    -0.341 N 
HETATM   32  H   UNL     1      28.153  41.374  52.880  1.00  0.00     0.167 HD
BRANCH  31  33
HETATM   33  C   UNL     1      28.166  43.092  53.948  1.00  0.00     0.033 A 
HETATM   34  C   UNL     1      29.510  43.003  54.324  1.00  0.00     0.032 A 
HETATM   35  C   UNL     1      30.092  43.970  55.150  1.00  0.00     0.039 A 
HETATM   36  C   UNL     1      29.350  45.061  55.602  1.00  0.00     0.068 A 
HETATM   37  C   UNL     1      28.014  45.171  55.225  1.00  0.00     0.039 A 
HETATM   38  C   UNL     1      27.433  44.202  54.394  1.00  0.00     0.032 A 
BRANCH  36  39
HETATM   39  O   UNL     1      30.043  45.937  56.388  1.00  0.00    -0.356 OA
HETATM   40  C   UNL     1      30.511  45.450  57.639  1.00  0.00     0.210 C 
ENDBRANCH  36  39
ENDBRANCH  31  33
ENDBRANCH   1  31
TORSDOF 8
ENDMDL
MODEL 10
REMARK VINA RESULT:      -9.0      5.478     10.218
REMARK  8 active torsions:
REMARK  status: ('A' for Active; 'I' for Inactive)
REMARK    1  A    between atoms: O_2  and  C_3 
REMARK    2  A    between atoms: C_6  and  N_7 
REMARK    3  A    between atoms: N_7  and  C_8 
REMARK    4  A    between atoms: C_12  and  C_13 
REMARK       I    between atoms: C_13  and  N_14 
REMARK    5  A    between atoms: N_14  and  C_15 
REMARK    6  A    between atoms: C_15  and  C_16 
REMARK    7  A    between atoms: C_16  and  N_17 
REMARK    8  A    between atoms: N_21  and  C_22 
ROOT
HETATM    1  C   UNL     1      22.573  49.037  49.224  1.00  0.00     0.129 A 
HETATM    2  N   UNL     1      23.693  48.717  49.895  1.00  0.00    -0.231 NA
HETATM    3  C   UNL     1      24.190  47.473  49.843  1.00  0.00     0.070 A 
HETATM    4  C   UNL     1      23.618  46.455  49.058  1.00  0.00     0.009 A 
HETATM    5  C   UNL     1      22.492  46.834  48.292  1.00  0.00     0.048 A 
HETATM    6  C   UNL     1      21.939  48.110  48.417  1.00  0.00     0.068 A 
HETATM    7  C   UNL     1      25.317  47.189  50.601  1.00  0.00     0.032 A 
HETATM    8  C   UNL     1      25.888  45.916  50.626  1.00  0.00     0.002 A 
HETATM    9  C   UNL     1      25.316  44.892  49.887  1.00  0.00     0.001 A 
HETATM   10  C   UNL     1      24.187  45.154  49.112  1.00  0.00     0.015 A 
ENDROOT
BRANCH   5  11
HETATM   11  C   UNL     1      21.863  45.961  47.270  1.00  0.00     0.252 C 
HETATM   12  N   UNL     1      20.800  45.192  47.688  1.00  0.00    -0.355 N 
HETATM   13  H   UNL     1      20.486  45.327  48.647  1.00  0.00     0.162 HD
HETATM   14  O   UNL     1      22.369  45.820  46.160  1.00  0.00    -0.268 OA
BRANCH  12  15
HETATM   15  C   UNL     1      19.889  44.450  46.817  1.00  0.00     0.150 C 
BRANCH  15  16
HETATM   16  C   UNL     1      18.594  45.132  46.321  1.00  0.00     0.254 C 
BRANCH  16  17
HETATM   17  N   UNL     1      18.429  46.546  46.814  1.00  0.00    -0.067 N 
HETATM   18  H   UNL     1      19.003  46.570  47.681  1.00  0.00     0.280 HD
HETATM   19  C   UNL     1      18.932  47.631  45.877  1.00  0.00     0.254 C 
HETATM   20  C   UNL     1      18.823  49.014  46.552  1.00  0.00     0.150 C 
HETATM   21  N   UNL     1      17.455  49.268  47.033  1.00  0.00    -0.378 N 
HETATM   22  C   UNL     1      16.919  48.229  47.938  1.00  0.00     0.150 C 
HETATM   23  C   UNL     1      17.004  46.834  47.278  1.00  0.00     0.254 C 
BRANCH  21  24
HETATM   24  C   UNL     1      16.559  50.044  46.303  1.00  0.00     0.031 A 
HETATM   25  C   UNL     1      16.976  51.256  45.727  1.00  0.00     0.053 A 
HETATM   26  C   UNL     1      16.110  52.045  44.965  1.00  0.00     0.036 A 
HETATM   27 CL   UNL     1      16.680  53.516  44.279  1.00  0.00    -0.084 Cl
HETATM   28  C   UNL     1      14.799  51.646  44.749  1.00  0.00     0.024 A 
HETATM   29  C   UNL     1      14.359  50.445  45.294  1.00  0.00     0.004 A 
HETATM   30  C   UNL     1      15.232  49.655  46.055  1.00  0.00     0.029 A 
ENDBRANCH  21  24
ENDBRANCH  16  17
ENDBRANCH  15  16
ENDBRANCH  12  15
ENDBRANCH   5  11
BRANCH   1  31
HETATM   31  N   UNL     1      22.020  50.333  49.302  1.00  0.00    -0.341 N 
HETATM   32  H   UNL     1      22.550  50.972  48.719  1.00  0.00     0.167 HD
BRANCH  31  33
HETATM   33  C   UNL     1      20.653  50.685  49.362  1.00  0.00     0.033 A 
HETATM   34  C   UNL     1      19.755  50.061  50.232  1.00  0.00     0.032 A 
HETATM   35  C   UNL     1      18.433  50.503  50.342  1.00  0.00     0.039 A 
HETATM   36  C   UNL     1      17.983  51.595  49.599  1.00  0.00     0.068 A 
HETATM   37  C   UNL     1      18.870  52.236  48.737  1.00  0.00     0.039 A 
HETATM   38  C   UNL     1      20.196  51.793  48.632  1.00  0.00     0.032 A 
BRANCH  36  39
HETATM   39  O   UNL     1      16.677  51.932  49.812  1.00  0.00    -0.356 OA
HETATM   40  C   UNL     1      16.378  53.318  49.917  1.00  0.00     0.210 C 
ENDBRANCH  36  39
ENDBRANCH  31  33
ENDBRANCH   1  31
TORSDOF 8
ENDMDL
