MODEL 1
REMARK VINA RESULT:      -9.0      0.000      0.000
REMARK  6 active torsions:
REMARK  status: ('A' for Active; 'I' for Inactive)
REMARK    1  A    between atoms: C_8  and  N_9 
REMARK       I    between atoms: N_9  and  C_10 
REMARK    2  A    between atoms: C_10  and  C_11 
REMARK    3  A    between atoms: C_11  and  N_12 
REMARK    4  A    between atoms: N_12  and  C_15 
REMARK    5  A    between atoms: C_15  and  C_16 
REMARK    6  A    between atoms: C_15  and  C_22 
ROOT
HETATM    1  N   UNL     1      29.653  42.861  54.051  1.00  0.00    -0.055 N 
HETATM    2  H   UNL     1      29.071  42.197  54.562  1.00  0.00     0.278 HD
HETATM    3  H   UNL     1      30.635  42.712  54.328  1.00  0.00     0.278 HD
ENDROOT
BRANCH   1   4
HETATM    4  C   UNL     1      29.571  42.586  52.568  1.00  0.00     0.336 C 
BRANCH   4   5
HETATM    5  C   UNL     1      28.769  41.320  52.272  1.00  0.00     0.248 C 
HETATM    6  N   UNL     1      28.753  40.969  50.943  1.00  0.00    -0.322 N 
HETATM    7  H   UNL     1      29.247  41.542  50.269  1.00  0.00     0.169 HD
HETATM    8  O   UNL     1      28.235  40.745  53.216  1.00  0.00    -0.271 OA
BRANCH   6   9
HETATM    9  C   UNL     1      28.112  39.872  50.383  1.00  0.00     0.085 A 
HETATM   10  C   UNL     1      26.762  39.911  50.076  1.00  0.00     0.052 A 
HETATM   11  C   UNL     1      25.721  40.958  50.222  1.00  0.00     0.072 C 
HETATM   12  N   UNL     1      26.460  38.686  49.551  1.00  0.00    -0.280 N 
HETATM   13  H   UNL     1      25.564  38.345  49.216  1.00  0.00     0.189 HD
HETATM   14  N   UNL     1      27.506  37.861  49.488  1.00  0.00    -0.177 NA
HETATM   15  C   UNL     1      28.527  38.561  50.000  1.00  0.00     0.079 A 
HETATM   16  C   UNL     1      29.846  37.886  50.082  1.00  0.00     0.075 C 
ENDBRANCH   6   9
ENDBRANCH   4   5
ENDBRANCH   1   4
BRANCH   1  17
HETATM   17  C   UNL     1      29.321  44.262  54.493  1.00  0.00     0.252 C 
BRANCH  17  18
HETATM   18  C   UNL     1      27.833  44.545  54.376  1.00  0.00    -0.023 A 
HETATM   19  C   UNL     1      27.347  45.766  53.879  1.00  0.00     0.009 A 
HETATM   20  C   UNL     1      25.974  46.012  53.821  1.00  0.00     0.001 A 
HETATM   21  C   UNL     1      25.070  45.048  54.262  1.00  0.00     0.000 A 
HETATM   22  C   UNL     1      25.535  43.831  54.753  1.00  0.00     0.001 A 
HETATM   23  C   UNL     1      26.906  43.578  54.810  1.00  0.00     0.009 A 
ENDBRANCH  17  18
BRANCH  17  24
HETATM   24  C   UNL     1      29.889  44.587  55.871  1.00  0.00    -0.023 A 
HETATM   25  C   UNL     1      30.913  43.772  56.389  1.00  0.00     0.009 A 
HETATM   26  C   UNL     1      31.474  44.032  57.640  1.00  0.00     0.001 A 
HETATM   27  C   UNL     1      31.027  45.112  58.394  1.00  0.00     0.000 A 
HETATM   28  C   UNL     1      30.023  45.937  57.896  1.00  0.00     0.001 A 
HETATM   29  C   UNL     1      29.458  45.682  56.642  1.00  0.00     0.009 A 
ENDBRANCH  17  24
ENDBRANCH   1  17
TORSDOF 6
ENDMDL
MODEL 2
REMARK VINA RESULT:      -8.9      3.592      6.308
REMARK  6 active torsions:
REMARK  status: ('A' for Active; 'I' for Inactive)
REMARK    1  A    between atoms: C_8  and  N_9 
REMARK       I    between atoms: N_9  and  C_10 
REMARK    2  A    between atoms: C_10  and  C_11 
REMARK    3  A    between atoms: C_11  and  N_12 
REMARK    4  A    between atoms: N_12  and  C_15 
REMARK    5  A    between atoms: C_15  and  C_16 
REMARK    6  A    between atoms: C_15  and  C_22 
ROOT
HETATM    1  N   UNL     1      27.738  45.870  55.158  1.00  0.00    -0.055 N 
HETATM    2  H   UNL     1      27.648  45.928  56.173  1.00  0.00     0.278 HD
HETATM    3  H   UNL     1      26.981  45.268  54.799  1.00  0.00     0.278 HD
ENDROOT
BRANCH   1   4
HETATM    4  C   UNL     1      27.540  47.233  54.541  1.00  0.00     0.336 C 
BRANCH   4   5
HETATM    5  C   UNL     1      26.340  47.257  53.595  1.00  0.00     0.248 C 
HETATM    6  N   UNL     1      26.497  46.473  52.476  1.00  0.00    -0.322 N 
HETATM    7  H   UNL     1      27.357  45.952  52.348  1.00  0.00     0.169 HD
HETATM    8  O   UNL     1      25.374  47.944  53.912  1.00  0.00    -0.271 OA
BRANCH   6   9
HETATM    9  C   UNL     1      25.578  46.298  51.451  1.00  0.00     0.085 A 
HETATM   10  C   UNL     1      24.726  45.206  51.432  1.00  0.00     0.052 A 
HETATM   11  C   UNL     1      24.541  44.051  52.344  1.00  0.00     0.072 C 
HETATM   12  N   UNL     1      23.968  45.340  50.303  1.00  0.00    -0.280 N 
HETATM   13  H   UNL     1      23.237  44.726  49.955  1.00  0.00     0.189 HD
HETATM   14  N   UNL     1      24.256  46.432  49.594  1.00  0.00    -0.177 NA
HETATM   15  C   UNL     1      25.245  47.030  50.272  1.00  0.00     0.079 A 
HETATM   16  C   UNL     1      25.801  48.284  49.705  1.00  0.00     0.075 C 
ENDBRANCH   6   9
ENDBRANCH   4   5
ENDBRANCH   1   4
BRANCH   1  17
HETATM   17  C   UNL     1      29.016  45.153  54.809  1.00  0.00     0.252 C 
BRANCH  17  18
HETATM   18  C   UNL     1      29.911  44.989  56.026  1.00  0.00    -0.023 A 
HETATM   19  C   UNL     1      30.851  43.949  56.119  1.00  0.00     0.009 A 
HETATM   20  C   UNL     1      31.632  43.799  57.267  1.00  0.00     0.001 A 
HETATM   21  C   UNL     1      31.482  44.680  58.336  1.00  0.00     0.000 A 
HETATM   22  C   UNL     1      30.558  45.719  58.257  1.00  0.00     0.001 A 
HETATM   23  C   UNL     1      29.778  45.875  57.110  1.00  0.00     0.009 A 
ENDBRANCH  17  18
BRANCH  17  24
HETATM   24  C   UNL     1      28.766  43.845  54.065  1.00  0.00    -0.023 A 
HETATM   25  C   UNL     1      27.637  43.078  54.410  1.00  0.00     0.009 A 
HETATM   26  C   UNL     1      27.356  41.878  53.752  1.00  0.00     0.001 A 
HETATM   27  C   UNL     1      28.194  41.427  52.738  1.00  0.00     0.000 A 
HETATM   28  C   UNL     1      29.309  42.176  52.374  1.00  0.00     0.001 A 
HETATM   29  C   UNL     1      29.593  43.379  53.028  1.00  0.00     0.009 A 
ENDBRANCH  17  24
ENDBRANCH   1  17
TORSDOF 6
ENDMDL
MODEL 3
REMARK VINA RESULT:      -8.9      1.438      2.188
REMARK  6 active torsions:
REMARK  status: ('A' for Active; 'I' for Inactive)
REMARK    1  A    between atoms: C_8  and  N_9 
REMARK       I    between atoms: N_9  and  C_10 
REMARK    2  A    between atoms: C_10  and  C_11 
REMARK    3  A    between atoms: C_11  and  N_12 
REMARK    4  A    between atoms: N_12  and  C_15 
REMARK    5  A    between atoms: C_15  and  C_16 
REMARK    6  A    between atoms: C_15  and  C_22 
ROOT
HETATM    1  N   UNL     1      29.650  42.316  53.220  1.00  0.00    -0.055 N 
HETATM    2  H   UNL     1      30.495  41.975  53.680  1.00  0.00     0.278 HD
HETATM    3  H   UNL     1      29.840  42.395  52.209  1.00  0.00     0.278 HD
ENDROOT
BRANCH   1   4
HETATM    4  C   UNL     1      28.535  41.310  53.376  1.00  0.00     0.336 C 
BRANCH   4   5
HETATM    5  C   UNL     1      28.152  40.679  52.038  1.00  0.00     0.248 C 
HETATM    6  N   UNL     1      29.106  39.827  51.532  1.00  0.00    -0.322 N 
HETATM    7  H   UNL     1      29.965  39.675  52.048  1.00  0.00     0.169 HD
HETATM    8  O   UNL     1      27.063  40.973  51.555  1.00  0.00    -0.271 OA
BRANCH   6   9
HETATM    9  C   UNL     1      29.033  39.113  50.344  1.00  0.00     0.085 A 
HETATM   10  C   UNL     1      29.334  37.762  50.301  1.00  0.00     0.052 A 
HETATM   11  C   UNL     1      29.766  36.788  51.333  1.00  0.00     0.072 C 
HETATM   12  N   UNL     1      29.165  37.380  48.999  1.00  0.00    -0.280 N 
HETATM   13  H   UNL     1      29.299  36.461  48.587  1.00  0.00     0.189 HD
HETATM   14  N   UNL     1      28.774  38.372  48.199  1.00  0.00    -0.177 NA
HETATM   15  C   UNL     1      28.695  39.445  48.998  1.00  0.00     0.079 A 
HETATM   16  C   UNL     1      28.295  40.732  48.375  1.00  0.00     0.075 C 
ENDBRANCH   6   9
ENDBRANCH   4   5
ENDBRANCH   1   4
BRANCH   1  17
HETATM   17  C   UNL     1      29.358  43.719  53.682  1.00  0.00     0.252 C 
BRANCH  17  18
HETATM   18  C   UNL     1      27.877  44.042  53.579  1.00  0.00    -0.023 A 
HETATM   19  C   UNL     1      26.997  43.837  54.655  1.00  0.00     0.009 A 
HETATM   20  C   UNL     1      25.634  44.105  54.517  1.00  0.00     0.001 A 
HETATM   21  C   UNL     1      25.132  44.576  53.306  1.00  0.00     0.000 A 
HETATM   22  C   UNL     1      25.991  44.789  52.232  1.00  0.00     0.001 A 
HETATM   23  C   UNL     1      27.355  44.526  52.365  1.00  0.00     0.009 A 
ENDBRANCH  17  18
BRANCH  17  24
HETATM   24  C   UNL     1      29.943  44.011  55.061  1.00  0.00    -0.023 A 
HETATM   25  C   UNL     1      30.762  43.040  55.666  1.00  0.00     0.009 A 
HETATM   26  C   UNL     1      31.331  43.261  56.922  1.00  0.00     0.001 A 
HETATM   27  C   UNL     1      31.096  44.457  57.592  1.00  0.00     0.000 A 
HETATM   28  C   UNL     1      30.298  45.435  57.006  1.00  0.00     0.001 A 
HETATM   29  C   UNL     1      29.728  45.219  55.748  1.00  0.00     0.009 A 
ENDBRANCH  17  24
ENDBRANCH   1  17
TORSDOF 6
ENDMDL
MODEL 4
REMARK VINA RESULT:      -8.3      4.657      7.813
REMARK  6 active torsions:
REMARK  status: ('A' for Active; 'I' for Inactive)
REMARK    1  A    between atoms: C_8  and  N_9 
REMARK       I    between atoms: N_9  and  C_10 
REMARK    2  A    between atoms: C_10  and  C_11 
REMARK    3  A    between atoms: C_11  and  N_12 
REMARK    4  A    between atoms: N_12  and  C_15 
REMARK    5  A    between atoms: C_15  and  C_16 
REMARK    6  A    between atoms: C_15  and  C_22 
ROOT
HETATM    1  N   UNL     1      25.994  44.775  52.706  1.00  0.00    -0.055 N 
HETATM    2  H   UNL     1      26.296  45.455  53.406  1.00  0.00     0.278 HD
HETATM    3  H   UNL     1      25.612  43.953  53.198  1.00  0.00     0.278 HD
ENDROOT
BRANCH   1   4
HETATM    4  C   UNL     1      24.869  45.349  51.879  1.00  0.00     0.336 C 
BRANCH   4   5
HETATM    5  C   UNL     1      25.183  46.768  51.407  1.00  0.00     0.248 C 
HETATM    6  N   UNL     1      24.939  46.977  50.070  1.00  0.00    -0.322 N 
HETATM    7  H   UNL     1      24.584  46.216  49.502  1.00  0.00     0.169 HD
HETATM    8  O   UNL     1      25.604  47.569  52.236  1.00  0.00    -0.271 OA
BRANCH   6   9
HETATM    9  C   UNL     1      25.127  48.160  49.368  1.00  0.00     0.085 A 
HETATM   10  C   UNL     1      24.049  48.884  48.886  1.00  0.00     0.052 A 
HETATM   11  C   UNL     1      22.582  48.675  48.944  1.00  0.00     0.072 C 
HETATM   12  N   UNL     1      24.581  49.973  48.252  1.00  0.00    -0.280 N 
HETATM   13  H   UNL     1      24.096  50.726  47.773  1.00  0.00     0.189 HD
HETATM   14  N   UNL     1      25.913  50.014  48.291  1.00  0.00    -0.177 NA
HETATM   15  C   UNL     1      26.271  48.909  48.961  1.00  0.00     0.079 A 
HETATM   16  C   UNL     1      27.722  48.664  49.150  1.00  0.00     0.075 C 
ENDBRANCH   6   9
ENDBRANCH   4   5
ENDBRANCH   1   4
BRANCH   1  17
HETATM   17  C   UNL     1      27.193  44.267  51.950  1.00  0.00     0.252 C 
BRANCH  17  18
HETATM   18  C   UNL     1      28.346  43.947  52.885  1.00  0.00    -0.023 A 
HETATM   19  C   UNL     1      29.406  43.110  52.497  1.00  0.00     0.009 A 
HETATM   20  C   UNL     1      30.431  42.801  53.392  1.00  0.00     0.001 A 
HETATM   21  C   UNL     1      30.411  43.318  54.685  1.00  0.00     0.000 A 
HETATM   22  C   UNL     1      29.370  44.153  55.085  1.00  0.00     0.001 A 
HETATM   23  C   UNL     1      28.345  44.467  54.193  1.00  0.00     0.009 A 
ENDBRANCH  17  18
BRANCH  17  24
HETATM   24  C   UNL     1      26.844  43.118  51.010  1.00  0.00    -0.023 A 
HETATM   25  C   UNL     1      26.468  41.881  51.566  1.00  0.00     0.009 A 
HETATM   26  C   UNL     1      26.128  40.800  50.750  1.00  0.00     0.001 A 
HETATM   27  C   UNL     1      26.153  40.936  49.366  1.00  0.00     0.000 A 
HETATM   28  C   UNL     1      26.510  42.155  48.796  1.00  0.00     0.001 A 
HETATM   29  C   UNL     1      26.849  43.241  49.608  1.00  0.00     0.009 A 
ENDBRANCH  17  24
ENDBRANCH   1  17
TORSDOF 6
ENDMDL
MODEL 5
REMARK VINA RESULT:      -8.2      3.487      7.369
REMARK  6 active torsions:
REMARK  status: ('A' for Active; 'I' for Inactive)
REMARK    1  A    between atoms: C_8  and  N_9 
REMARK       I    between atoms: N_9  and  C_10 
REMARK    2  A    between atoms: C_10  and  C_11 
REMARK    3  A    between atoms: C_11  and  N_12 
REMARK    4  A    between atoms: N_12  and  C_15 
REMARK    5  A    between atoms: C_15  and  C_16 
REMARK    6  A    between atoms: C_15  and  C_22 
ROOT
HETATM    1  N   UNL     1      25.393  46.728  52.800  1.00  0.00    -0.055 N 
HETATM    2  H   UNL     1      24.727  45.964  52.931  1.00  0.00     0.278 HD
HETATM    3  H   UNL     1      24.861  47.595  52.631  1.00  0.00     0.278 HD
ENDROOT
BRANCH   1   4
HETATM    4  C   UNL     1      26.188  46.943  54.065  1.00  0.00     0.336 C 
BRANCH   4   5
HETATM    5  C   UNL     1      26.948  45.682  54.476  1.00  0.00     0.248 C 
HETATM    6  N   UNL     1      28.303  45.868  54.613  1.00  0.00    -0.322 N 
HETATM    7  H   UNL     1      28.702  46.784  54.440  1.00  0.00     0.169 HD
HETATM    8  O   UNL     1      26.301  44.653  54.648  1.00  0.00    -0.271 OA
BRANCH   6   9
HETATM    9  C   UNL     1      29.239  44.909  54.977  1.00  0.00     0.085 A 
HETATM   10  C   UNL     1      29.916  44.992  56.182  1.00  0.00     0.052 A 
HETATM   11  C   UNL     1      29.880  45.968  57.298  1.00  0.00     0.072 C 
HETATM   12  N   UNL     1      30.749  43.908  56.220  1.00  0.00    -0.280 N 
HETATM   13  H   UNL     1      31.403  43.639  56.950  1.00  0.00     0.189 HD
HETATM   14  N   UNL     1      30.660  43.129  55.142  1.00  0.00    -0.177 NA
HETATM   15  C   UNL     1      29.749  43.727  54.362  1.00  0.00     0.079 A 
HETATM   16  C   UNL     1      29.445  43.091  53.055  1.00  0.00     0.075 C 
ENDBRANCH   6   9
ENDBRANCH   4   5
ENDBRANCH   1   4
BRANCH   1  17
HETATM   17  C   UNL     1      26.184  46.492  51.541  1.00  0.00     0.252 C 
BRANCH  17  18
HETATM   18  C   UNL     1      26.050  45.057  51.060  1.00  0.00    -0.023 A 
HETATM   19  C   UNL     1      27.014  44.460  50.230  1.00  0.00     0.009 A 
HETATM   20  C   UNL     1      26.844  43.153  49.771  1.00  0.00     0.001 A 
HETATM   21  C   UNL     1      25.711  42.427  50.130  1.00  0.00     0.000 A 
HETATM   22  C   UNL     1      24.748  43.002  50.955  1.00  0.00     0.001 A 
HETATM   23  C   UNL     1      24.915  44.307  51.419  1.00  0.00     0.009 A 
ENDBRANCH  17  18
BRANCH  17  24
HETATM   24  C   UNL     1      25.873  47.521  50.458  1.00  0.00    -0.023 A 
HETATM   25  C   UNL     1      24.528  47.750  50.109  1.00  0.00     0.009 A 
HETATM   26  C   UNL     1      24.189  48.688  49.133  1.00  0.00     0.001 A 
HETATM   27  C   UNL     1      25.185  49.416  48.491  1.00  0.00     0.000 A 
HETATM   28  C   UNL     1      26.520  49.214  48.828  1.00  0.00     0.001 A 
HETATM   29  C   UNL     1      26.865  48.277  49.807  1.00  0.00     0.009 A 
ENDBRANCH  17  24
ENDBRANCH   1  17
TORSDOF 6
ENDMDL
MODEL 6
REMARK VINA RESULT:      -8.1      3.348      5.721
REMARK  6 active torsions:
REMARK  status: ('A' for Active; 'I' for Inactive)
REMARK    1  A    between atoms: C_8  and  N_9 
REMARK       I    between atoms: N_9  and  C_10 
REMARK    2  A    between atoms: C_10  and  C_11 
REMARK    3  A    between atoms: C_11  and  N_12 
REMARK    4  A    between atoms: N_12  and  C_15 
REMARK    5  A    between atoms: C_15  and  C_16 
REMARK    6  A    between atoms: C_15  and  C_22 
ROOT
HETATM    1  N   UNL     1      26.301  44.873  49.888  1.00  0.00    -0.055 N 
HETATM    2  H   UNL     1      26.995  44.430  50.491  1.00  0.00     0.278 HD
HETATM    3  H   UNL     1      26.793  45.298  49.087  1.00  0.00     0.278 HD
ENDROOT
BRANCH   1   4
HETATM    4  C   UNL     1      25.365  43.832  49.322  1.00  0.00     0.336 C 
BRANCH   4   5
HETATM    5  C   UNL     1      25.818  42.416  49.674  1.00  0.00     0.248 C 
HETATM    6  N   UNL     1      27.181  42.280  49.793  1.00  0.00    -0.322 N 
HETATM    7  H   UNL     1      27.778  43.087  49.648  1.00  0.00     0.169 HD
HETATM    8  O   UNL     1      24.954  41.556  49.819  1.00  0.00    -0.271 OA
BRANCH   6   9
HETATM    9  C   UNL     1      27.875  41.119  50.105  1.00  0.00     0.085 A 
HETATM   10  C   UNL     1      28.252  40.839  51.408  1.00  0.00     0.052 A 
HETATM   11  C   UNL     1      28.076  41.563  52.690  1.00  0.00     0.072 C 
HETATM   12  N   UNL     1      28.908  39.641  51.360  1.00  0.00    -0.280 N 
HETATM   13  H   UNL     1      29.331  39.120  52.123  1.00  0.00     0.189 HD
HETATM   14  N   UNL     1      28.980  39.121  50.134  1.00  0.00    -0.177 NA
HETATM   15  C   UNL     1      28.362  40.012  49.347  1.00  0.00     0.079 A 
HETATM   16  C   UNL     1      28.300  39.714  47.895  1.00  0.00     0.075 C 
ENDBRANCH   6   9
ENDBRANCH   4   5
ENDBRANCH   1   4
BRANCH   1  17
HETATM   17  C   UNL     1      25.662  46.024  50.620  1.00  0.00     0.252 C 
BRANCH  17  18
HETATM   18  C   UNL     1      26.117  46.083  52.068  1.00  0.00    -0.023 A 
HETATM   19  C   UNL     1      25.808  47.173  52.899  1.00  0.00     0.009 A 
HETATM   20  C   UNL     1      26.275  47.218  54.214  1.00  0.00     0.001 A 
HETATM   21  C   UNL     1      27.058  46.180  54.715  1.00  0.00     0.000 A 
HETATM   22  C   UNL     1      27.370  45.091  53.906  1.00  0.00     0.001 A 
HETATM   23  C   UNL     1      26.903  45.039  52.592  1.00  0.00     0.009 A 
ENDBRANCH  17  18
BRANCH  17  24
HETATM   24  C   UNL     1      25.830  47.348  49.882  1.00  0.00    -0.023 A 
HETATM   25  C   UNL     1      27.131  47.793  49.579  1.00  0.00     0.009 A 
HETATM   26  C   UNL     1      27.340  48.992  48.896  1.00  0.00     0.001 A 
HETATM   27  C   UNL     1      26.254  49.766  48.500  1.00  0.00     0.000 A 
HETATM   28  C   UNL     1      24.959  49.339  48.779  1.00  0.00     0.001 A 
HETATM   29  C   UNL     1      24.745  48.138  49.461  1.00  0.00     0.009 A 
ENDBRANCH  17  24
ENDBRANCH   1  17
TORSDOF 6
ENDMDL
MODEL 7
REMARK VINA RESULT:      -8.1      3.657      7.403
REMARK  6 active torsions:
REMARK  status: ('A' for Active; 'I' for Inactive)
REMARK    1  A    between atoms: C_8  and  N_9 
REMARK       I    between atoms: N_9  and  C_10 
REMARK    2  A    between atoms: C_10  and  C_11 
REMARK    3  A    between atoms: C_11  and  N_12 
REMARK    4  A    between atoms: N_12  and  C_15 
REMARK    5  A    between atoms: C_15  and  C_16 
REMARK    6  A    between atoms: C_15  and  C_22 
ROOT
HETATM    1  N   UNL     1      26.186  46.892  52.282  1.00  0.00    -0.055 N 
HETATM    2  H   UNL     1      26.331  47.887  52.458  1.00  0.00     0.278 HD
HETATM    3  H   UNL     1      27.104  46.459  52.099  1.00  0.00     0.278 HD
ENDROOT
BRANCH   1   4
HETATM    4  C   UNL     1      25.628  46.225  53.516  1.00  0.00     0.336 C 
BRANCH   4   5
HETATM    5  C   UNL     1      26.553  45.122  54.029  1.00  0.00     0.248 C 
HETATM    6  N   UNL     1      27.870  45.503  54.134  1.00  0.00    -0.322 N 
HETATM    7  H   UNL     1      28.139  46.446  53.877  1.00  0.00     0.169 HD
HETATM    8  O   UNL     1      26.053  44.034  54.299  1.00  0.00    -0.271 OA
BRANCH   6   9
HETATM    9  C   UNL     1      28.928  44.718  54.571  1.00  0.00     0.085 A 
HETATM   10  C   UNL     1      29.556  44.973  55.779  1.00  0.00     0.052 A 
HETATM   11  C   UNL     1      29.349  45.997  56.831  1.00  0.00     0.072 C 
HETATM   12  N   UNL     1      30.539  44.030  55.897  1.00  0.00    -0.280 N 
HETATM   13  H   UNL     1      31.208  43.905  56.652  1.00  0.00     0.189 HD
HETATM   14  N   UNL     1      30.592  43.183  54.868  1.00  0.00    -0.177 NA
HETATM   15  C   UNL     1      29.621  43.590  54.039  1.00  0.00     0.079 A 
HETATM   16  C   UNL     1      29.447  42.840  52.771  1.00  0.00     0.075 C 
ENDBRANCH   6   9
ENDBRANCH   4   5
ENDBRANCH   1   4
BRANCH   1  17
HETATM   17  C   UNL     1      25.400  46.716  51.010  1.00  0.00     0.252 C 
BRANCH  17  18
HETATM   18  C   UNL     1      25.658  47.853  50.035  1.00  0.00    -0.023 A 
HETATM   19  C   UNL     1      24.612  48.495  49.351  1.00  0.00     0.009 A 
HETATM   20  C   UNL     1      24.884  49.509  48.430  1.00  0.00     0.001 A 
HETATM   21  C   UNL     1      26.199  49.892  48.179  1.00  0.00     0.000 A 
HETATM   22  C   UNL     1      27.247  49.269  48.852  1.00  0.00     0.001 A 
HETATM   23  C   UNL     1      26.981  48.257  49.775  1.00  0.00     0.009 A 
ENDBRANCH  17  18
BRANCH  17  24
HETATM   24  C   UNL     1      25.596  45.336  50.391  1.00  0.00    -0.023 A 
HETATM   25  C   UNL     1      24.512  44.735  49.724  1.00  0.00     0.009 A 
HETATM   26  C   UNL     1      24.642  43.478  49.130  1.00  0.00     0.001 A 
HETATM   27  C   UNL     1      25.856  42.802  49.188  1.00  0.00     0.000 A 
HETATM   28  C   UNL     1      26.943  43.384  49.833  1.00  0.00     0.001 A 
HETATM   29  C   UNL     1      26.820  44.643  50.427  1.00  0.00     0.009 A 
ENDBRANCH  17  24
ENDBRANCH   1  17
TORSDOF 6
ENDMDL
MODEL 8
REMARK VINA RESULT:      -8.0      1.909      4.635
REMARK  6 active torsions:
REMARK  status: ('A' for Active; 'I' for Inactive)
REMARK    1  A    between atoms: C_8  and  N_9 
REMARK       I    between atoms: N_9  and  C_10 
REMARK    2  A    between atoms: C_10  and  C_11 
REMARK    3  A    between atoms: C_11  and  N_12 
REMARK    4  A    between atoms: N_12  and  C_15 
REMARK    5  A    between atoms: C_15  and  C_16 
REMARK    6  A    between atoms: C_15  and  C_22 
ROOT
HETATM    1  N   UNL     1      27.197  41.924  53.735  1.00  0.00    -0.055 N 
HETATM    2  H   UNL     1      26.340  41.571  53.307  1.00  0.00     0.278 HD
HETATM    3  H   UNL     1      27.258  41.548  54.694  1.00  0.00     0.278 HD
ENDROOT
BRANCH   1   4
HETATM    4  C   UNL     1      28.402  41.407  52.986  1.00  0.00     0.336 C 
BRANCH   4   5
HETATM    5  C   UNL     1      27.999  40.657  51.718  1.00  0.00     0.248 C 
HETATM    6  N   UNL     1      29.016  39.918  51.161  1.00  0.00    -0.322 N 
HETATM    7  H   UNL     1      29.929  39.913  51.601  1.00  0.00     0.169 HD
HETATM    8  O   UNL     1      26.841  40.773  51.326  1.00  0.00    -0.271 OA
BRANCH   6   9
HETATM    9  C   UNL     1      28.942  39.137  50.016  1.00  0.00     0.085 A 
HETATM   10  C   UNL     1      29.235  37.783  50.053  1.00  0.00     0.052 A 
HETATM   11  C   UNL     1      29.658  36.869  51.141  1.00  0.00     0.072 C 
HETATM   12  N   UNL     1      29.068  37.328  48.775  1.00  0.00    -0.280 N 
HETATM   13  H   UNL     1      29.197  36.385  48.417  1.00  0.00     0.189 HD
HETATM   14  N   UNL     1      28.685  38.274  47.917  1.00  0.00    -0.177 NA
HETATM   15  C   UNL     1      28.610  39.392  48.652  1.00  0.00     0.079 A 
HETATM   16  C   UNL     1      28.221  40.643  47.955  1.00  0.00     0.075 C 
ENDBRANCH   6   9
ENDBRANCH   4   5
ENDBRANCH   1   4
BRANCH   1  17
HETATM   17  C   UNL     1      27.097  43.418  53.898  1.00  0.00     0.252 C 
BRANCH  17  18
HETATM   18  C   UNL     1      28.328  43.986  54.583  1.00  0.00    -0.023 A 
HETATM   19  C   UNL     1      29.493  43.222  54.767  1.00  0.00     0.009 A 
HETATM   20  C   UNL     1      30.595  43.759  55.436  1.00  0.00     0.001 A 
HETATM   21  C   UNL     1      30.548  45.059  55.932  1.00  0.00     0.000 A 
HETATM   22  C   UNL     1      29.402  45.831  55.755  1.00  0.00     0.001 A 
HETATM   23  C   UNL     1      28.300  45.301  55.084  1.00  0.00     0.009 A 
ENDBRANCH  17  18
BRANCH  17  24
HETATM   24  C   UNL     1      26.756  44.124  52.589  1.00  0.00    -0.023 A 
HETATM   25  C   UNL     1      25.490  44.723  52.455  1.00  0.00     0.009 A 
HETATM   26  C   UNL     1      25.132  45.391  51.282  1.00  0.00     0.001 A 
HETATM   27  C   UNL     1      26.033  45.476  50.226  1.00  0.00     0.000 A 
HETATM   28  C   UNL     1      27.295  44.901  50.343  1.00  0.00     0.001 A 
HETATM   29  C   UNL     1      27.659  44.233  51.516  1.00  0.00     0.009 A 
ENDBRANCH  17  24
ENDBRANCH   1  17
TORSDOF 6
ENDMDL
MODEL 9
REMARK VINA RESULT:      -7.9      5.081      7.276
REMARK  6 active torsions:
REMARK  status: ('A' for Active; 'I' for Inactive)
REMARK    1  A    between atoms: C_8  and  N_9 
REMARK       I    between atoms: N_9  and  C_10 
REMARK    2  A    between atoms: C_10  and  C_11 
REMARK    3  A    between atoms: C_11  and  N_12 
REMARK    4  A    between atoms: N_12  and  C_15 
REMARK    5  A    between atoms: C_15  and  C_16 
REMARK    6  A    between atoms: C_15  and  C_22 
ROOT
HETATM    1  N   UNL     1      26.068  45.229  51.587  1.00  0.00    -0.055 N 
HETATM    2  H   UNL     1      26.553  44.609  50.936  1.00  0.00     0.278 HD
HETATM    3  H   UNL     1      26.491  46.167  51.515  1.00  0.00     0.278 HD
ENDROOT
BRANCH   1   4
HETATM    4  C   UNL     1      24.620  45.371  51.185  1.00  0.00     0.336 C 
BRANCH   4   5
HETATM    5  C   UNL     1      24.466  46.193  49.906  1.00  0.00     0.248 C 
HETATM    6  N   UNL     1      24.399  47.549  50.120  1.00  0.00    -0.322 N 
HETATM    7  H   UNL     1      24.451  47.909  51.067  1.00  0.00     0.169 HD
HETATM    8  O   UNL     1      24.424  45.590  48.838  1.00  0.00    -0.271 OA
BRANCH   6   9
HETATM    9  C   UNL     1      24.263  48.536  49.153  1.00  0.00     0.085 A 
HETATM   10  C   UNL     1      23.021  48.865  48.637  1.00  0.00     0.052 A 
HETATM   11  C   UNL     1      21.651  48.359  48.895  1.00  0.00     0.072 C 
HETATM   12  N   UNL     1      23.245  49.855  47.721  1.00  0.00    -0.280 N 
HETATM   13  H   UNL     1      22.570  50.343  47.138  1.00  0.00     0.189 HD
HETATM   14  N   UNL     1      24.529  50.197  47.609  1.00  0.00    -0.177 NA
HETATM   15  C   UNL     1      25.173  49.396  48.469  1.00  0.00     0.079 A 
HETATM   16  C   UNL     1      26.649  49.530  48.553  1.00  0.00     0.075 C 
ENDBRANCH   6   9
ENDBRANCH   4   5
ENDBRANCH   1   4
BRANCH   1  17
HETATM   17  C   UNL     1      26.333  44.780  53.000  1.00  0.00     0.252 C 
BRANCH  17  18
HETATM   18  C   UNL     1      27.419  43.719  53.051  1.00  0.00    -0.023 A 
HETATM   19  C   UNL     1      27.261  42.531  53.785  1.00  0.00     0.009 A 
HETATM   20  C   UNL     1      28.293  41.593  53.847  1.00  0.00     0.001 A 
HETATM   21  C   UNL     1      29.495  41.828  53.183  1.00  0.00     0.000 A 
HETATM   22  C   UNL     1      29.665  42.998  52.447  1.00  0.00     0.001 A 
HETATM   23  C   UNL     1      28.636  43.938  52.379  1.00  0.00     0.009 A 
ENDBRANCH  17  18
BRANCH  17  24
HETATM   24  C   UNL     1      26.589  45.950  53.944  1.00  0.00    -0.023 A 
HETATM   25  C   UNL     1      27.628  45.842  54.887  1.00  0.00     0.009 A 
HETATM   26  C   UNL     1      27.911  46.888  55.767  1.00  0.00     0.001 A 
HETATM   27  C   UNL     1      27.165  48.061  55.718  1.00  0.00     0.000 A 
HETATM   28  C   UNL     1      26.141  48.193  54.785  1.00  0.00     0.001 A 
HETATM   29  C   UNL     1      25.855  47.149  53.900  1.00  0.00     0.009 A 
ENDBRANCH  17  24
ENDBRANCH   1  17
TORSDOF 6
ENDMDL
MODEL 10
REMARK VINA RESULT:      -7.9      4.446      6.807
REMARK  6 active torsions:
REMARK  status: ('A' for Active; 'I' for Inactive)
REMARK    1  A    between atoms: C_8  and  N_9 
REMARK       I    between atoms: N_9  and  C_10 
REMARK    2  A    between atoms: C_10  and  C_11 
REMARK    3  A    between atoms: C_11  and  N_12 
REMARK    4  A    between atoms: N_12  and  C_15 
REMARK    5  A    between atoms: C_15  and  C_16 
REMARK    6  A    between atoms: C_15  and  C_22 
ROOT
HETATM    1  N   UNL     1      27.146  45.157  52.536  1.00  0.00    -0.055 N 
HETATM    2  H   UNL     1      27.645  45.034  51.654  1.00  0.00     0.278 HD
HETATM    3  H   UNL     1      27.498  46.013  52.990  1.00  0.00     0.278 HD
ENDROOT
BRANCH   1   4
HETATM    4  C   UNL     1      25.676  45.376  52.272  1.00  0.00     0.336 C 
BRANCH   4   5
HETATM    5  C   UNL     1      25.404  46.774  51.718  1.00  0.00     0.248 C 
HETATM    6  N   UNL     1      25.444  46.846  50.345  1.00  0.00    -0.322 N 
HETATM    7  H   UNL     1      25.643  46.011  49.806  1.00  0.00     0.169 HD
HETATM    8  O   UNL     1      25.175  47.675  52.519  1.00  0.00    -0.271 OA
BRANCH   6   9
HETATM    9  C   UNL     1      25.235  47.977  49.568  1.00  0.00     0.085 A 
HETATM   10  C   UNL     1      26.298  48.739  49.111  1.00  0.00     0.052 A 
HETATM   11  C   UNL     1      27.768  48.624  49.273  1.00  0.00     0.072 C 
HETATM   12  N   UNL     1      25.746  49.761  48.391  1.00  0.00    -0.280 N 
HETATM   13  H   UNL     1      26.217  50.521  47.908  1.00  0.00     0.189 HD
HETATM   14  N   UNL     1      24.414  49.719  48.341  1.00  0.00    -0.177 NA
HETATM   15  C   UNL     1      24.077  48.641  49.062  1.00  0.00     0.079 A 
HETATM   16  C   UNL     1      22.631  48.341  49.208  1.00  0.00     0.075 C 
ENDBRANCH   6   9
ENDBRANCH   4   5
ENDBRANCH   1   4
BRANCH   1  17
HETATM   17  C   UNL     1      27.500  44.032  53.473  1.00  0.00     0.252 C 
BRANCH  17  18
HETATM   18  C   UNL     1      27.809  42.753  52.715  1.00  0.00    -0.023 A 
HETATM   19  C   UNL     1      28.288  41.603  53.365  1.00  0.00     0.009 A 
HETATM   20  C   UNL     1      28.602  40.454  52.636  1.00  0.00     0.001 A 
HETATM   21  C   UNL     1      28.448  40.440  51.252  1.00  0.00     0.000 A 
HETATM   22  C   UNL     1      27.971  41.570  50.592  1.00  0.00     0.001 A 
HETATM   23  C   UNL     1      27.652  42.719  51.317  1.00  0.00     0.009 A 
ENDBRANCH  17  18
BRANCH  17  24
HETATM   24  C   UNL     1      28.591  44.423  54.464  1.00  0.00    -0.023 A 
HETATM   25  C   UNL     1      28.428  45.599  55.220  1.00  0.00     0.009 A 
HETATM   26  C   UNL     1      29.392  45.996  56.149  1.00  0.00     0.001 A 
HETATM   27  C   UNL     1      30.533  45.224  56.342  1.00  0.00     0.000 A 
HETATM   28  C   UNL     1      30.708  44.051  55.614  1.00  0.00     0.001 A 
HETATM   29  C   UNL     1      29.745  43.648  54.684  1.00  0.00     0.009 A 
ENDBRANCH  17  24
ENDBRANCH   1  17
TORSDOF 6
ENDMDL
