MODEL 1
REMARK VINA RESULT:      -9.3      0.000      0.000
REMARK  5 active torsions:
REMARK  status: ('A' for Active; 'I' for Inactive)
REMARK    1  A    between atoms: C_7  and  C_8 
REMARK    2  A    between atoms: N_9  and  N_10 
REMARK       I    between atoms: N_10  and  C_11 
REMARK    3  A    between atoms: C_11  and  C_12 
REMARK    4  A    between atoms: C_12  and  N_13 
REMARK    5  A    between atoms: N_13  and  C_14 
ROOT
HETATM    1  N   UNL     1      25.945  46.237  52.475  1.00  0.00    -0.246 N 
HETATM    2  C   UNL     1      25.974  46.270  53.866  1.00  0.00     0.250 C 
HETATM    3  O   UNL     1      25.711  47.243  54.571  1.00  0.00    -0.270 OA
HETATM    4  H   UNL     1      26.298  45.410  52.002  1.00  0.00     0.192 HD
ENDROOT
BRANCH   1   5
HETATM    5  N   UNL     1      25.841  47.331  51.649  1.00  0.00    -0.184 NA
HETATM    6  C   UNL     1      25.636  47.146  50.383  1.00  0.00     0.153 C 
BRANCH   6   7
HETATM    7  C   UNL     1      25.441  48.286  49.499  1.00  0.00     0.018 A 
HETATM    8  C   UNL     1      26.416  49.111  48.951  1.00  0.00     0.018 A 
HETATM    9  C   UNL     1      27.897  49.099  49.078  1.00  0.00     0.069 C 
HETATM   10  N   UNL     1      25.780  50.059  48.189  1.00  0.00    -0.358 N 
HETATM   11  H   UNL     1      26.242  50.795  47.673  1.00  0.00     0.166 HD
HETATM   12  C   UNL     1      24.419  49.882  48.224  1.00  0.00     0.043 A 
HETATM   13  C   UNL     1      24.172  48.776  49.036  1.00  0.00     0.004 A 
HETATM   14  C   UNL     1      23.399  50.615  47.606  1.00  0.00     0.030 A 
HETATM   15  C   UNL     1      22.831  48.385  49.242  1.00  0.00     0.014 A 
HETATM   16  C   UNL     1      21.798  49.106  48.632  1.00  0.00     0.001 A 
HETATM   17  C   UNL     1      22.081  50.205  47.825  1.00  0.00     0.002 A 
ENDBRANCH   6   7
ENDBRANCH   1   5
BRANCH   2  18
HETATM   18  C   UNL     1      26.363  44.925  54.493  1.00  0.00     0.197 C 
BRANCH  18  19
HETATM   19  N   UNL     1      27.597  44.396  53.900  1.00  0.00    -0.282 NA
HETATM   20  H   UNL     1      27.765  44.815  52.979  1.00  0.00     0.128 HD
BRANCH  19  21
HETATM   21  C   UNL     1      28.774  44.424  54.666  1.00  0.00     0.047 A 
HETATM   22  C   UNL     1      29.572  43.272  54.763  1.00  0.00     0.137 A 
HETATM   23  F   UNL     1      29.234  42.179  54.059  1.00  0.00    -0.204 F 
HETATM   24  C   UNL     1      30.716  43.229  55.556  1.00  0.00     0.044 A 
HETATM   25  C   UNL     1      31.077  44.350  56.298  1.00  0.00     0.003 A 
HETATM   26  C   UNL     1      30.286  45.498  56.244  1.00  0.00     0.002 A 
HETATM   27  C   UNL     1      29.140  45.531  55.441  1.00  0.00     0.026 A 
ENDBRANCH  19  21
ENDBRANCH  18  19
ENDBRANCH   2  18
TORSDOF 5
ENDMDL
MODEL 2
REMARK VINA RESULT:      -9.0      3.090      9.437
REMARK  5 active torsions:
REMARK  status: ('A' for Active; 'I' for Inactive)
REMARK    1  A    between atoms: C_7  and  C_8 
REMARK    2  A    between atoms: N_9  and  N_10 
REMARK       I    between atoms: N_10  and  C_11 
REMARK    3  A    between atoms: C_11  and  C_12 
REMARK    4  A    between atoms: C_12  and  N_13 
REMARK    5  A    between atoms: N_13  and  C_14 
ROOT
HETATM    1  N   UNL     1      25.116  47.196  51.414  1.00  0.00    -0.246 N 
HETATM    2  C   UNL     1      25.319  47.543  50.081  1.00  0.00     0.250 C 
HETATM    3  O   UNL     1      26.410  47.703  49.536  1.00  0.00    -0.270 OA
HETATM    4  H   UNL     1      24.167  47.210  51.779  1.00  0.00     0.192 HD
ENDROOT
BRANCH   1   5
HETATM    5  N   UNL     1      26.076  47.196  52.398  1.00  0.00    -0.184 NA
HETATM    6  C   UNL     1      26.098  46.224  53.255  1.00  0.00     0.153 C 
BRANCH   6   7
HETATM    7  C   UNL     1      27.151  46.156  54.257  1.00  0.00     0.018 A 
HETATM    8  C   UNL     1      27.389  47.043  55.300  1.00  0.00     0.018 A 
HETATM    9  C   UNL     1      26.681  48.283  55.715  1.00  0.00     0.069 C 
HETATM   10  N   UNL     1      28.489  46.594  55.988  1.00  0.00    -0.358 N 
HETATM   11  H   UNL     1      28.892  47.046  56.797  1.00  0.00     0.166 HD
HETATM   12  C   UNL     1      28.980  45.442  55.425  1.00  0.00     0.043 A 
HETATM   13  C   UNL     1      28.163  45.139  54.337  1.00  0.00     0.004 A 
HETATM   14  C   UNL     1      30.080  44.658  55.793  1.00  0.00     0.030 A 
HETATM   15  C   UNL     1      28.465  43.989  53.575  1.00  0.00     0.014 A 
HETATM   16  C   UNL     1      29.561  43.193  53.928  1.00  0.00     0.001 A 
HETATM   17  C   UNL     1      30.356  43.525  55.023  1.00  0.00     0.002 A 
ENDBRANCH   6   7
ENDBRANCH   1   5
BRANCH   2  18
HETATM   18  C   UNL     1      24.013  47.701  49.294  1.00  0.00     0.197 C 
BRANCH  18  19
HETATM   19  N   UNL     1      23.081  48.604  49.979  1.00  0.00    -0.282 NA
HETATM   20  H   UNL     1      23.591  49.281  50.556  1.00  0.00     0.128 HD
BRANCH  19  21
HETATM   21  C   UNL     1      22.101  49.260  49.217  1.00  0.00     0.047 A 
HETATM   22  C   UNL     1      22.112  50.662  49.122  1.00  0.00     0.137 A 
HETATM   23  F   UNL     1      23.108  51.351  49.704  1.00  0.00    -0.204 F 
HETATM   24  C   UNL     1      21.130  51.365  48.429  1.00  0.00     0.044 A 
HETATM   25  C   UNL     1      20.087  50.668  47.826  1.00  0.00     0.003 A 
HETATM   26  C   UNL     1      20.034  49.278  47.929  1.00  0.00     0.002 A 
HETATM   27  C   UNL     1      21.029  48.581  48.626  1.00  0.00     0.026 A 
ENDBRANCH  19  21
ENDBRANCH  18  19
ENDBRANCH   2  18
TORSDOF 5
ENDMDL
MODEL 3
REMARK VINA RESULT:      -8.8      3.771      9.418
REMARK  5 active torsions:
REMARK  status: ('A' for Active; 'I' for Inactive)
REMARK    1  A    between atoms: C_7  and  C_8 
REMARK    2  A    between atoms: N_9  and  N_10 
REMARK       I    between atoms: N_10  and  C_11 
REMARK    3  A    between atoms: C_11  and  C_12 
REMARK    4  A    between atoms: C_12  and  N_13 
REMARK    5  A    between atoms: N_13  and  C_14 
ROOT
HETATM    1  N   UNL     1      23.758  46.824  49.766  1.00  0.00    -0.246 N 
HETATM    2  C   UNL     1      23.330  48.110  49.445  1.00  0.00     0.250 C 
HETATM    3  O   UNL     1      23.953  49.150  49.653  1.00  0.00    -0.270 OA
HETATM    4  H   UNL     1      23.104  46.055  49.653  1.00  0.00     0.192 HD
ENDROOT
BRANCH   1   5
HETATM    5  N   UNL     1      24.831  46.513  50.567  1.00  0.00    -0.184 NA
HETATM    6  C   UNL     1      24.688  45.609  51.485  1.00  0.00     0.153 C 
BRANCH   6   7
HETATM    7  C   UNL     1      25.828  45.201  52.293  1.00  0.00     0.018 A 
HETATM    8  C   UNL     1      26.539  44.010  52.217  1.00  0.00     0.018 A 
HETATM    9  C   UNL     1      26.381  42.827  51.330  1.00  0.00     0.069 C 
HETATM   10  N   UNL     1      27.524  44.049  53.173  1.00  0.00    -0.358 N 
HETATM   11  H   UNL     1      28.193  43.313  53.348  1.00  0.00     0.166 HD
HETATM   12  C   UNL     1      27.475  45.228  53.876  1.00  0.00     0.043 A 
HETATM   13  C   UNL     1      26.423  45.975  53.348  1.00  0.00     0.004 A 
HETATM   14  C   UNL     1      28.275  45.681  54.931  1.00  0.00     0.030 A 
HETATM   15  C   UNL     1      26.157  47.243  53.909  1.00  0.00     0.014 A 
HETATM   16  C   UNL     1      26.947  47.712  54.966  1.00  0.00     0.001 A 
HETATM   17  C   UNL     1      27.991  46.940  55.468  1.00  0.00     0.002 A 
ENDBRANCH   6   7
ENDBRANCH   1   5
BRANCH   2  18
HETATM   18  C   UNL     1      21.959  48.135  48.758  1.00  0.00     0.197 C 
BRANCH  18  19
HETATM   19  N   UNL     1      20.900  48.531  49.693  1.00  0.00    -0.282 NA
HETATM   20  H   UNL     1      21.220  48.439  50.663  1.00  0.00     0.128 HD
BRANCH  19  21
HETATM   21  C   UNL     1      20.272  49.773  49.507  1.00  0.00     0.047 A 
HETATM   22  C   UNL     1      19.098  50.076  50.217  1.00  0.00     0.137 A 
HETATM   23  F   UNL     1      18.634  49.198  51.121  1.00  0.00    -0.204 F 
HETATM   24  C   UNL     1      18.405  51.269  50.025  1.00  0.00     0.044 A 
HETATM   25  C   UNL     1      18.867  52.187  49.087  1.00  0.00     0.003 A 
HETATM   26  C   UNL     1      20.013  51.899  48.346  1.00  0.00     0.002 A 
HETATM   27  C   UNL     1      20.705  50.698  48.549  1.00  0.00     0.026 A 
ENDBRANCH  19  21
ENDBRANCH  18  19
ENDBRANCH   2  18
TORSDOF 5
ENDMDL
MODEL 4
REMARK VINA RESULT:      -8.8      5.158      8.730
REMARK  5 active torsions:
REMARK  status: ('A' for Active; 'I' for Inactive)
REMARK    1  A    between atoms: C_7  and  C_8 
REMARK    2  A    between atoms: N_9  and  N_10 
REMARK       I    between atoms: N_10  and  C_11 
REMARK    3  A    between atoms: C_11  and  C_12 
REMARK    4  A    between atoms: C_12  and  N_13 
REMARK    5  A    between atoms: N_13  and  C_14 
ROOT
HETATM    1  N   UNL     1      27.145  42.151  52.271  1.00  0.00    -0.246 N 
HETATM    2  C   UNL     1      26.218  42.493  51.290  1.00  0.00     0.250 C 
HETATM    3  O   UNL     1      25.677  43.590  51.161  1.00  0.00    -0.270 OA
HETATM    4  H   UNL     1      27.432  41.179  52.347  1.00  0.00     0.192 HD
ENDROOT
BRANCH   1   5
HETATM    5  N   UNL     1      27.442  42.894  53.389  1.00  0.00    -0.184 NA
HETATM    6  C   UNL     1      28.468  43.684  53.364  1.00  0.00     0.153 C 
BRANCH   6   7
HETATM    7  C   UNL     1      28.758  44.542  54.504  1.00  0.00     0.018 A 
HETATM    8  C   UNL     1      28.160  45.755  54.827  1.00  0.00     0.018 A 
HETATM    9  C   UNL     1      27.082  46.528  54.155  1.00  0.00     0.069 C 
HETATM   10  N   UNL     1      28.750  46.218  55.977  1.00  0.00    -0.358 N 
HETATM   11  H   UNL     1      28.515  47.083  56.442  1.00  0.00     0.166 HD
HETATM   12  C   UNL     1      29.719  45.348  56.413  1.00  0.00     0.043 A 
HETATM   13  C   UNL     1      29.749  44.285  55.512  1.00  0.00     0.004 A 
HETATM   14  C   UNL     1      30.565  45.427  57.525  1.00  0.00     0.030 A 
HETATM   15  C   UNL     1      30.678  43.245  55.736  1.00  0.00     0.014 A 
HETATM   16  C   UNL     1      31.532  43.307  56.844  1.00  0.00     0.001 A 
HETATM   17  C   UNL     1      31.474  44.384  57.725  1.00  0.00     0.002 A 
ENDBRANCH   6   7
ENDBRANCH   1   5
BRANCH   2  18
HETATM   18  C   UNL     1      25.919  41.346  50.317  1.00  0.00     0.197 C 
BRANCH  18  19
HETATM   19  N   UNL     1      26.471  40.076  50.801  1.00  0.00    -0.282 NA
HETATM   20  H   UNL     1      25.730  39.484  51.190  1.00  0.00     0.128 HD
BRANCH  19  21
HETATM   21  C   UNL     1      27.284  39.326  49.936  1.00  0.00     0.047 A 
HETATM   22  C   UNL     1      28.644  39.143  50.238  1.00  0.00     0.137 A 
HETATM   23  F   UNL     1      29.130  39.627  51.393  1.00  0.00    -0.204 F 
HETATM   24  C   UNL     1      29.506  38.458  49.385  1.00  0.00     0.044 A 
HETATM   25  C   UNL     1      29.021  37.956  48.181  1.00  0.00     0.003 A 
HETATM   26  C   UNL     1      27.683  38.150  47.841  1.00  0.00     0.002 A 
HETATM   27  C   UNL     1      26.824  38.837  48.708  1.00  0.00     0.026 A 
ENDBRANCH  19  21
ENDBRANCH  18  19
ENDBRANCH   2  18
TORSDOF 5
ENDMDL
MODEL 5
REMARK VINA RESULT:      -8.8      2.726      9.204
REMARK  5 active torsions:
REMARK  status: ('A' for Active; 'I' for Inactive)
REMARK    1  A    between atoms: C_7  and  C_8 
REMARK    2  A    between atoms: N_9  and  N_10 
REMARK       I    between atoms: N_10  and  C_11 
REMARK    3  A    between atoms: C_11  and  C_12 
REMARK    4  A    between atoms: C_12  and  N_13 
REMARK    5  A    between atoms: N_13  and  C_14 
ROOT
HETATM    1  N   UNL     1      25.723  45.163  51.358  1.00  0.00    -0.246 N 
HETATM    2  C   UNL     1      25.628  45.853  50.153  1.00  0.00     0.250 C 
HETATM    3  O   UNL     1      26.559  46.103  49.389  1.00  0.00    -0.270 OA
HETATM    4  H   UNL     1      24.904  45.123  51.959  1.00  0.00     0.192 HD
ENDROOT
BRANCH   1   5
HETATM    5  N   UNL     1      26.890  44.843  52.010  1.00  0.00    -0.184 NA
HETATM    6  C   UNL     1      26.877  43.898  52.895  1.00  0.00     0.153 C 
BRANCH   6   7
HETATM    7  C   UNL     1      28.114  43.483  53.542  1.00  0.00     0.018 A 
HETATM    8  C   UNL     1      28.832  42.312  53.328  1.00  0.00     0.018 A 
HETATM    9  C   UNL     1      28.588  41.164  52.416  1.00  0.00     0.069 C 
HETATM   10  N   UNL     1      29.924  42.335  54.160  1.00  0.00    -0.358 N 
HETATM   11  H   UNL     1      30.623  41.608  54.220  1.00  0.00     0.166 HD
HETATM   12  C   UNL     1      29.940  43.483  54.913  1.00  0.00     0.043 A 
HETATM   13  C   UNL     1      28.819  44.227  54.549  1.00  0.00     0.004 A 
HETATM   14  C   UNL     1      30.855  43.911  55.883  1.00  0.00     0.030 A 
HETATM   15  C   UNL     1      28.600  45.464  55.193  1.00  0.00     0.014 A 
HETATM   16  C   UNL     1      29.504  45.907  56.166  1.00  0.00     0.001 A 
HETATM   17  C   UNL     1      30.615  45.140  56.504  1.00  0.00     0.002 A 
ENDBRANCH   6   7
ENDBRANCH   1   5
BRANCH   2  18
HETATM   18  C   UNL     1      24.195  46.289  49.819  1.00  0.00     0.197 C 
BRANCH  18  19
HETATM   19  N   UNL     1      23.920  47.644  50.309  1.00  0.00    -0.282 NA
HETATM   20  H   UNL     1      24.709  47.997  50.861  1.00  0.00     0.128 HD
BRANCH  19  21
HETATM   21  C   UNL     1      23.502  48.617  49.388  1.00  0.00     0.047 A 
HETATM   22  C   UNL     1      24.453  49.434  48.753  1.00  0.00     0.137 A 
HETATM   23  F   UNL     1      25.759  49.221  48.984  1.00  0.00    -0.204 F 
HETATM   24  C   UNL     1      24.086  50.453  47.877  1.00  0.00     0.044 A 
HETATM   25  C   UNL     1      22.737  50.693  47.632  1.00  0.00     0.003 A 
HETATM   26  C   UNL     1      21.771  49.918  48.272  1.00  0.00     0.002 A 
HETATM   27  C   UNL     1      22.150  48.893  49.148  1.00  0.00     0.026 A 
ENDBRANCH  19  21
ENDBRANCH  18  19
ENDBRANCH   2  18
TORSDOF 5
ENDMDL
MODEL 6
REMARK VINA RESULT:      -8.7      5.465      9.277
REMARK  5 active torsions:
REMARK  status: ('A' for Active; 'I' for Inactive)
REMARK    1  A    between atoms: C_7  and  C_8 
REMARK    2  A    between atoms: N_9  and  N_10 
REMARK       I    between atoms: N_10  and  C_11 
REMARK    3  A    between atoms: C_11  and  C_12 
REMARK    4  A    between atoms: C_12  and  N_13 
REMARK    5  A    between atoms: N_13  and  C_14 
ROOT
HETATM    1  N   UNL     1      27.352  42.079  52.432  1.00  0.00    -0.246 N 
HETATM    2  C   UNL     1      28.099  41.036  51.892  1.00  0.00     0.250 C 
HETATM    3  O   UNL     1      29.047  40.470  52.435  1.00  0.00    -0.270 OA
HETATM    4  H   UNL     1      26.670  42.544  51.839  1.00  0.00     0.192 HD
ENDROOT
BRANCH   1   5
HETATM    5  N   UNL     1      27.680  42.803  53.554  1.00  0.00    -0.184 NA
HETATM    6  C   UNL     1      28.447  43.840  53.430  1.00  0.00     0.153 C 
BRANCH   6   7
HETATM    7  C   UNL     1      28.745  44.672  54.587  1.00  0.00     0.018 A 
HETATM    8  C   UNL     1      28.159  45.884  54.934  1.00  0.00     0.018 A 
HETATM    9  C   UNL     1      27.093  46.683  54.275  1.00  0.00     0.069 C 
HETATM   10  N   UNL     1      28.753  46.318  56.094  1.00  0.00    -0.358 N 
HETATM   11  H   UNL     1      28.526  47.176  56.576  1.00  0.00     0.166 HD
HETATM   12  C   UNL     1      29.711  45.428  56.514  1.00  0.00     0.043 A 
HETATM   13  C   UNL     1      29.730  44.383  55.592  1.00  0.00     0.004 A 
HETATM   14  C   UNL     1      30.555  45.475  57.630  1.00  0.00     0.030 A 
HETATM   15  C   UNL     1      30.647  43.328  55.797  1.00  0.00     0.014 A 
HETATM   16  C   UNL     1      31.499  43.358  56.908  1.00  0.00     0.001 A 
HETATM   17  C   UNL     1      31.452  44.418  57.810  1.00  0.00     0.002 A 
ENDBRANCH   6   7
ENDBRANCH   1   5
BRANCH   2  18
HETATM   18  C   UNL     1      27.617  40.607  50.500  1.00  0.00     0.197 C 
BRANCH  18  19
HETATM   19  N   UNL     1      28.745  40.389  49.588  1.00  0.00    -0.282 NA
HETATM   20  H   UNL     1      29.550  40.002  50.092  1.00  0.00     0.128 HD
BRANCH  19  21
HETATM   21  C   UNL     1      28.521  39.661  48.408  1.00  0.00     0.047 A 
HETATM   22  C   UNL     1      28.850  38.295  48.356  1.00  0.00     0.137 A 
HETATM   23  F   UNL     1      29.306  37.688  49.463  1.00  0.00    -0.204 F 
HETATM   24  C   UNL     1      28.702  37.543  47.193  1.00  0.00     0.044 A 
HETATM   25  C   UNL     1      28.237  38.157  46.034  1.00  0.00     0.003 A 
HETATM   26  C   UNL     1      27.931  39.518  46.049  1.00  0.00     0.002 A 
HETATM   27  C   UNL     1      28.080  40.265  47.224  1.00  0.00     0.026 A 
ENDBRANCH  19  21
ENDBRANCH  18  19
ENDBRANCH   2  18
TORSDOF 5
ENDMDL
MODEL 7
REMARK VINA RESULT:      -8.3      5.222      9.076
REMARK  5 active torsions:
REMARK  status: ('A' for Active; 'I' for Inactive)
REMARK    1  A    between atoms: C_7  and  C_8 
REMARK    2  A    between atoms: N_9  and  N_10 
REMARK       I    between atoms: N_10  and  C_11 
REMARK    3  A    between atoms: C_11  and  C_12 
REMARK    4  A    between atoms: C_12  and  N_13 
REMARK    5  A    between atoms: N_13  and  C_14 
ROOT
HETATM    1  N   UNL     1      27.289  42.169  52.572  1.00  0.00    -0.246 N 
HETATM    2  C   UNL     1      28.034  41.169  51.954  1.00  0.00     0.250 C 
HETATM    3  O   UNL     1      29.036  40.625  52.417  1.00  0.00    -0.270 OA
HETATM    4  H   UNL     1      26.552  42.623  52.039  1.00  0.00     0.192 HD
ENDROOT
BRANCH   1   5
HETATM    5  N   UNL     1      27.665  42.876  53.689  1.00  0.00    -0.184 NA
HETATM    6  C   UNL     1      28.449  43.898  53.551  1.00  0.00     0.153 C 
BRANCH   6   7
HETATM    7  C   UNL     1      28.799  44.713  54.706  1.00  0.00     0.018 A 
HETATM    8  C   UNL     1      28.258  45.940  55.074  1.00  0.00     0.018 A 
HETATM    9  C   UNL     1      27.200  46.774  54.446  1.00  0.00     0.069 C 
HETATM   10  N   UNL     1      28.892  46.348  56.221  1.00  0.00    -0.358 N 
HETATM   11  H   UNL     1      28.702  47.209  56.714  1.00  0.00     0.166 HD
HETATM   12  C   UNL     1      29.833  45.428  56.613  1.00  0.00     0.043 A 
HETATM   13  C   UNL     1      29.799  44.389  55.685  1.00  0.00     0.004 A 
HETATM   14  C   UNL     1      30.705  45.442  57.708  1.00  0.00     0.030 A 
HETATM   15  C   UNL     1      30.689  43.306  55.861  1.00  0.00     0.014 A 
HETATM   16  C   UNL     1      31.568  43.304  56.951  1.00  0.00     0.001 A 
HETATM   17  C   UNL     1      31.574  44.358  57.860  1.00  0.00     0.002 A 
ENDBRANCH   6   7
ENDBRANCH   1   5
BRANCH   2  18
HETATM   18  C   UNL     1      27.475  40.758  50.586  1.00  0.00     0.197 C 
BRANCH  18  19
HETATM   19  N   UNL     1      26.910  41.909  49.872  1.00  0.00    -0.282 NA
HETATM   20  H   UNL     1      27.565  42.250  49.161  1.00  0.00     0.128 HD
BRANCH  19  21
HETATM   21  C   UNL     1      25.622  41.791  49.326  1.00  0.00     0.047 A 
HETATM   22  C   UNL     1      24.555  42.510  49.892  1.00  0.00     0.137 A 
HETATM   23  F   UNL     1      24.799  43.359  50.904  1.00  0.00    -0.204 F 
HETATM   24  C   UNL     1      23.248  42.384  49.426  1.00  0.00     0.044 A 
HETATM   25  C   UNL     1      22.976  41.504  48.383  1.00  0.00     0.003 A 
HETATM   26  C   UNL     1      24.010  40.755  47.823  1.00  0.00     0.002 A 
HETATM   27  C   UNL     1      25.321  40.892  48.296  1.00  0.00     0.026 A 
ENDBRANCH  19  21
ENDBRANCH  18  19
ENDBRANCH   2  18
TORSDOF 5
ENDMDL
MODEL 8
REMARK VINA RESULT:      -8.0      4.330      8.247
REMARK  5 active torsions:
REMARK  status: ('A' for Active; 'I' for Inactive)
REMARK    1  A    between atoms: C_7  and  C_8 
REMARK    2  A    between atoms: N_9  and  N_10 
REMARK       I    between atoms: N_10  and  C_11 
REMARK    3  A    between atoms: C_11  and  C_12 
REMARK    4  A    between atoms: C_12  and  N_13 
REMARK    5  A    between atoms: N_13  and  C_14 
ROOT
HETATM    1  N   UNL     1      25.339  43.557  52.145  1.00  0.00    -0.246 N 
HETATM    2  C   UNL     1      24.551  44.292  51.264  1.00  0.00     0.250 C 
HETATM    3  O   UNL     1      24.470  45.519  51.220  1.00  0.00    -0.270 OA
HETATM    4  H   UNL     1      25.231  42.547  52.164  1.00  0.00     0.192 HD
ENDROOT
BRANCH   1   5
HETATM    5  N   UNL     1      25.981  44.056  53.254  1.00  0.00    -0.184 NA
HETATM    6  C   UNL     1      27.128  44.639  53.108  1.00  0.00     0.153 C 
BRANCH   6   7
HETATM    7  C   UNL     1      27.791  45.247  54.252  1.00  0.00     0.018 A 
HETATM    8  C   UNL     1      27.466  46.441  54.886  1.00  0.00     0.018 A 
HETATM    9  C   UNL     1      26.390  47.432  54.620  1.00  0.00     0.069 C 
HETATM   10  N   UNL     1      28.363  46.629  55.909  1.00  0.00    -0.358 N 
HETATM   11  H   UNL     1      28.368  47.419  56.538  1.00  0.00     0.166 HD
HETATM   12  C   UNL     1      29.267  45.596  55.961  1.00  0.00     0.043 A 
HETATM   13  C   UNL     1      28.935  44.711  54.936  1.00  0.00     0.004 A 
HETATM   14  C   UNL     1      30.345  45.386  56.829  1.00  0.00     0.030 A 
HETATM   15  C   UNL     1      29.728  43.554  54.771  1.00  0.00     0.014 A 
HETATM   16  C   UNL     1      30.810  43.328  55.630  1.00  0.00     0.001 A 
HETATM   17  C   UNL     1      31.112  44.233  56.644  1.00  0.00     0.002 A 
ENDBRANCH   6   7
ENDBRANCH   1   5
BRANCH   2  18
HETATM   18  C   UNL     1      23.760  43.414  50.286  1.00  0.00     0.197 C 
BRANCH  18  19
HETATM   19  N   UNL     1      24.431  43.325  48.985  1.00  0.00    -0.282 NA
HETATM   20  H   UNL     1      24.982  44.171  48.802  1.00  0.00     0.128 HD
BRANCH  19  21
HETATM   21  C   UNL     1      25.196  42.181  48.703  1.00  0.00     0.047 A 
HETATM   22  C   UNL     1      26.585  42.197  48.922  1.00  0.00     0.137 A 
HETATM   23  F   UNL     1      27.150  43.286  49.469  1.00  0.00    -0.204 F 
HETATM   24  C   UNL     1      27.396  41.111  48.603  1.00  0.00     0.044 A 
HETATM   25  C   UNL     1      26.829  39.977  48.029  1.00  0.00     0.003 A 
HETATM   26  C   UNL     1      25.458  39.945  47.773  1.00  0.00     0.002 A 
HETATM   27  C   UNL     1      24.651  41.042  48.100  1.00  0.00     0.026 A 
ENDBRANCH  19  21
ENDBRANCH  18  19
ENDBRANCH   2  18
TORSDOF 5
ENDMDL
MODEL 9
REMARK VINA RESULT:      -7.9      5.568      8.792
REMARK  5 active torsions:
REMARK  status: ('A' for Active; 'I' for Inactive)
REMARK    1  A    between atoms: C_7  and  C_8 
REMARK    2  A    between atoms: N_9  and  N_10 
REMARK       I    between atoms: N_10  and  C_11 
REMARK    3  A    between atoms: C_11  and  C_12 
REMARK    4  A    between atoms: C_12  and  N_13 
REMARK    5  A    between atoms: N_13  and  C_14 
ROOT
HETATM    1  N   UNL     1      29.058  40.842  52.466  1.00  0.00    -0.246 N 
HETATM    2  C   UNL     1      28.394  40.757  51.245  1.00  0.00     0.250 C 
HETATM    3  O   UNL     1      27.696  41.635  50.741  1.00  0.00    -0.270 OA
HETATM    4  H   UNL     1      29.507  40.007  52.833  1.00  0.00     0.192 HD
ENDROOT
BRANCH   1   5
HETATM    5  N   UNL     1      28.868  41.818  53.416  1.00  0.00    -0.184 NA
HETATM    6  C   UNL     1      29.768  42.739  53.559  1.00  0.00     0.153 C 
BRANCH   6   7
HETATM    7  C   UNL     1      29.556  43.829  54.500  1.00  0.00     0.018 A 
HETATM    8  C   UNL     1      30.262  44.092  55.668  1.00  0.00     0.018 A 
HETATM    9  C   UNL     1      31.407  43.387  56.302  1.00  0.00     0.069 C 
HETATM   10  N   UNL     1      29.715  45.212  56.244  1.00  0.00    -0.358 N 
HETATM   11  H   UNL     1      30.028  45.632  57.107  1.00  0.00     0.166 HD
HETATM   12  C   UNL     1      28.669  45.687  55.491  1.00  0.00     0.043 A 
HETATM   13  C   UNL     1      28.544  44.843  54.388  1.00  0.00     0.004 A 
HETATM   14  C   UNL     1      27.832  46.788  55.706  1.00  0.00     0.030 A 
HETATM   15  C   UNL     1      27.523  45.116  53.451  1.00  0.00     0.014 A 
HETATM   16  C   UNL     1      26.676  46.213  53.650  1.00  0.00     0.001 A 
HETATM   17  C   UNL     1      26.831  47.037  54.763  1.00  0.00     0.002 A 
ENDBRANCH   6   7
ENDBRANCH   1   5
BRANCH   2  18
HETATM   18  C   UNL     1      28.624  39.422  50.526  1.00  0.00     0.197 C 
BRANCH  18  19
HETATM   19  N   UNL     1      29.342  39.613  49.261  1.00  0.00    -0.282 NA
HETATM   20  H   UNL     1      30.311  39.288  49.342  1.00  0.00     0.128 HD
BRANCH  19  21
HETATM   21  C   UNL     1      28.763  39.116  48.081  1.00  0.00     0.047 A 
HETATM   22  C   UNL     1      28.017  39.973  47.254  1.00  0.00     0.137 A 
HETATM   23  F   UNL     1      27.931  41.276  47.568  1.00  0.00    -0.204 F 
HETATM   24  C   UNL     1      27.374  39.518  46.106  1.00  0.00     0.044 A 
HETATM   25  C   UNL     1      27.448  38.169  45.769  1.00  0.00     0.003 A 
HETATM   26  C   UNL     1      28.156  37.291  46.588  1.00  0.00     0.002 A 
HETATM   27  C   UNL     1      28.802  37.759  47.739  1.00  0.00     0.026 A 
ENDBRANCH  19  21
ENDBRANCH  18  19
ENDBRANCH   2  18
TORSDOF 5
ENDMDL
MODEL 10
REMARK VINA RESULT:      -7.9      2.203      2.841
REMARK  5 active torsions:
REMARK  status: ('A' for Active; 'I' for Inactive)
REMARK    1  A    between atoms: C_7  and  C_8 
REMARK    2  A    between atoms: N_9  and  N_10 
REMARK       I    between atoms: N_10  and  C_11 
REMARK    3  A    between atoms: C_11  and  C_12 
REMARK    4  A    between atoms: C_12  and  N_13 
REMARK    5  A    between atoms: N_13  and  C_14 
ROOT
HETATM    1  N   UNL     1      25.143  45.676  50.854  1.00  0.00    -0.246 N 
HETATM    2  C   UNL     1      26.146  44.840  50.370  1.00  0.00     0.250 C 
HETATM    3  O   UNL     1      27.083  45.180  49.649  1.00  0.00    -0.270 OA
HETATM    4  H   UNL     1      24.357  45.256  51.342  1.00  0.00     0.192 HD
ENDROOT
BRANCH   1   5
HETATM    5  N   UNL     1      24.897  46.961  50.432  1.00  0.00    -0.184 NA
HETATM    6  C   UNL     1      24.130  47.150  49.406  1.00  0.00     0.153 C 
BRANCH   6   7
HETATM    7  C   UNL     1      23.787  48.502  48.987  1.00  0.00     0.018 A 
HETATM    8  C   UNL     1      24.656  49.518  48.606  1.00  0.00     0.018 A 
HETATM    9  C   UNL     1      26.138  49.554  48.502  1.00  0.00     0.069 C 
HETATM   10  N   UNL     1      23.898  50.622  48.302  1.00  0.00    -0.358 N 
HETATM   11  H   UNL     1      24.266  51.512  47.997  1.00  0.00     0.166 HD
HETATM   12  C   UNL     1      22.561  50.360  48.477  1.00  0.00     0.043 A 
HETATM   13  C   UNL     1      22.457  49.038  48.905  1.00  0.00     0.004 A 
HETATM   14  C   UNL     1      21.450  51.191  48.293  1.00  0.00     0.030 A 
HETATM   15  C   UNL     1      21.169  48.520  49.165  1.00  0.00     0.014 A 
HETATM   16  C   UNL     1      20.046  49.337  48.987  1.00  0.00     0.001 A 
HETATM   17  C   UNL     1      20.187  50.654  48.557  1.00  0.00     0.002 A 
ENDBRANCH   6   7
ENDBRANCH   1   5
BRANCH   2  18
HETATM   18  C   UNL     1      25.999  43.388  50.841  1.00  0.00     0.197 C 
BRANCH  18  19
HETATM   19  N   UNL     1      25.877  43.309  52.300  1.00  0.00    -0.282 NA
HETATM   20  H   UNL     1      25.260  42.536  52.571  1.00  0.00     0.128 HD
BRANCH  19  21
HETATM   21  C   UNL     1      27.052  43.282  53.070  1.00  0.00     0.047 A 
HETATM   22  C   UNL     1      27.481  44.445  53.731  1.00  0.00     0.137 A 
HETATM   23  F   UNL     1      26.719  45.550  53.676  1.00  0.00    -0.204 F 
HETATM   24  C   UNL     1      28.669  44.488  54.458  1.00  0.00     0.044 A 
HETATM   25  C   UNL     1      29.474  43.354  54.520  1.00  0.00     0.003 A 
HETATM   26  C   UNL     1      29.087  42.195  53.849  1.00  0.00     0.002 A 
HETATM   27  C   UNL     1      27.890  42.162  53.123  1.00  0.00     0.026 A 
ENDBRANCH  19  21
ENDBRANCH  18  19
ENDBRANCH   2  18
TORSDOF 5
ENDMDL
