MODEL 1
REMARK VINA RESULT:      -9.7      0.000      0.000
REMARK  7 active torsions:
REMARK  status: ('A' for Active; 'I' for Inactive)
REMARK    1  A    between atoms: C_2  and  C_3 
REMARK    2  A    between atoms: C_6  and  C_7 
REMARK       I    between atoms: C_7  and  N_8 
REMARK    3  A    between atoms: N_8  and  C_9 
REMARK    4  A    between atoms: C_9  and  C_10 
REMARK    5  A    between atoms: N_19  and  C_20 
REMARK    6  A    between atoms: C_20  and  C_21 
REMARK    7  A    between atoms: C_21  and  C_22 
ROOT
HETATM    1  C   UNL     1      25.767  45.076  50.566  1.00  0.00     0.249 C 
HETATM    2  C   UNL     1      24.270  45.222  50.909  1.00  0.00     0.266 C 
HETATM    3  O   UNL     1      23.570  44.455  51.549  1.00  0.00    -0.270 OA
HETATM    4  N   UNL     1      23.821  46.403  50.321  1.00  0.00    -0.310 N 
HETATM    5  C   UNL     1      24.848  47.100  49.778  1.00  0.00     0.129 C 
HETATM    6  C   UNL     1      25.981  46.420  49.945  1.00  0.00     0.101 C 
HETATM    7  N   UNL     1      24.787  48.298  49.123  1.00  0.00    -0.284 N 
HETATM    8  C   UNL     1      25.961  48.926  48.699  1.00  0.00     0.331 C 
HETATM    9  O   UNL     1      25.994  50.006  48.114  1.00  0.00    -0.246 OA
HETATM   10  N   UNL     1      27.128  48.238  48.945  1.00  0.00    -0.275 N 
HETATM   11  C   UNL     1      27.230  46.974  49.461  1.00  0.00     0.262 C 
HETATM   12  O   UNL     1      28.275  46.341  49.514  1.00  0.00    -0.267 OA
HETATM   13  H   UNL     1      22.868  46.721  50.420  1.00  0.00     0.170 HD
HETATM   14  H   UNL     1      27.974  48.662  48.595  1.00  0.00     0.173 HD
ENDROOT
BRANCH   1  15
HETATM   15  N   UNL     1      26.664  44.809  51.702  1.00  0.00    -0.327 N 
HETATM   16  C   UNL     1      26.632  45.525  52.875  1.00  0.00     0.253 C 
HETATM   17  O   UNL     1      25.787  46.381  53.105  1.00  0.00    -0.268 OA
HETATM   18  H   UNL     1      27.566  44.420  51.444  1.00  0.00     0.164 HD
BRANCH  16  19
HETATM   19  C   UNL     1      27.739  45.242  53.839  1.00  0.00     0.032 A 
HETATM   20  C   UNL     1      28.067  46.127  54.870  1.00  0.00     0.017 A 
HETATM   21  C   UNL     1      29.080  45.804  55.782  1.00  0.00     0.009 A 
HETATM   22  C   UNL     1      29.800  44.598  55.690  1.00  0.00    -0.051 A 
HETATM   23  C   UNL     1      29.484  43.742  54.622  1.00  0.00     0.009 A 
HETATM   24  C   UNL     1      28.468  44.060  53.706  1.00  0.00     0.017 A 
BRANCH  22  25
HETATM   25  C   UNL     1      30.895  44.274  56.724  1.00  0.00    -0.024 C 
HETATM   26  C   UNL     1      30.635  45.048  58.037  1.00  0.00     0.019 C 
HETATM   27  C   UNL     1      32.269  44.688  56.159  1.00  0.00     0.019 C 
HETATM   28  C   UNL     1      30.976  42.777  57.097  1.00  0.00     0.019 C 
ENDBRANCH  22  25
ENDBRANCH  16  19
ENDBRANCH   1  15
BRANCH   1  29
HETATM   29  C   UNL     1      25.803  43.963  49.505  1.00  0.00     0.426 C 
HETATM   30  F   UNL     1      27.079  43.694  49.133  1.00  0.00    -0.167 F 
HETATM   31  F   UNL     1      25.295  42.798  49.969  1.00  0.00    -0.167 F 
HETATM   32  F   UNL     1      25.125  44.284  48.379  1.00  0.00    -0.167 F 
ENDBRANCH   1  29
BRANCH   7  33
HETATM   33  C   UNL     1      23.508  48.895  48.745  1.00  0.00     0.140 C 
BRANCH  33  34
HETATM   34  C   UNL     1      23.040  49.995  49.699  1.00  0.00     0.059 C 
BRANCH  34  35
HETATM   35  C   UNL     1      21.671  50.490  49.294  1.00  0.00    -0.057 A 
HETATM   36  C   UNL     1      21.281  50.483  47.947  1.00  0.00     0.007 A 
HETATM   37  C   UNL     1      20.044  51.008  47.567  1.00  0.00     0.001 A 
HETATM   38  C   UNL     1      19.186  51.539  48.527  1.00  0.00     0.000 A 
HETATM   39  C   UNL     1      19.562  51.545  49.868  1.00  0.00     0.001 A 
HETATM   40  C   UNL     1      20.800  51.026  50.252  1.00  0.00     0.007 A 
ENDBRANCH  34  35
ENDBRANCH  33  34
ENDBRANCH   7  33
TORSDOF 7
ENDMDL
MODEL 2
REMARK VINA RESULT:      -9.1      6.284     10.697
REMARK  7 active torsions:
REMARK  status: ('A' for Active; 'I' for Inactive)
REMARK    1  A    between atoms: C_2  and  C_3 
REMARK    2  A    between atoms: C_6  and  C_7 
REMARK       I    between atoms: C_7  and  N_8 
REMARK    3  A    between atoms: N_8  and  C_9 
REMARK    4  A    between atoms: C_9  and  C_10 
REMARK    5  A    between atoms: N_19  and  C_20 
REMARK    6  A    between atoms: C_20  and  C_21 
REMARK    7  A    between atoms: C_21  and  C_22 
ROOT
HETATM    1  C   UNL     1      27.561  39.039  49.150  1.00  0.00     0.249 C 
HETATM    2  C   UNL     1      28.981  38.821  49.711  1.00  0.00     0.266 C 
HETATM    3  O   UNL     1      29.844  38.068  49.293  1.00  0.00    -0.270 OA
HETATM    4  N   UNL     1      29.113  39.634  50.836  1.00  0.00    -0.310 N 
HETATM    5  C   UNL     1      28.037  40.442  50.985  1.00  0.00     0.129 C 
HETATM    6  C   UNL     1      27.156  40.188  50.019  1.00  0.00     0.101 C 
HETATM    7  N   UNL     1      27.819  41.367  51.967  1.00  0.00    -0.284 N 
HETATM    8  C   UNL     1      26.687  42.185  51.923  1.00  0.00     0.331 C 
HETATM    9  O   UNL     1      26.423  43.046  52.759  1.00  0.00    -0.246 OA
HETATM   10  N   UNL     1      25.824  41.953  50.875  1.00  0.00    -0.275 N 
HETATM   11  C   UNL     1      25.921  40.945  49.954  1.00  0.00     0.262 C 
HETATM   12  O   UNL     1      25.049  40.679  49.138  1.00  0.00    -0.267 OA
HETATM   13  H   UNL     1      29.970  39.673  51.369  1.00  0.00     0.170 HD
HETATM   14  H   UNL     1      24.980  42.504  50.866  1.00  0.00     0.173 HD
ENDROOT
BRANCH   1  15
HETATM   15  N   UNL     1      27.477  39.339  47.711  1.00  0.00    -0.327 N 
HETATM   16  C   UNL     1      28.138  40.388  47.117  1.00  0.00     0.253 C 
HETATM   17  O   UNL     1      28.927  41.101  47.724  1.00  0.00    -0.268 OA
HETATM   18  H   UNL     1      26.605  39.059  47.272  1.00  0.00     0.164 HD
BRANCH  16  19
HETATM   19  C   UNL     1      27.785  40.654  45.690  1.00  0.00     0.032 A 
HETATM   20  C   UNL     1      26.461  40.821  45.272  1.00  0.00     0.017 A 
HETATM   21  C   UNL     1      26.174  41.115  43.934  1.00  0.00     0.009 A 
HETATM   22  C   UNL     1      27.193  41.244  42.971  1.00  0.00    -0.051 A 
HETATM   23  C   UNL     1      28.513  41.030  43.402  1.00  0.00     0.009 A 
HETATM   24  C   UNL     1      28.807  40.737  44.743  1.00  0.00     0.017 A 
BRANCH  22  25
HETATM   25  C   UNL     1      26.835  41.586  41.512  1.00  0.00    -0.024 C 
HETATM   26  C   UNL     1      27.777  40.837  40.542  1.00  0.00     0.019 C 
HETATM   27  C   UNL     1      26.991  43.105  41.293  1.00  0.00     0.019 C 
HETATM   28  C   UNL     1      25.391  41.204  41.118  1.00  0.00     0.019 C 
ENDBRANCH  22  25
ENDBRANCH  16  19
ENDBRANCH   1  15
BRANCH   1  29
HETATM   29  C   UNL     1      26.803  37.758  49.536  1.00  0.00     0.426 C 
HETATM   30  F   UNL     1      26.097  37.280  48.481  1.00  0.00    -0.167 F 
HETATM   31  F   UNL     1      27.639  36.762  49.909  1.00  0.00    -0.167 F 
HETATM   32  F   UNL     1      25.921  37.949  50.544  1.00  0.00    -0.167 F 
ENDBRANCH   1  29
BRANCH   7  33
HETATM   33  C   UNL     1      28.685  41.449  53.141  1.00  0.00     0.140 C 
BRANCH  33  34
HETATM   34  C   UNL     1      29.818  42.468  52.996  1.00  0.00     0.059 C 
BRANCH  34  35
HETATM   35  C   UNL     1      29.851  43.385  54.195  1.00  0.00    -0.057 A 
HETATM   36  C   UNL     1      28.969  44.471  54.287  1.00  0.00     0.007 A 
HETATM   37  C   UNL     1      29.050  45.359  55.362  1.00  0.00     0.001 A 
HETATM   38  C   UNL     1      30.010  45.169  56.354  1.00  0.00     0.000 A 
HETATM   39  C   UNL     1      30.887  44.090  56.275  1.00  0.00     0.001 A 
HETATM   40  C   UNL     1      30.812  43.202  55.200  1.00  0.00     0.007 A 
ENDBRANCH  34  35
ENDBRANCH  33  34
ENDBRANCH   7  33
TORSDOF 7
ENDMDL
MODEL 3
REMARK VINA RESULT:      -8.9      5.596     12.777
REMARK  7 active torsions:
REMARK  status: ('A' for Active; 'I' for Inactive)
REMARK    1  A    between atoms: C_2  and  C_3 
REMARK    2  A    between atoms: C_6  and  C_7 
REMARK       I    between atoms: C_7  and  N_8 
REMARK    3  A    between atoms: N_8  and  C_9 
REMARK    4  A    between atoms: C_9  and  C_10 
REMARK    5  A    between atoms: N_19  and  C_20 
REMARK    6  A    between atoms: C_20  and  C_21 
REMARK    7  A    between atoms: C_21  and  C_22 
ROOT
HETATM    1  C   UNL     1      17.913  49.253  48.015  1.00  0.00     0.249 C 
HETATM    2  C   UNL     1      18.616  48.736  46.743  1.00  0.00     0.266 C 
HETATM    3  O   UNL     1      18.103  48.263  45.743  1.00  0.00    -0.270 OA
HETATM    4  N   UNL     1      19.989  48.874  46.940  1.00  0.00    -0.310 N 
HETATM    5  C   UNL     1      20.253  49.537  48.092  1.00  0.00     0.129 C 
HETATM    6  C   UNL     1      19.109  49.828  48.707  1.00  0.00     0.101 C 
HETATM    7  N   UNL     1      21.479  49.855  48.608  1.00  0.00    -0.284 N 
HETATM    8  C   UNL     1      21.572  50.624  49.770  1.00  0.00     0.331 C 
HETATM    9  O   UNL     1      22.632  50.961  50.292  1.00  0.00    -0.246 OA
HETATM   10  N   UNL     1      20.374  50.974  50.352  1.00  0.00    -0.275 N 
HETATM   11  C   UNL     1      19.130  50.558  49.959  1.00  0.00     0.262 C 
HETATM   12  O   UNL     1      18.108  50.764  50.599  1.00  0.00    -0.267 OA
HETATM   13  H   UNL     1      20.660  48.613  46.233  1.00  0.00     0.170 HD
HETATM   14  H   UNL     1      20.436  51.485  51.219  1.00  0.00     0.173 HD
ENDROOT
BRANCH   1  15
HETATM   15  N   UNL     1      16.836  50.233  47.801  1.00  0.00    -0.327 N 
HETATM   16  C   UNL     1      16.970  51.341  46.999  1.00  0.00     0.253 C 
HETATM   17  O   UNL     1      17.968  51.551  46.321  1.00  0.00    -0.268 OA
HETATM   18  H   UNL     1      16.188  50.324  48.578  1.00  0.00     0.164 HD
BRANCH  16  19
HETATM   19  C   UNL     1      15.844  52.322  47.052  1.00  0.00     0.032 A 
HETATM   20  C   UNL     1      15.282  52.740  48.263  1.00  0.00     0.017 A 
HETATM   21  C   UNL     1      14.259  53.696  48.273  1.00  0.00     0.009 A 
HETATM   22  C   UNL     1      13.759  54.257  47.082  1.00  0.00    -0.051 A 
HETATM   23  C   UNL     1      14.308  53.792  45.875  1.00  0.00     0.009 A 
HETATM   24  C   UNL     1      15.335  52.835  45.859  1.00  0.00     0.017 A 
BRANCH  22  25
HETATM   25  C   UNL     1      12.645  55.320  47.140  1.00  0.00    -0.024 C 
HETATM   26  C   UNL     1      12.037  55.379  48.560  1.00  0.00     0.019 C 
HETATM   27  C   UNL     1      11.537  54.950  46.133  1.00  0.00     0.019 C 
HETATM   28  C   UNL     1      13.128  56.748  46.799  1.00  0.00     0.019 C 
ENDBRANCH  22  25
ENDBRANCH  16  19
ENDBRANCH   1  15
BRANCH   1  29
HETATM   29  C   UNL     1      17.426  47.976  48.720  1.00  0.00     0.426 C 
HETATM   30  F   UNL     1      17.901  47.916  49.989  1.00  0.00    -0.167 F 
HETATM   31  F   UNL     1      16.077  47.933  48.824  1.00  0.00    -0.167 F 
HETATM   32  F   UNL     1      17.824  46.843  48.097  1.00  0.00    -0.167 F 
ENDBRANCH   1  29
BRANCH   7  33
HETATM   33  C   UNL     1      22.709  49.311  48.037  1.00  0.00     0.140 C 
BRANCH  33  34
HETATM   34  C   UNL     1      23.413  48.304  48.948  1.00  0.00     0.059 C 
BRANCH  34  35
HETATM   35  C   UNL     1      24.885  48.631  49.048  1.00  0.00    -0.057 A 
HETATM   36  C   UNL     1      25.414  49.748  48.385  1.00  0.00     0.007 A 
HETATM   37  C   UNL     1      26.785  50.007  48.421  1.00  0.00     0.001 A 
HETATM   38  C   UNL     1      27.639  49.156  49.120  1.00  0.00     0.000 A 
HETATM   39  C   UNL     1      27.123  48.048  49.787  1.00  0.00     0.001 A 
HETATM   40  C   UNL     1      25.753  47.783  49.750  1.00  0.00     0.007 A 
ENDBRANCH  34  35
ENDBRANCH  33  34
ENDBRANCH   7  33
TORSDOF 7
ENDMDL
MODEL 4
REMARK VINA RESULT:      -8.9      2.461      9.754
REMARK  7 active torsions:
REMARK  status: ('A' for Active; 'I' for Inactive)
REMARK    1  A    between atoms: C_2  and  C_3 
REMARK    2  A    between atoms: C_6  and  C_7 
REMARK       I    between atoms: C_7  and  N_8 
REMARK    3  A    between atoms: N_8  and  C_9 
REMARK    4  A    between atoms: C_9  and  C_10 
REMARK    5  A    between atoms: N_19  and  C_20 
REMARK    6  A    between atoms: C_20  and  C_21 
REMARK    7  A    between atoms: C_21  and  C_22 
ROOT
HETATM    1  C   UNL     1      25.242  46.345  50.491  1.00  0.00     0.249 C 
HETATM    2  C   UNL     1      25.370  46.723  51.981  1.00  0.00     0.266 C 
HETATM    3  O   UNL     1      25.107  47.790  52.508  1.00  0.00    -0.270 OA
HETATM    4  N   UNL     1      25.885  45.613  52.650  1.00  0.00    -0.310 N 
HETATM    5  C   UNL     1      25.965  44.540  51.827  1.00  0.00     0.129 C 
HETATM    6  C   UNL     1      25.554  44.886  50.608  1.00  0.00     0.101 C 
HETATM    7  N   UNL     1      26.417  43.287  52.133  1.00  0.00    -0.284 N 
HETATM    8  C   UNL     1      26.350  42.265  51.183  1.00  0.00     0.331 C 
HETATM    9  O   UNL     1      26.725  41.112  51.380  1.00  0.00    -0.246 OA
HETATM   10  N   UNL     1      25.856  42.629  49.950  1.00  0.00    -0.275 N 
HETATM   11  C   UNL     1      25.530  43.897  49.549  1.00  0.00     0.262 C 
HETATM   12  O   UNL     1      25.247  44.197  48.397  1.00  0.00    -0.267 OA
HETATM   13  H   UNL     1      26.043  45.616  53.647  1.00  0.00     0.170 HD
HETATM   14  H   UNL     1      25.853  41.908  49.244  1.00  0.00     0.173 HD
ENDROOT
BRANCH   1  15
HETATM   15  N   UNL     1      23.935  46.614  49.869  1.00  0.00    -0.327 N 
HETATM   16  C   UNL     1      23.465  47.880  49.615  1.00  0.00     0.253 C 
HETATM   17  O   UNL     1      24.138  48.886  49.800  1.00  0.00    -0.268 OA
HETATM   18  H   UNL     1      23.229  45.906  50.049  1.00  0.00     0.164 HD
BRANCH  16  19
HETATM   19  C   UNL     1      22.045  47.966  49.158  1.00  0.00     0.032 A 
HETATM   20  C   UNL     1      21.388  46.880  48.570  1.00  0.00     0.017 A 
HETATM   21  C   UNL     1      20.043  46.985  48.198  1.00  0.00     0.009 A 
HETATM   22  C   UNL     1      19.313  48.173  48.391  1.00  0.00    -0.051 A 
HETATM   23  C   UNL     1      20.002  49.266  48.944  1.00  0.00     0.009 A 
HETATM   24  C   UNL     1      21.351  49.166  49.321  1.00  0.00     0.017 A 
BRANCH  22  25
HETATM   25  C   UNL     1      17.829  48.241  47.984  1.00  0.00    -0.024 C 
HETATM   26  C   UNL     1      17.696  48.197  46.445  1.00  0.00     0.019 C 
HETATM   27  C   UNL     1      17.218  49.558  48.504  1.00  0.00     0.019 C 
HETATM   28  C   UNL     1      16.976  47.079  48.541  1.00  0.00     0.019 C 
ENDBRANCH  22  25
ENDBRANCH  16  19
ENDBRANCH   1  15
BRANCH   1  29
HETATM   29  C   UNL     1      26.393  47.105  49.811  1.00  0.00     0.426 C 
HETATM   30  F   UNL     1      26.883  48.069  50.629  1.00  0.00    -0.167 F 
HETATM   31  F   UNL     1      27.437  46.297  49.518  1.00  0.00    -0.167 F 
HETATM   32  F   UNL     1      26.016  47.718  48.664  1.00  0.00    -0.167 F 
ENDBRANCH   1  29
BRANCH   7  33
HETATM   33  C   UNL     1      27.084  43.008  53.402  1.00  0.00     0.140 C 
BRANCH  33  34
HETATM   34  C   UNL     1      28.610  42.978  53.299  1.00  0.00     0.059 C 
BRANCH  34  35
HETATM   35  C   UNL     1      29.225  43.776  54.425  1.00  0.00    -0.057 A 
HETATM   36  C   UNL     1      28.707  45.031  54.776  1.00  0.00     0.007 A 
HETATM   37  C   UNL     1      29.321  45.797  55.768  1.00  0.00     0.001 A 
HETATM   38  C   UNL     1      30.454  45.317  56.420  1.00  0.00     0.000 A 
HETATM   39  C   UNL     1      30.974  44.069  56.084  1.00  0.00     0.001 A 
HETATM   40  C   UNL     1      30.365  43.301  55.089  1.00  0.00     0.007 A 
ENDBRANCH  34  35
ENDBRANCH  33  34
ENDBRANCH   7  33
TORSDOF 7
ENDMDL
MODEL 5
REMARK VINA RESULT:      -8.8      5.992     10.843
REMARK  7 active torsions:
REMARK  status: ('A' for Active; 'I' for Inactive)
REMARK    1  A    between atoms: C_2  and  C_3 
REMARK    2  A    between atoms: C_6  and  C_7 
REMARK       I    between atoms: C_7  and  N_8 
REMARK    3  A    between atoms: N_8  and  C_9 
REMARK    4  A    between atoms: C_9  and  C_10 
REMARK    5  A    between atoms: N_19  and  C_20 
REMARK    6  A    between atoms: C_20  and  C_21 
REMARK    7  A    between atoms: C_21  and  C_22 
ROOT
HETATM    1  C   UNL     1      27.491  39.122  48.483  1.00  0.00     0.249 C 
HETATM    2  C   UNL     1      28.874  39.027  49.159  1.00  0.00     0.266 C 
HETATM    3  O   UNL     1      29.821  38.331  48.832  1.00  0.00    -0.270 OA
HETATM    4  N   UNL     1      28.857  39.874  50.266  1.00  0.00    -0.310 N 
HETATM    5  C   UNL     1      27.715  40.602  50.306  1.00  0.00     0.129 C 
HETATM    6  C   UNL     1      26.935  40.258  49.283  1.00  0.00     0.101 C 
HETATM    7  N   UNL     1      27.352  41.532  51.240  1.00  0.00    -0.284 N 
HETATM    8  C   UNL     1      26.170  42.260  51.084  1.00  0.00     0.331 C 
HETATM    9  O   UNL     1      25.778  43.118  51.871  1.00  0.00    -0.246 OA
HETATM   10  N   UNL     1      25.412  41.937  49.980  1.00  0.00    -0.275 N 
HETATM   11  C   UNL     1      25.656  40.917  49.100  1.00  0.00     0.262 C 
HETATM   12  O   UNL     1      24.873  40.566  48.228  1.00  0.00    -0.267 OA
HETATM   13  H   UNL     1      29.663  39.992  50.862  1.00  0.00     0.170 HD
HETATM   14  H   UNL     1      24.533  42.422  49.890  1.00  0.00     0.173 HD
ENDROOT
BRANCH   1  15
HETATM   15  N   UNL     1      27.499  39.379  47.034  1.00  0.00    -0.327 N 
HETATM   16  C   UNL     1      28.127  40.460  46.461  1.00  0.00     0.253 C 
HETATM   17  O   UNL     1      28.813  41.244  47.105  1.00  0.00    -0.268 OA
HETATM   18  H   UNL     1      26.687  39.025  46.538  1.00  0.00     0.164 HD
BRANCH  16  19
HETATM   19  C   UNL     1      27.870  40.663  45.003  1.00  0.00     0.032 A 
HETATM   20  C   UNL     1      28.906  40.896  44.093  1.00  0.00     0.017 A 
HETATM   21  C   UNL     1      28.628  41.035  42.728  1.00  0.00     0.009 A 
HETATM   22  C   UNL     1      27.314  40.955  42.229  1.00  0.00    -0.051 A 
HETATM   23  C   UNL     1      26.283  40.763  43.165  1.00  0.00     0.009 A 
HETATM   24  C   UNL     1      26.556  40.621  44.534  1.00  0.00     0.017 A 
BRANCH  22  25
HETATM   25  C   UNL     1      27.054  41.095  40.717  1.00  0.00    -0.024 C 
HETATM   26  C   UNL     1      27.072  39.705  40.041  1.00  0.00     0.019 C 
HETATM   27  C   UNL     1      28.156  41.974  40.091  1.00  0.00     0.019 C 
HETATM   28  C   UNL     1      25.692  41.741  40.376  1.00  0.00     0.019 C 
ENDBRANCH  22  25
ENDBRANCH  16  19
ENDBRANCH   1  15
BRANCH   1  29
HETATM   29  C   UNL     1      26.802  37.797  48.849  1.00  0.00     0.426 C 
HETATM   30  F   UNL     1      25.747  37.561  48.029  1.00  0.00    -0.167 F 
HETATM   31  F   UNL     1      27.628  36.735  48.710  1.00  0.00    -0.167 F 
HETATM   32  F   UNL     1      26.325  37.781  50.115  1.00  0.00    -0.167 F 
ENDBRANCH   1  29
BRANCH   7  33
HETATM   33  C   UNL     1      28.115  41.708  52.474  1.00  0.00     0.140 C 
BRANCH  33  34
HETATM   34  C   UNL     1      29.229  42.750  52.361  1.00  0.00     0.059 C 
BRANCH  34  35
HETATM   35  C   UNL     1      29.419  43.457  53.683  1.00  0.00    -0.057 A 
HETATM   36  C   UNL     1      28.530  44.463  54.087  1.00  0.00     0.007 A 
HETATM   37  C   UNL     1      28.748  45.164  55.275  1.00  0.00     0.001 A 
HETATM   38  C   UNL     1      29.852  44.864  56.070  1.00  0.00     0.000 A 
HETATM   39  C   UNL     1      30.738  43.863  55.680  1.00  0.00     0.001 A 
HETATM   40  C   UNL     1      30.526  43.162  54.491  1.00  0.00     0.007 A 
ENDBRANCH  34  35
ENDBRANCH  33  34
ENDBRANCH   7  33
TORSDOF 7
ENDMDL
MODEL 6
REMARK VINA RESULT:      -8.7      4.735      7.759
REMARK  7 active torsions:
REMARK  status: ('A' for Active; 'I' for Inactive)
REMARK    1  A    between atoms: C_2  and  C_3 
REMARK    2  A    between atoms: C_6  and  C_7 
REMARK       I    between atoms: C_7  and  N_8 
REMARK    3  A    between atoms: N_8  and  C_9 
REMARK    4  A    between atoms: C_9  and  C_10 
REMARK    5  A    between atoms: N_19  and  C_20 
REMARK    6  A    between atoms: C_20  and  C_21 
REMARK    7  A    between atoms: C_21  and  C_22 
ROOT
HETATM    1  C   UNL     1      20.654  49.784  49.195  1.00  0.00     0.249 C 
HETATM    2  C   UNL     1      21.051  50.795  48.100  1.00  0.00     0.266 C 
HETATM    3  O   UNL     1      22.018  51.538  48.082  1.00  0.00    -0.270 OA
HETATM    4  N   UNL     1      20.072  50.743  47.110  1.00  0.00    -0.310 N 
HETATM    5  C   UNL     1      19.189  49.744  47.347  1.00  0.00     0.129 C 
HETATM    6  C   UNL     1      19.511  49.130  48.484  1.00  0.00     0.101 C 
HETATM    7  N   UNL     1      18.104  49.394  46.593  1.00  0.00    -0.284 N 
HETATM    8  C   UNL     1      17.343  48.274  46.935  1.00  0.00     0.331 C 
HETATM    9  O   UNL     1      16.361  47.887  46.306  1.00  0.00    -0.246 OA
HETATM   10  N   UNL     1      17.736  47.612  48.077  1.00  0.00    -0.275 N 
HETATM   11  C   UNL     1      18.719  48.006  48.944  1.00  0.00     0.262 C 
HETATM   12  O   UNL     1      18.927  47.476  50.027  1.00  0.00    -0.267 OA
HETATM   13  H   UNL     1      20.123  51.311  46.277  1.00  0.00     0.170 HD
HETATM   14  H   UNL     1      17.160  46.833  48.358  1.00  0.00     0.173 HD
ENDROOT
BRANCH   1  15
HETATM   15  N   UNL     1      21.702  48.837  49.607  1.00  0.00    -0.327 N 
HETATM   16  C   UNL     1      22.460  48.113  48.717  1.00  0.00     0.253 C 
HETATM   17  O   UNL     1      22.387  48.270  47.505  1.00  0.00    -0.268 OA
HETATM   18  H   UNL     1      21.547  48.403  50.512  1.00  0.00     0.164 HD
BRANCH  16  19
HETATM   19  C   UNL     1      23.340  47.064  49.316  1.00  0.00     0.032 A 
HETATM   20  C   UNL     1      24.341  47.376  50.240  1.00  0.00     0.017 A 
HETATM   21  C   UNL     1      25.114  46.359  50.814  1.00  0.00     0.009 A 
HETATM   22  C   UNL     1      24.920  45.005  50.481  1.00  0.00    -0.051 A 
HETATM   23  C   UNL     1      23.937  44.717  49.518  1.00  0.00     0.009 A 
HETATM   24  C   UNL     1      23.159  45.732  48.941  1.00  0.00     0.017 A 
BRANCH  22  25
HETATM   25  C   UNL     1      25.780  43.916  51.149  1.00  0.00    -0.024 C 
HETATM   26  C   UNL     1      25.272  42.513  50.746  1.00  0.00     0.019 C 
HETATM   27  C   UNL     1      25.688  44.064  52.682  1.00  0.00     0.019 C 
HETATM   28  C   UNL     1      27.275  43.979  50.764  1.00  0.00     0.019 C 
ENDBRANCH  22  25
ENDBRANCH  16  19
ENDBRANCH   1  15
BRANCH   1  29
HETATM   29  C   UNL     1      20.155  50.662  50.355  1.00  0.00     0.426 C 
HETATM   30  F   UNL     1      19.389  51.681  49.892  1.00  0.00    -0.167 F 
HETATM   31  F   UNL     1      19.377  49.972  51.220  1.00  0.00    -0.167 F 
HETATM   32  F   UNL     1      21.163  51.220  51.066  1.00  0.00    -0.167 F 
ENDBRANCH   1  29
BRANCH   7  33
HETATM   33  C   UNL     1      17.640  50.235  45.491  1.00  0.00     0.140 C 
BRANCH  33  34
HETATM   34  C   UNL     1      18.338  49.942  44.162  1.00  0.00     0.059 C 
BRANCH  34  35
HETATM   35  C   UNL     1      18.149  51.098  43.208  1.00  0.00    -0.057 A 
HETATM   36  C   UNL     1      18.882  51.163  42.014  1.00  0.00     0.007 A 
HETATM   37  C   UNL     1      18.759  52.268  41.169  1.00  0.00     0.001 A 
HETATM   38  C   UNL     1      17.902  53.314  41.507  1.00  0.00     0.000 A 
HETATM   39  C   UNL     1      17.166  53.256  42.688  1.00  0.00     0.001 A 
HETATM   40  C   UNL     1      17.290  52.155  43.537  1.00  0.00     0.007 A 
ENDBRANCH  34  35
ENDBRANCH  33  34
ENDBRANCH   7  33
TORSDOF 7
ENDMDL
MODEL 7
REMARK VINA RESULT:      -8.6     11.863     15.224
REMARK  7 active torsions:
REMARK  status: ('A' for Active; 'I' for Inactive)
REMARK    1  A    between atoms: C_2  and  C_3 
REMARK    2  A    between atoms: C_6  and  C_7 
REMARK       I    between atoms: C_7  and  N_8 
REMARK    3  A    between atoms: N_8  and  C_9 
REMARK    4  A    between atoms: C_9  and  C_10 
REMARK    5  A    between atoms: N_19  and  C_20 
REMARK    6  A    between atoms: C_20  and  C_21 
REMARK    7  A    between atoms: C_21  and  C_22 
ROOT
HETATM    1  C   UNL     1      29.039  51.137  39.838  1.00  0.00     0.249 C 
HETATM    2  C   UNL     1      29.005  51.867  41.195  1.00  0.00     0.266 C 
HETATM    3  O   UNL     1      28.225  52.730  41.563  1.00  0.00    -0.270 OA
HETATM    4  N   UNL     1      30.070  51.385  41.955  1.00  0.00    -0.310 N 
HETATM    5  C   UNL     1      30.686  50.352  41.332  1.00  0.00     0.129 C 
HETATM    6  C   UNL     1      30.100  50.131  40.156  1.00  0.00     0.101 C 
HETATM    7  N   UNL     1      31.762  49.634  41.775  1.00  0.00    -0.284 N 
HETATM    8  C   UNL     1      32.221  48.535  41.044  1.00  0.00     0.331 C 
HETATM    9  O   UNL     1      33.173  47.833  41.377  1.00  0.00    -0.246 OA
HETATM   10  N   UNL     1      31.556  48.283  39.865  1.00  0.00    -0.275 N 
HETATM   11  C   UNL     1      30.574  49.057  39.307  1.00  0.00     0.262 C 
HETATM   12  O   UNL     1      30.123  48.881  38.183  1.00  0.00    -0.267 OA
HETATM   13  H   UNL     1      30.245  51.707  42.895  1.00  0.00     0.170 HD
HETATM   14  H   UNL     1      31.916  47.523  39.308  1.00  0.00     0.173 HD
ENDROOT
BRANCH   1  15
HETATM   15  N   UNL     1      27.771  50.527  39.403  1.00  0.00    -0.327 N 
HETATM   16  C   UNL     1      27.036  49.670  40.187  1.00  0.00     0.253 C 
HETATM   17  O   UNL     1      27.329  49.421  41.350  1.00  0.00    -0.268 OA
HETATM   18  H   UNL     1      27.692  50.388  38.400  1.00  0.00     0.164 HD
BRANCH  16  19
HETATM   19  C   UNL     1      25.882  49.002  39.513  1.00  0.00     0.032 A 
HETATM   20  C   UNL     1      25.183  47.949  40.112  1.00  0.00     0.017 A 
HETATM   21  C   UNL     1      24.077  47.379  39.468  1.00  0.00     0.009 A 
HETATM   22  C   UNL     1      23.640  47.833  38.210  1.00  0.00    -0.051 A 
HETATM   23  C   UNL     1      24.382  48.863  37.606  1.00  0.00     0.009 A 
HETATM   24  C   UNL     1      25.490  49.439  38.247  1.00  0.00     0.017 A 
BRANCH  22  25
HETATM   25  C   UNL     1      22.408  47.191  37.545  1.00  0.00    -0.024 C 
HETATM   26  C   UNL     1      22.820  45.910  36.783  1.00  0.00     0.019 C 
HETATM   27  C   UNL     1      21.787  48.191  36.549  1.00  0.00     0.019 C 
HETATM   28  C   UNL     1      21.303  46.781  38.544  1.00  0.00     0.019 C 
ENDBRANCH  22  25
ENDBRANCH  16  19
ENDBRANCH   1  15
BRANCH   1  29
HETATM   29  C   UNL     1      29.557  52.198  38.853  1.00  0.00     0.426 C 
HETATM   30  F   UNL     1      29.506  51.737  37.578  1.00  0.00    -0.167 F 
HETATM   31  F   UNL     1      28.809  53.324  38.874  1.00  0.00    -0.167 F 
HETATM   32  F   UNL     1      30.841  52.556  39.089  1.00  0.00    -0.167 F 
ENDBRANCH   1  29
BRANCH   7  33
HETATM   33  C   UNL     1      32.528  50.055  42.946  1.00  0.00     0.140 C 
BRANCH  33  34
HETATM   34  C   UNL     1      33.275  51.375  42.746  1.00  0.00     0.059 C 
BRANCH  34  35
HETATM   35  C   UNL     1      34.280  51.241  41.625  1.00  0.00    -0.057 A 
HETATM   36  C   UNL     1      35.499  50.581  41.836  1.00  0.00     0.007 A 
HETATM   37  C   UNL     1      36.455  50.522  40.820  1.00  0.00     0.001 A 
HETATM   38  C   UNL     1      36.201  51.117  39.586  1.00  0.00     0.000 A 
HETATM   39  C   UNL     1      34.991  51.769  39.365  1.00  0.00     0.001 A 
HETATM   40  C   UNL     1      34.034  51.835  40.380  1.00  0.00     0.007 A 
ENDBRANCH  34  35
ENDBRANCH  33  34
ENDBRANCH   7  33
TORSDOF 7
ENDMDL
MODEL 8
REMARK VINA RESULT:      -8.5      4.451     11.877
REMARK  7 active torsions:
REMARK  status: ('A' for Active; 'I' for Inactive)
REMARK    1  A    between atoms: C_2  and  C_3 
REMARK    2  A    between atoms: C_6  and  C_7 
REMARK       I    between atoms: C_7  and  N_8 
REMARK    3  A    between atoms: N_8  and  C_9 
REMARK    4  A    between atoms: C_9  and  C_10 
REMARK    5  A    between atoms: N_19  and  C_20 
REMARK    6  A    between atoms: C_20  and  C_21 
REMARK    7  A    between atoms: C_21  and  C_22 
ROOT
HETATM    1  C   UNL     1      19.635  49.156  48.950  1.00  0.00     0.249 C 
HETATM    2  C   UNL     1      19.648  47.615  48.910  1.00  0.00     0.266 C 
HETATM    3  O   UNL     1      18.695  46.860  48.819  1.00  0.00    -0.270 OA
HETATM    4  N   UNL     1      20.975  47.206  49.031  1.00  0.00    -0.310 N 
HETATM    5  C   UNL     1      21.818  48.266  48.995  1.00  0.00     0.129 C 
HETATM    6  C   UNL     1      21.112  49.389  48.887  1.00  0.00     0.101 C 
HETATM    7  N   UNL     1      23.182  48.248  49.084  1.00  0.00    -0.284 N 
HETATM    8  C   UNL     1      23.910  49.432  48.940  1.00  0.00     0.331 C 
HETATM    9  O   UNL     1      25.135  49.501  48.997  1.00  0.00    -0.246 OA
HETATM   10  N   UNL     1      23.161  50.574  48.759  1.00  0.00    -0.275 N 
HETATM   11  C   UNL     1      21.796  50.665  48.811  1.00  0.00     0.262 C 
HETATM   12  O   UNL     1      21.182  51.723  48.804  1.00  0.00    -0.267 OA
HETATM   13  H   UNL     1      21.238  46.231  49.016  1.00  0.00     0.170 HD
HETATM   14  H   UNL     1      23.678  51.438  48.707  1.00  0.00     0.173 HD
ENDROOT
BRANCH   1  15
HETATM   15  N   UNL     1      18.894  49.822  47.865  1.00  0.00    -0.327 N 
HETATM   16  C   UNL     1      18.993  49.453  46.544  1.00  0.00     0.253 C 
HETATM   17  O   UNL     1      19.635  48.477  46.176  1.00  0.00    -0.268 OA
HETATM   18  H   UNL     1      18.682  50.800  48.038  1.00  0.00     0.164 HD
BRANCH  16  19
HETATM   19  C   UNL     1      18.321  50.359  45.565  1.00  0.00     0.032 A 
HETATM   20  C   UNL     1      17.668  51.530  45.965  1.00  0.00     0.017 A 
HETATM   21  C   UNL     1      17.090  52.377  45.011  1.00  0.00     0.009 A 
HETATM   22  C   UNL     1      17.137  52.082  43.636  1.00  0.00    -0.051 A 
HETATM   23  C   UNL     1      17.760  50.881  43.258  1.00  0.00     0.009 A 
HETATM   24  C   UNL     1      18.342  50.028  44.209  1.00  0.00     0.017 A 
BRANCH  22  25
HETATM   25  C   UNL     1      16.504  53.051  42.619  1.00  0.00    -0.024 C 
HETATM   26  C   UNL     1      17.571  53.540  41.613  1.00  0.00     0.019 C 
HETATM   27  C   UNL     1      15.923  54.267  43.368  1.00  0.00     0.019 C 
HETATM   28  C   UNL     1      15.361  52.424  41.789  1.00  0.00     0.019 C 
ENDBRANCH  22  25
ENDBRANCH  16  19
ENDBRANCH   1  15
BRANCH   1  29
HETATM   29  C   UNL     1      19.079  49.492  50.343  1.00  0.00     0.426 C 
HETATM   30  F   UNL     1      17.916  50.183  50.244  1.00  0.00    -0.167 F 
HETATM   31  F   UNL     1      18.794  48.382  51.062  1.00  0.00    -0.167 F 
HETATM   32  F   UNL     1      19.923  50.250  51.081  1.00  0.00    -0.167 F 
ENDBRANCH   1  29
BRANCH   7  33
HETATM   33  C   UNL     1      23.906  47.031  49.444  1.00  0.00     0.140 C 
BRANCH  33  34
HETATM   34  C   UNL     1      24.624  47.122  50.792  1.00  0.00     0.059 C 
BRANCH  34  35
HETATM   35  C   UNL     1      25.462  45.886  51.021  1.00  0.00    -0.057 A 
HETATM   36  C   UNL     1      25.279  45.103  52.169  1.00  0.00     0.007 A 
HETATM   37  C   UNL     1      26.103  44.003  52.413  1.00  0.00     0.001 A 
HETATM   38  C   UNL     1      27.114  43.674  51.513  1.00  0.00     0.000 A 
HETATM   39  C   UNL     1      27.301  44.442  50.366  1.00  0.00     0.001 A 
HETATM   40  C   UNL     1      26.481  45.545  50.120  1.00  0.00     0.007 A 
ENDBRANCH  34  35
ENDBRANCH  33  34
ENDBRANCH   7  33
TORSDOF 7
ENDMDL
MODEL 9
REMARK VINA RESULT:      -8.4     11.855     15.476
REMARK  7 active torsions:
REMARK  status: ('A' for Active; 'I' for Inactive)
REMARK    1  A    between atoms: C_2  and  C_3 
REMARK    2  A    between atoms: C_6  and  C_7 
REMARK       I    between atoms: C_7  and  N_8 
REMARK    3  A    between atoms: N_8  and  C_9 
REMARK    4  A    between atoms: C_9  and  C_10 
REMARK    5  A    between atoms: N_19  and  C_20 
REMARK    6  A    between atoms: C_20  and  C_21 
REMARK    7  A    between atoms: C_21  and  C_22 
ROOT
HETATM    1  C   UNL     1      31.854  49.930  41.364  1.00  0.00     0.249 C 
HETATM    2  C   UNL     1      32.951  48.897  41.038  1.00  0.00     0.266 C 
HETATM    3  O   UNL     1      32.937  47.696  41.249  1.00  0.00    -0.270 OA
HETATM    4  N   UNL     1      34.019  49.589  40.468  1.00  0.00    -0.310 N 
HETATM    5  C   UNL     1      33.699  50.888  40.252  1.00  0.00     0.129 C 
HETATM    6  C   UNL     1      32.461  51.117  40.685  1.00  0.00     0.101 C 
HETATM    7  N   UNL     1      34.491  51.862  39.710  1.00  0.00    -0.284 N 
HETATM    8  C   UNL     1      33.973  53.138  39.475  1.00  0.00     0.331 C 
HETATM    9  O   UNL     1      34.613  54.063  38.983  1.00  0.00    -0.246 OA
HETATM   10  N   UNL     1      32.667  53.332  39.867  1.00  0.00    -0.275 N 
HETATM   11  C   UNL     1      31.883  52.439  40.546  1.00  0.00     0.262 C 
HETATM   12  O   UNL     1      30.786  52.711  41.013  1.00  0.00    -0.267 OA
HETATM   13  H   UNL     1      34.855  49.119  40.155  1.00  0.00     0.170 HD
HETATM   14  H   UNL     1      32.304  54.266  39.747  1.00  0.00     0.173 HD
ENDROOT
BRANCH   1  15
HETATM   15  N   UNL     1      30.502  49.608  40.876  1.00  0.00    -0.327 N 
HETATM   16  C   UNL     1      30.224  49.307  39.564  1.00  0.00     0.253 C 
HETATM   17  O   UNL     1      31.096  49.189  38.712  1.00  0.00    -0.268 OA
HETATM   18  H   UNL     1      29.750  50.044  41.400  1.00  0.00     0.164 HD
BRANCH  16  19
HETATM   19  C   UNL     1      28.775  49.196  39.216  1.00  0.00     0.032 A 
HETATM   20  C   UNL     1      28.145  50.109  38.364  1.00  0.00     0.017 A 
HETATM   21  C   UNL     1      26.796  49.943  38.025  1.00  0.00     0.009 A 
HETATM   22  C   UNL     1      26.034  48.873  38.529  1.00  0.00    -0.051 A 
HETATM   23  C   UNL     1      26.673  47.992  39.417  1.00  0.00     0.009 A 
HETATM   24  C   UNL     1      28.025  48.152  39.759  1.00  0.00     0.017 A 
BRANCH  22  25
HETATM   25  C   UNL     1      24.557  48.718  38.116  1.00  0.00    -0.024 C 
HETATM   26  C   UNL     1      23.896  47.576  38.921  1.00  0.00     0.019 C 
HETATM   27  C   UNL     1      24.481  48.385  36.613  1.00  0.00     0.019 C 
HETATM   28  C   UNL     1      23.707  49.985  38.357  1.00  0.00     0.019 C 
ENDBRANCH  22  25
ENDBRANCH  16  19
ENDBRANCH   1  15
BRANCH   1  29
HETATM   29  C   UNL     1      31.915  50.074  42.893  1.00  0.00     0.426 C 
HETATM   30  F   UNL     1      33.158  50.444  43.292  1.00  0.00    -0.167 F 
HETATM   31  F   UNL     1      31.075  51.030  43.351  1.00  0.00    -0.167 F 
HETATM   32  F   UNL     1      31.620  48.925  43.545  1.00  0.00    -0.167 F 
ENDBRANCH   1  29
BRANCH   7  33
HETATM   33  C   UNL     1      35.915  51.639  39.471  1.00  0.00     0.140 C 
BRANCH  33  34
HETATM   34  C   UNL     1      36.647  51.021  40.664  1.00  0.00     0.059 C 
BRANCH  34  35
HETATM   35  C   UNL     1      36.735  52.019  41.796  1.00  0.00    -0.057 A 
HETATM   36  C   UNL     1      37.436  53.222  41.632  1.00  0.00     0.007 A 
HETATM   37  C   UNL     1      37.576  54.109  42.701  1.00  0.00     0.001 A 
HETATM   38  C   UNL     1      37.016  53.804  43.940  1.00  0.00     0.000 A 
HETATM   39  C   UNL     1      36.313  52.614  44.111  1.00  0.00     0.001 A 
HETATM   40  C   UNL     1      36.174  51.723  43.046  1.00  0.00     0.007 A 
ENDBRANCH  34  35
ENDBRANCH  33  34
ENDBRANCH   7  33
TORSDOF 7
ENDMDL
MODEL 10
REMARK VINA RESULT:      -8.3     11.442     12.968
REMARK  7 active torsions:
REMARK  status: ('A' for Active; 'I' for Inactive)
REMARK    1  A    between atoms: C_2  and  C_3 
REMARK    2  A    between atoms: C_6  and  C_7 
REMARK       I    between atoms: C_7  and  N_8 
REMARK    3  A    between atoms: N_8  and  C_9 
REMARK    4  A    between atoms: C_9  and  C_10 
REMARK    5  A    between atoms: N_19  and  C_20 
REMARK    6  A    between atoms: C_20  and  C_21 
REMARK    7  A    between atoms: C_21  and  C_22 
ROOT
HETATM    1  C   UNL     1      31.242  49.194  40.871  1.00  0.00     0.249 C 
HETATM    2  C   UNL     1      30.023  49.012  41.798  1.00  0.00     0.266 C 
HETATM    3  O   UNL     1      29.960  48.373  42.834  1.00  0.00    -0.270 OA
HETATM    4  N   UNL     1      28.955  49.697  41.221  1.00  0.00    -0.310 N 
HETATM    5  C   UNL     1      29.356  50.407  40.140  1.00  0.00     0.129 C 
HETATM    6  C   UNL     1      30.656  50.206  39.936  1.00  0.00     0.101 C 
HETATM    7  N   UNL     1      28.588  51.196  39.330  1.00  0.00    -0.284 N 
HETATM    8  C   UNL     1      29.181  51.934  38.302  1.00  0.00     0.331 C 
HETATM    9  O   UNL     1      28.565  52.672  37.538  1.00  0.00    -0.246 OA
HETATM   10  N   UNL     1      30.539  51.764  38.153  1.00  0.00    -0.275 N 
HETATM   11  C   UNL     1      31.325  50.878  38.839  1.00  0.00     0.262 C 
HETATM   12  O   UNL     1      32.495  50.648  38.565  1.00  0.00    -0.267 OA
HETATM   13  H   UNL     1      28.045  49.734  41.658  1.00  0.00     0.170 HD
HETATM   14  H   UNL     1      30.964  52.254  37.381  1.00  0.00     0.173 HD
ENDROOT
BRANCH   1  15
HETATM   15  N   UNL     1      32.482  49.651  41.520  1.00  0.00    -0.327 N 
HETATM   16  C   UNL     1      32.538  50.733  42.366  1.00  0.00     0.253 C 
HETATM   17  O   UNL     1      31.540  51.347  42.723  1.00  0.00    -0.268 OA
HETATM   18  H   UNL     1      33.329  49.452  40.997  1.00  0.00     0.164 HD
BRANCH  16  19
HETATM   19  C   UNL     1      33.908  51.164  42.779  1.00  0.00     0.032 A 
HETATM   20  C   UNL     1      34.122  52.003  43.877  1.00  0.00     0.017 A 
HETATM   21  C   UNL     1      35.424  52.347  44.260  1.00  0.00     0.009 A 
HETATM   22  C   UNL     1      36.549  51.874  43.560  1.00  0.00    -0.051 A 
HETATM   23  C   UNL     1      36.312  51.067  42.434  1.00  0.00     0.009 A 
HETATM   24  C   UNL     1      35.009  50.718  42.046  1.00  0.00     0.017 A 
BRANCH  22  25
HETATM   25  C   UNL     1      37.966  52.262  44.026  1.00  0.00    -0.024 C 
HETATM   26  C   UNL     1      37.904  52.932  45.417  1.00  0.00     0.019 C 
HETATM   27  C   UNL     1      38.581  53.252  43.017  1.00  0.00     0.019 C 
HETATM   28  C   UNL     1      38.931  51.062  44.150  1.00  0.00     0.019 C 
ENDBRANCH  22  25
ENDBRANCH  16  19
ENDBRANCH   1  15
BRANCH   1  29
HETATM   29  C   UNL     1      31.399  47.829  40.182  1.00  0.00     0.426 C 
HETATM   30  F   UNL     1      32.546  47.220  40.576  1.00  0.00    -0.167 F 
HETATM   31  F   UNL     1      30.397  46.977  40.500  1.00  0.00    -0.167 F 
HETATM   32  F   UNL     1      31.445  47.919  38.833  1.00  0.00    -0.167 F 
ENDBRANCH   1  29
BRANCH   7  33
HETATM   33  C   UNL     1      27.130  51.203  39.433  1.00  0.00     0.140 C 
BRANCH  33  34
HETATM   34  C   UNL     1      26.442  50.262  38.442  1.00  0.00     0.059 C 
BRANCH  34  35
HETATM   35  C   UNL     1      26.577  48.830  38.902  1.00  0.00    -0.057 A 
HETATM   36  C   UNL     1      25.895  48.379  40.042  1.00  0.00     0.007 A 
HETATM   37  C   UNL     1      26.079  47.075  40.506  1.00  0.00     0.001 A 
HETATM   38  C   UNL     1      26.940  46.210  39.835  1.00  0.00     0.000 A 
HETATM   39  C   UNL     1      27.617  46.645  38.698  1.00  0.00     0.001 A 
HETATM   40  C   UNL     1      27.440  47.950  38.234  1.00  0.00     0.007 A 
ENDBRANCH  34  35
ENDBRANCH  33  34
ENDBRANCH   7  33
TORSDOF 7
ENDMDL
