MODEL 1
REMARK VINA RESULT:      -9.6      0.000      0.000
REMARK  7 active torsions:
REMARK  status: ('A' for Active; 'I' for Inactive)
REMARK    1  A    between atoms: C_2  and  O_3 
REMARK    2  A    between atoms: O_3  and  C_4 
REMARK    3  A    between atoms: C_5  and  N_6 
REMARK    4  A    between atoms: N_9  and  C_11 
REMARK    5  A    between atoms: C_11  and  C_12 
REMARK       I    between atoms: C_12  and  N_13 
REMARK    6  A    between atoms: N_13  and  C_14 
REMARK    7  A    between atoms: C_15  and  C_16 
ROOT
HETATM    1  C   UNL     1      27.945  43.259  52.510  1.00  0.00     0.275 C 
HETATM    2  C   UNL     1      28.785  42.128  51.915  1.00  0.00     0.050 C 
ENDROOT
BRANCH   1   3
HETATM    3  N   UNL     1      26.825  43.620  51.495  1.00  0.00    -0.056 N 
HETATM    4  C   UNL     1      25.425  43.821  52.105  1.00  0.00     0.255 C 
HETATM    5  C   UNL     1      24.389  44.060  50.979  1.00  0.00     0.150 C 
HETATM    6  N   UNL     1      24.810  45.202  50.136  1.00  0.00    -0.375 N 
HETATM    7  C   UNL     1      26.152  45.075  49.548  1.00  0.00     0.150 C 
HETATM    8  C   UNL     1      27.192  44.846  50.659  1.00  0.00     0.255 C 
HETATM    9  H   UNL     1      26.748  42.832  50.844  1.00  0.00     0.281 HD
BRANCH   6  10
HETATM   10  C   UNL     1      23.790  45.768  49.340  1.00  0.00     0.064 A 
HETATM   11  C   UNL     1      23.633  47.177  49.224  1.00  0.00     0.095 A 
HETATM   12  C   UNL     1      22.636  47.712  48.393  1.00  0.00     0.039 A 
HETATM   13  C   UNL     1      21.788  46.878  47.666  1.00  0.00     0.003 A 
HETATM   14  C   UNL     1      21.928  45.502  47.763  1.00  0.00     0.002 A 
HETATM   15  C   UNL     1      22.916  44.957  48.587  1.00  0.00     0.032 A 
BRANCH  11  16
HETATM   16  O   UNL     1      24.533  47.958  49.918  1.00  0.00    -0.349 OA
BRANCH  16  17
HETATM   17  C   UNL     1      25.372  48.827  49.156  1.00  0.00     0.171 C 
HETATM   18  C   UNL     1      26.814  48.560  49.550  1.00  0.00     0.034 C 
ENDBRANCH  16  17
ENDBRANCH  11  16
ENDBRANCH   6  10
ENDBRANCH   1   3
BRANCH   1  19
HETATM   19  C   UNL     1      27.397  42.870  53.900  1.00  0.00     0.253 C 
HETATM   20  N   UNL     1      27.079  43.824  54.829  1.00  0.00    -0.325 N 
HETATM   21  H   UNL     1      26.416  43.480  55.519  1.00  0.00     0.169 HD
HETATM   22  O   UNL     1      27.047  41.706  54.123  1.00  0.00    -0.271 OA
BRANCH  20  23
HETATM   23  C   UNL     1      27.347  45.206  54.843  1.00  0.00     0.045 A 
HETATM   24  C   UNL     1      28.556  45.791  55.290  1.00  0.00     0.001 A 
HETATM   25  C   UNL     1      28.696  47.188  55.134  1.00  0.00     0.014 A 
HETATM   26  C   UNL     1      27.673  47.976  54.603  1.00  0.00     0.001 A 
HETATM   27  C   UNL     1      26.464  47.393  54.252  1.00  0.00     0.002 A 
HETATM   28  C   UNL     1      26.294  46.019  54.392  1.00  0.00     0.030 A 
BRANCH  24  29
HETATM   29  C   UNL     1      29.610  45.060  56.033  1.00  0.00    -0.024 A 
HETATM   30  C   UNL     1      30.314  43.990  55.445  1.00  0.00     0.012 A 
HETATM   31  C   UNL     1      31.342  43.335  56.131  1.00  0.00     0.001 A 
HETATM   32  C   UNL     1      31.688  43.738  57.417  1.00  0.00     0.000 A 
HETATM   33  C   UNL     1      31.012  44.797  58.016  1.00  0.00     0.001 A 
HETATM   34  C   UNL     1      29.987  45.451  57.329  1.00  0.00     0.012 A 
ENDBRANCH  24  29
ENDBRANCH  20  23
ENDBRANCH   1  19
TORSDOF 7
ENDMDL
MODEL 2
REMARK VINA RESULT:      -9.4      1.237      2.572
REMARK  7 active torsions:
REMARK  status: ('A' for Active; 'I' for Inactive)
REMARK    1  A    between atoms: C_2  and  O_3 
REMARK    2  A    between atoms: O_3  and  C_4 
REMARK    3  A    between atoms: C_5  and  N_6 
REMARK    4  A    between atoms: N_9  and  C_11 
REMARK    5  A    between atoms: C_11  and  C_12 
REMARK       I    between atoms: C_12  and  N_13 
REMARK    6  A    between atoms: N_13  and  C_14 
REMARK    7  A    between atoms: C_15  and  C_16 
ROOT
HETATM    1  C   UNL     1      27.953  43.293  52.300  1.00  0.00     0.275 C 
HETATM    2  C   UNL     1      28.283  42.116  51.382  1.00  0.00     0.050 C 
ENDROOT
BRANCH   1   3
HETATM    3  N   UNL     1      26.865  44.162  51.609  1.00  0.00    -0.056 N 
HETATM    4  C   UNL     1      27.242  44.701  50.217  1.00  0.00     0.255 C 
HETATM    5  C   UNL     1      26.125  45.639  49.695  1.00  0.00     0.150 C 
HETATM    6  N   UNL     1      24.825  44.931  49.697  1.00  0.00    -0.375 N 
HETATM    7  C   UNL     1      24.428  44.372  50.998  1.00  0.00     0.150 C 
HETATM    8  C   UNL     1      25.526  43.430  51.522  1.00  0.00     0.255 C 
HETATM    9  H   UNL     1      26.715  44.981  52.207  1.00  0.00     0.281 HD
BRANCH   6  10
HETATM   10  C   UNL     1      23.821  45.516  48.894  1.00  0.00     0.064 A 
HETATM   11  C   UNL     1      23.262  44.826  47.783  1.00  0.00     0.095 A 
HETATM   12  C   UNL     1      22.236  45.417  47.027  1.00  0.00     0.039 A 
HETATM   13  C   UNL     1      21.747  46.680  47.353  1.00  0.00     0.003 A 
HETATM   14  C   UNL     1      22.277  47.366  48.435  1.00  0.00     0.002 A 
HETATM   15  C   UNL     1      23.298  46.790  49.194  1.00  0.00     0.032 A 
BRANCH  11  16
HETATM   16  O   UNL     1      23.742  43.557  47.538  1.00  0.00    -0.349 OA
BRANCH  16  17
HETATM   17  C   UNL     1      22.797  42.486  47.548  1.00  0.00     0.171 C 
HETATM   18  C   UNL     1      23.018  41.670  48.810  1.00  0.00     0.034 C 
ENDBRANCH  16  17
ENDBRANCH  11  16
ENDBRANCH   6  10
ENDBRANCH   1   3
BRANCH   1  19
HETATM   19  C   UNL     1      27.532  42.801  53.702  1.00  0.00     0.253 C 
HETATM   20  N   UNL     1      27.188  43.685  54.690  1.00  0.00    -0.325 N 
HETATM   21  H   UNL     1      26.604  43.253  55.402  1.00  0.00     0.169 HD
HETATM   22  O   UNL     1      27.304  41.602  53.893  1.00  0.00    -0.271 OA
BRANCH  20  23
HETATM   23  C   UNL     1      27.328  45.084  54.749  1.00  0.00     0.045 A 
HETATM   24  C   UNL     1      28.475  45.762  55.228  1.00  0.00     0.001 A 
HETATM   25  C   UNL     1      28.488  47.170  55.116  1.00  0.00     0.014 A 
HETATM   26  C   UNL     1      27.403  47.878  54.597  1.00  0.00     0.001 A 
HETATM   27  C   UNL     1      26.255  47.199  54.214  1.00  0.00     0.002 A 
HETATM   28  C   UNL     1      26.210  45.811  54.310  1.00  0.00     0.030 A 
BRANCH  24  29
HETATM   29  C   UNL     1      29.584  45.106  55.961  1.00  0.00    -0.024 A 
HETATM   30  C   UNL     1      29.930  45.496  57.270  1.00  0.00     0.012 A 
HETATM   31  C   UNL     1      30.944  44.841  57.977  1.00  0.00     0.001 A 
HETATM   32  C   UNL     1      31.630  43.782  57.391  1.00  0.00     0.000 A 
HETATM   33  C   UNL     1      31.300  43.374  56.101  1.00  0.00     0.001 A 
HETATM   34  C   UNL     1      30.286  44.028  55.397  1.00  0.00     0.012 A 
ENDBRANCH  24  29
ENDBRANCH  20  23
ENDBRANCH   1  19
TORSDOF 7
ENDMDL
MODEL 3
REMARK VINA RESULT:      -9.1      3.413      5.040
REMARK  7 active torsions:
REMARK  status: ('A' for Active; 'I' for Inactive)
REMARK    1  A    between atoms: C_2  and  O_3 
REMARK    2  A    between atoms: O_3  and  C_4 
REMARK    3  A    between atoms: C_5  and  N_6 
REMARK    4  A    between atoms: N_9  and  C_11 
REMARK    5  A    between atoms: C_11  and  C_12 
REMARK       I    between atoms: C_12  and  N_13 
REMARK    6  A    between atoms: N_13  and  C_14 
REMARK    7  A    between atoms: C_15  and  C_16 
ROOT
HETATM    1  C   UNL     1      28.042  43.128  52.680  1.00  0.00     0.275 C 
HETATM    2  C   UNL     1      29.530  42.797  52.564  1.00  0.00     0.050 C 
ENDROOT
BRANCH   1   3
HETATM    3  N   UNL     1      27.285  42.370  51.555  1.00  0.00    -0.056 N 
HETATM    4  C   UNL     1      27.178  43.120  50.214  1.00  0.00     0.255 C 
HETATM    5  C   UNL     1      26.305  42.308  49.224  1.00  0.00     0.150 C 
HETATM    6  N   UNL     1      26.853  40.941  49.068  1.00  0.00    -0.375 N 
HETATM    7  C   UNL     1      27.001  40.188  50.322  1.00  0.00     0.150 C 
HETATM    8  C   UNL     1      27.874  40.981  51.311  1.00  0.00     0.255 C 
HETATM    9  H   UNL     1      26.325  42.228  51.886  1.00  0.00     0.281 HD
BRANCH   6  10
HETATM   10  C   UNL     1      26.405  40.242  47.926  1.00  0.00     0.064 A 
HETATM   11  C   UNL     1      27.270  39.380  47.196  1.00  0.00     0.095 A 
HETATM   12  C   UNL     1      26.786  38.665  46.088  1.00  0.00     0.039 A 
HETATM   13  C   UNL     1      25.456  38.784  45.687  1.00  0.00     0.003 A 
HETATM   14  C   UNL     1      24.598  39.617  46.389  1.00  0.00     0.002 A 
HETATM   15  C   UNL     1      25.067  40.333  47.492  1.00  0.00     0.032 A 
BRANCH  11  16
HETATM   16  O   UNL     1      28.560  39.254  47.667  1.00  0.00    -0.349 OA
BRANCH  16  17
HETATM   17  C   UNL     1      28.971  37.961  48.114  1.00  0.00     0.171 C 
HETATM   18  C   UNL     1      30.006  38.147  49.211  1.00  0.00     0.034 C 
ENDBRANCH  16  17
ENDBRANCH  11  16
ENDBRANCH   6  10
ENDBRANCH   1   3
BRANCH   1  19
HETATM   19  C   UNL     1      27.510  42.802  54.092  1.00  0.00     0.253 C 
HETATM   20  N   UNL     1      27.069  43.791  54.930  1.00  0.00    -0.325 N 
HETATM   21  H   UNL     1      26.433  43.435  55.640  1.00  0.00     0.169 HD
HETATM   22  O   UNL     1      27.284  41.629  54.411  1.00  0.00    -0.271 OA
BRANCH  20  23
HETATM   23  C   UNL     1      27.184  45.190  54.826  1.00  0.00     0.045 A 
HETATM   24  C   UNL     1      28.275  45.950  55.312  1.00  0.00     0.001 A 
HETATM   25  C   UNL     1      28.278  47.333  55.028  1.00  0.00     0.014 A 
HETATM   26  C   UNL     1      27.232  47.945  54.335  1.00  0.00     0.001 A 
HETATM   27  C   UNL     1      26.131  47.196  53.943  1.00  0.00     0.002 A 
HETATM   28  C   UNL     1      26.098  45.830  54.207  1.00  0.00     0.030 A 
BRANCH  24  29
HETATM   29  C   UNL     1      29.325  45.417  56.213  1.00  0.00    -0.024 A 
HETATM   30  C   UNL     1      30.281  44.488  55.756  1.00  0.00     0.012 A 
HETATM   31  C   UNL     1      31.300  44.026  56.594  1.00  0.00     0.001 A 
HETATM   32  C   UNL     1      31.387  44.485  57.904  1.00  0.00     0.000 A 
HETATM   33  C   UNL     1      30.458  45.408  58.376  1.00  0.00     0.001 A 
HETATM   34  C   UNL     1      29.442  45.871  57.538  1.00  0.00     0.012 A 
ENDBRANCH  24  29
ENDBRANCH  20  23
ENDBRANCH   1  19
TORSDOF 7
ENDMDL
MODEL 4
REMARK VINA RESULT:      -9.0      1.535      2.339
REMARK  7 active torsions:
REMARK  status: ('A' for Active; 'I' for Inactive)
REMARK    1  A    between atoms: C_2  and  O_3 
REMARK    2  A    between atoms: O_3  and  C_4 
REMARK    3  A    between atoms: C_5  and  N_6 
REMARK    4  A    between atoms: N_9  and  C_11 
REMARK    5  A    between atoms: C_11  and  C_12 
REMARK       I    between atoms: C_12  and  N_13 
REMARK    6  A    between atoms: N_13  and  C_14 
REMARK    7  A    between atoms: C_15  and  C_16 
ROOT
HETATM    1  C   UNL     1      27.048  44.446  51.422  1.00  0.00     0.275 C 
HETATM    2  C   UNL     1      27.334  43.558  50.211  1.00  0.00     0.050 C 
ENDROOT
BRANCH   1   3
HETATM    3  N   UNL     1      25.916  45.440  51.042  1.00  0.00    -0.056 N 
HETATM    4  C   UNL     1      26.274  46.931  51.188  1.00  0.00     0.255 C 
HETATM    5  C   UNL     1      25.029  47.803  50.891  1.00  0.00     0.150 C 
HETATM    6  N   UNL     1      24.488  47.477  49.551  1.00  0.00    -0.375 N 
HETATM    7  C   UNL     1      24.153  46.060  49.348  1.00  0.00     0.150 C 
HETATM    8  C   UNL     1      25.386  45.183  49.632  1.00  0.00     0.255 C 
HETATM    9  H   UNL     1      25.138  45.264  51.686  1.00  0.00     0.281 HD
BRANCH   6  10
HETATM   10  C   UNL     1      23.621  48.447  49.002  1.00  0.00     0.064 A 
HETATM   11  C   UNL     1      24.090  49.428  48.084  1.00  0.00     0.095 A 
HETATM   12  C   UNL     1      23.196  50.354  47.521  1.00  0.00     0.039 A 
HETATM   13  C   UNL     1      21.841  50.328  47.847  1.00  0.00     0.003 A 
HETATM   14  C   UNL     1      21.366  49.377  48.737  1.00  0.00     0.002 A 
HETATM   15  C   UNL     1      22.244  48.450  49.304  1.00  0.00     0.032 A 
BRANCH  11  16
HETATM   16  O   UNL     1      25.427  49.374  47.751  1.00  0.00    -0.349 OA
BRANCH  16  17
HETATM   17  C   UNL     1      26.300  50.304  48.396  1.00  0.00     0.171 C 
HETATM   18  C   UNL     1      27.544  49.554  48.841  1.00  0.00     0.034 C 
ENDBRANCH  16  17
ENDBRANCH  11  16
ENDBRANCH   6  10
ENDBRANCH   1   3
BRANCH   1  19
HETATM   19  C   UNL     1      26.712  43.596  52.667  1.00  0.00     0.253 C 
HETATM   20  N   UNL     1      26.567  44.171  53.901  1.00  0.00    -0.325 N 
HETATM   21  H   UNL     1      26.010  43.595  54.527  1.00  0.00     0.169 HD
HETATM   22  O   UNL     1      26.371  42.416  52.535  1.00  0.00    -0.271 OA
BRANCH  20  23
HETATM   23  C   UNL     1      26.868  45.475  54.338  1.00  0.00     0.045 A 
HETATM   24  C   UNL     1      28.132  45.894  54.820  1.00  0.00     0.001 A 
HETATM   25  C   UNL     1      28.289  47.266  55.117  1.00  0.00     0.014 A 
HETATM   26  C   UNL     1      27.236  48.173  54.987  1.00  0.00     0.001 A 
HETATM   27  C   UNL     1      25.982  47.724  54.597  1.00  0.00     0.002 A 
HETATM   28  C   UNL     1      25.794  46.378  54.295  1.00  0.00     0.030 A 
BRANCH  24  29
HETATM   29  C   UNL     1      29.240  44.971  55.163  1.00  0.00    -0.024 A 
HETATM   30  C   UNL     1      30.008  45.147  56.330  1.00  0.00     0.012 A 
HETATM   31  C   UNL     1      31.019  44.246  56.677  1.00  0.00     0.001 A 
HETATM   32  C   UNL     1      31.281  43.148  55.864  1.00  0.00     0.000 A 
HETATM   33  C   UNL     1      30.532  42.948  54.708  1.00  0.00     0.001 A 
HETATM   34  C   UNL     1      29.520  43.848  54.365  1.00  0.00     0.012 A 
ENDBRANCH  24  29
ENDBRANCH  20  23
ENDBRANCH   1  19
TORSDOF 7
ENDMDL
MODEL 5
REMARK VINA RESULT:      -8.9      2.710      3.774
REMARK  7 active torsions:
REMARK  status: ('A' for Active; 'I' for Inactive)
REMARK    1  A    between atoms: C_2  and  O_3 
REMARK    2  A    between atoms: O_3  and  C_4 
REMARK    3  A    between atoms: C_5  and  N_6 
REMARK    4  A    between atoms: N_9  and  C_11 
REMARK    5  A    between atoms: C_11  and  C_12 
REMARK       I    between atoms: C_12  and  N_13 
REMARK    6  A    between atoms: N_13  and  C_14 
REMARK    7  A    between atoms: C_15  and  C_16 
ROOT
HETATM    1  C   UNL     1      28.775  43.313  52.730  1.00  0.00     0.275 C 
HETATM    2  C   UNL     1      30.222  42.852  52.907  1.00  0.00     0.050 C 
ENDROOT
BRANCH   1   3
HETATM    3  N   UNL     1      28.259  42.787  51.362  1.00  0.00    -0.056 N 
HETATM    4  C   UNL     1      28.086  41.259  51.269  1.00  0.00     0.255 C 
HETATM    5  C   UNL     1      27.681  40.862  49.827  1.00  0.00     0.150 C 
HETATM    6  N   UNL     1      26.462  41.598  49.422  1.00  0.00    -0.375 N 
HETATM    7  C   UNL     1      26.563  43.062  49.517  1.00  0.00     0.150 C 
HETATM    8  C   UNL     1      26.956  43.469  50.948  1.00  0.00     0.255 C 
HETATM    9  H   UNL     1      28.962  43.043  50.662  1.00  0.00     0.281 HD
BRANCH   6  10
HETATM   10  C   UNL     1      25.772  41.053  48.317  1.00  0.00     0.064 A 
HETATM   11  C   UNL     1      24.354  41.118  48.220  1.00  0.00     0.095 A 
HETATM   12  C   UNL     1      23.698  40.605  47.090  1.00  0.00     0.039 A 
HETATM   13  C   UNL     1      24.419  40.028  46.046  1.00  0.00     0.003 A 
HETATM   14  C   UNL     1      25.802  39.959  46.121  1.00  0.00     0.002 A 
HETATM   15  C   UNL     1      26.467  40.466  47.240  1.00  0.00     0.032 A 
BRANCH  11  16
HETATM   16  O   UNL     1      23.692  41.749  49.253  1.00  0.00    -0.349 OA
BRANCH  16  17
HETATM   17  C   UNL     1      22.848  42.851  48.914  1.00  0.00     0.171 C 
HETATM   18  C   UNL     1      22.822  43.807  50.095  1.00  0.00     0.034 C 
ENDBRANCH  16  17
ENDBRANCH  11  16
ENDBRANCH   6  10
ENDBRANCH   1   3
BRANCH   1  19
HETATM   19  C   UNL     1      27.901  42.861  53.920  1.00  0.00     0.253 C 
HETATM   20  N   UNL     1      27.131  43.755  54.614  1.00  0.00    -0.325 N 
HETATM   21  H   UNL     1      26.362  43.300  55.101  1.00  0.00     0.169 HD
HETATM   22  O   UNL     1      27.726  41.656  54.135  1.00  0.00    -0.271 OA
BRANCH  20  23
HETATM   23  C   UNL     1      27.113  45.162  54.577  1.00  0.00     0.045 A 
HETATM   24  C   UNL     1      28.072  45.999  55.197  1.00  0.00     0.001 A 
HETATM   25  C   UNL     1      27.962  47.388  54.969  1.00  0.00     0.014 A 
HETATM   26  C   UNL     1      26.929  47.930  54.202  1.00  0.00     0.001 A 
HETATM   27  C   UNL     1      25.950  47.098  53.676  1.00  0.00     0.002 A 
HETATM   28  C   UNL     1      26.030  45.723  53.882  1.00  0.00     0.030 A 
BRANCH  24  29
HETATM   29  C   UNL     1      29.082  45.527  56.173  1.00  0.00    -0.024 A 
HETATM   30  C   UNL     1      30.134  44.674  55.786  1.00  0.00     0.012 A 
HETATM   31  C   UNL     1      31.114  44.270  56.699  1.00  0.00     0.001 A 
HETATM   32  C   UNL     1      31.064  44.715  58.016  1.00  0.00     0.000 A 
HETATM   33  C   UNL     1      30.038  45.564  58.421  1.00  0.00     0.001 A 
HETATM   34  C   UNL     1      29.061  45.967  57.508  1.00  0.00     0.012 A 
ENDBRANCH  24  29
ENDBRANCH  20  23
ENDBRANCH   1  19
TORSDOF 7
ENDMDL
MODEL 6
REMARK VINA RESULT:      -8.7      2.824      5.681
REMARK  7 active torsions:
REMARK  status: ('A' for Active; 'I' for Inactive)
REMARK    1  A    between atoms: C_2  and  O_3 
REMARK    2  A    between atoms: O_3  and  C_4 
REMARK    3  A    between atoms: C_5  and  N_6 
REMARK    4  A    between atoms: N_9  and  C_11 
REMARK    5  A    between atoms: C_11  and  C_12 
REMARK       I    between atoms: C_12  and  N_13 
REMARK    6  A    between atoms: N_13  and  C_14 
REMARK    7  A    between atoms: C_15  and  C_16 
ROOT
HETATM    1  C   UNL     1      24.819  44.945  49.609  1.00  0.00     0.275 C 
HETATM    2  C   UNL     1      24.312  44.554  50.997  1.00  0.00     0.050 C 
ENDROOT
BRANCH   1   3
HETATM    3  N   UNL     1      24.020  46.189  49.130  1.00  0.00    -0.056 N 
HETATM    4  C   UNL     1      22.556  45.918  48.735  1.00  0.00     0.255 C 
HETATM    5  C   UNL     1      21.915  47.211  48.171  1.00  0.00     0.150 C 
HETATM    6  N   UNL     1      22.043  48.312  49.152  1.00  0.00    -0.375 N 
HETATM    7  C   UNL     1      23.420  48.596  49.585  1.00  0.00     0.150 C 
HETATM    8  C   UNL     1      24.064  47.321  50.156  1.00  0.00     0.255 C 
HETATM    9  H   UNL     1      24.489  46.537  48.288  1.00  0.00     0.281 HD
BRANCH   6  10
HETATM   10  C   UNL     1      21.176  49.406  48.943  1.00  0.00     0.064 A 
HETATM   11  C   UNL     1      19.786  49.318  49.232  1.00  0.00     0.095 A 
HETATM   12  C   UNL     1      18.954  50.436  49.054  1.00  0.00     0.039 A 
HETATM   13  C   UNL     1      19.473  51.646  48.596  1.00  0.00     0.003 A 
HETATM   14  C   UNL     1      20.826  51.751  48.313  1.00  0.00     0.002 A 
HETATM   15  C   UNL     1      21.664  50.647  48.486  1.00  0.00     0.032 A 
BRANCH  11  16
HETATM   16  O   UNL     1      19.334  48.117  49.736  1.00  0.00    -0.349 OA
BRANCH  16  17
HETATM   17  C   UNL     1      18.007  47.717  49.388  1.00  0.00     0.171 C 
HETATM   18  C   UNL     1      18.101  46.648  48.313  1.00  0.00     0.034 C 
ENDBRANCH  16  17
ENDBRANCH  11  16
ENDBRANCH   6  10
ENDBRANCH   1   3
BRANCH   1  19
HETATM   19  C   UNL     1      26.345  45.176  49.620  1.00  0.00     0.253 C 
HETATM   20  N   UNL     1      27.221  44.126  49.698  1.00  0.00    -0.325 N 
HETATM   21  H   UNL     1      28.141  44.368  49.339  1.00  0.00     0.169 HD
HETATM   22  O   UNL     1      26.803  46.293  49.356  1.00  0.00    -0.271 OA
BRANCH  20  23
HETATM   23  C   UNL     1      26.989  42.766  49.980  1.00  0.00     0.045 A 
HETATM   24  C   UNL     1      27.239  42.145  51.227  1.00  0.00     0.001 A 
HETATM   25  C   UNL     1      26.847  40.795  51.368  1.00  0.00     0.014 A 
HETATM   26  C   UNL     1      26.277  40.080  50.314  1.00  0.00     0.001 A 
HETATM   27  C   UNL     1      26.121  40.684  49.074  1.00  0.00     0.002 A 
HETATM   28  C   UNL     1      26.495  42.013  48.902  1.00  0.00     0.030 A 
BRANCH  24  29
HETATM   29  C   UNL     1      28.006  42.771  52.330  1.00  0.00    -0.024 A 
HETATM   30  C   UNL     1      27.408  43.699  53.205  1.00  0.00     0.012 A 
HETATM   31  C   UNL     1      28.121  44.250  54.275  1.00  0.00     0.001 A 
HETATM   32  C   UNL     1      29.445  43.881  54.493  1.00  0.00     0.000 A 
HETATM   33  C   UNL     1      30.055  42.961  53.646  1.00  0.00     0.001 A 
HETATM   34  C   UNL     1      29.341  42.411  52.579  1.00  0.00     0.012 A 
ENDBRANCH  24  29
ENDBRANCH  20  23
ENDBRANCH   1  19
TORSDOF 7
ENDMDL
MODEL 7
REMARK VINA RESULT:      -8.7      2.096      4.487
REMARK  7 active torsions:
REMARK  status: ('A' for Active; 'I' for Inactive)
REMARK    1  A    between atoms: C_2  and  O_3 
REMARK    2  A    between atoms: O_3  and  C_4 
REMARK    3  A    between atoms: C_5  and  N_6 
REMARK    4  A    between atoms: N_9  and  C_11 
REMARK    5  A    between atoms: C_11  and  C_12 
REMARK       I    between atoms: C_12  and  N_13 
REMARK    6  A    between atoms: N_13  and  C_14 
REMARK    7  A    between atoms: C_15  and  C_16 
ROOT
HETATM    1  C   UNL     1      25.857  44.130  50.283  1.00  0.00     0.275 C 
HETATM    2  C   UNL     1      25.826  43.024  49.228  1.00  0.00     0.050 C 
ENDROOT
BRANCH   1   3
HETATM    3  N   UNL     1      25.225  45.409  49.668  1.00  0.00    -0.056 N 
HETATM    4  C   UNL     1      23.805  45.232  49.099  1.00  0.00     0.255 C 
HETATM    5  C   UNL     1      23.342  46.544  48.418  1.00  0.00     0.150 C 
HETATM    6  N   UNL     1      23.435  47.672  49.373  1.00  0.00    -0.375 N 
HETATM    7  C   UNL     1      24.765  47.870  49.968  1.00  0.00     0.150 C 
HETATM    8  C   UNL     1      25.231  46.576  50.656  1.00  0.00     0.255 C 
HETATM    9  H   UNL     1      25.820  45.686  48.881  1.00  0.00     0.281 HD
BRANCH   6  10
HETATM   10  C   UNL     1      22.689  48.819  49.021  1.00  0.00     0.064 A 
HETATM   11  C   UNL     1      21.274  48.771  48.881  1.00  0.00     0.095 A 
HETATM   12  C   UNL     1      20.555  49.936  48.571  1.00  0.00     0.039 A 
HETATM   13  C   UNL     1      21.209  51.155  48.400  1.00  0.00     0.003 A 
HETATM   14  C   UNL     1      22.587  51.222  48.537  1.00  0.00     0.002 A 
HETATM   15  C   UNL     1      23.314  50.070  48.845  1.00  0.00     0.032 A 
BRANCH  11  16
HETATM   16  O   UNL     1      20.671  47.553  49.116  1.00  0.00    -0.349 OA
BRANCH  16  17
HETATM   17  C   UNL     1      19.671  47.127  48.188  1.00  0.00     0.171 C 
HETATM   18  C   UNL     1      18.313  47.290  48.848  1.00  0.00     0.034 C 
ENDBRANCH  16  17
ENDBRANCH  11  16
ENDBRANCH   6  10
ENDBRANCH   1   3
BRANCH   1  19
HETATM   19  C   UNL     1      25.158  43.676  51.583  1.00  0.00     0.253 C 
HETATM   20  N   UNL     1      25.877  43.380  52.709  1.00  0.00    -0.325 N 
HETATM   21  H   UNL     1      25.314  43.454  53.553  1.00  0.00     0.169 HD
HETATM   22  O   UNL     1      23.930  43.767  51.687  1.00  0.00    -0.271 OA
BRANCH  20  23
HETATM   23  C   UNL     1      27.264  43.214  52.886  1.00  0.00     0.045 A 
HETATM   24  C   UNL     1      28.081  44.043  53.693  1.00  0.00     0.001 A 
HETATM   25  C   UNL     1      29.434  43.669  53.843  1.00  0.00     0.014 A 
HETATM   26  C   UNL     1      29.967  42.555  53.191  1.00  0.00     0.001 A 
HETATM   27  C   UNL     1      29.169  41.807  52.337  1.00  0.00     0.002 A 
HETATM   28  C   UNL     1      27.830  42.149  52.168  1.00  0.00     0.030 A 
BRANCH  24  29
HETATM   29  C   UNL     1      27.644  45.339  54.264  1.00  0.00    -0.024 A 
HETATM   30  C   UNL     1      28.174  45.823  55.476  1.00  0.00     0.012 A 
HETATM   31  C   UNL     1      27.797  47.069  55.987  1.00  0.00     0.001 A 
HETATM   32  C   UNL     1      26.885  47.858  55.293  1.00  0.00     0.000 A 
HETATM   33  C   UNL     1      26.353  47.405  54.089  1.00  0.00     0.001 A 
HETATM   34  C   UNL     1      26.732  46.161  53.580  1.00  0.00     0.012 A 
ENDBRANCH  24  29
ENDBRANCH  20  23
ENDBRANCH   1  19
TORSDOF 7
ENDMDL
MODEL 8
REMARK VINA RESULT:      -8.5      2.306      4.050
REMARK  7 active torsions:
REMARK  status: ('A' for Active; 'I' for Inactive)
REMARK    1  A    between atoms: C_2  and  O_3 
REMARK    2  A    between atoms: O_3  and  C_4 
REMARK    3  A    between atoms: C_5  and  N_6 
REMARK    4  A    between atoms: N_9  and  C_11 
REMARK    5  A    between atoms: C_11  and  C_12 
REMARK       I    between atoms: C_12  and  N_13 
REMARK    6  A    between atoms: N_13  and  C_14 
REMARK    7  A    between atoms: C_15  and  C_16 
ROOT
HETATM    1  C   UNL     1      25.868  45.037  50.702  1.00  0.00     0.275 C 
HETATM    2  C   UNL     1      26.543  44.038  49.763  1.00  0.00     0.050 C 
ENDROOT
BRANCH   1   3
HETATM    3  N   UNL     1      24.990  45.994  49.848  1.00  0.00    -0.056 N 
HETATM    4  C   UNL     1      23.717  45.362  49.254  1.00  0.00     0.255 C 
HETATM    5  C   UNL     1      23.000  46.385  48.337  1.00  0.00     0.150 C 
HETATM    6  N   UNL     1      22.719  47.630  49.087  1.00  0.00    -0.375 N 
HETATM    7  C   UNL     1      23.898  48.262  49.700  1.00  0.00     0.150 C 
HETATM    8  C   UNL     1      24.613  47.258  50.620  1.00  0.00     0.255 C 
HETATM    9  H   UNL     1      25.564  46.294  49.054  1.00  0.00     0.281 HD
BRANCH   6  10
HETATM   10  C   UNL     1      21.742  48.471  48.511  1.00  0.00     0.064 A 
HETATM   11  C   UNL     1      20.386  48.058  48.388  1.00  0.00     0.095 A 
HETATM   12  C   UNL     1      19.428  48.932  47.848  1.00  0.00     0.039 A 
HETATM   13  C   UNL     1      19.785  50.212  47.428  1.00  0.00     0.003 A 
HETATM   14  C   UNL     1      21.101  50.632  47.543  1.00  0.00     0.002 A 
HETATM   15  C   UNL     1      22.064  49.773  48.078  1.00  0.00     0.032 A 
BRANCH  11  16
HETATM   16  O   UNL     1      20.075  46.805  48.870  1.00  0.00    -0.349 OA
BRANCH  16  17
HETATM   17  C   UNL     1      19.015  46.098  48.223  1.00  0.00     0.171 C 
HETATM   18  C   UNL     1      19.613  44.898  47.509  1.00  0.00     0.034 C 
ENDBRANCH  16  17
ENDBRANCH  11  16
ENDBRANCH   6  10
ENDBRANCH   1   3
BRANCH   1  19
HETATM   19  C   UNL     1      25.070  44.309  51.805  1.00  0.00     0.253 C 
HETATM   20  N   UNL     1      25.221  44.640  53.126  1.00  0.00    -0.325 N 
HETATM   21  H   UNL     1      24.415  44.366  53.682  1.00  0.00     0.169 HD
HETATM   22  O   UNL     1      24.137  43.559  51.500  1.00  0.00    -0.271 OA
BRANCH  20  23
HETATM   23  C   UNL     1      26.177  45.458  53.755  1.00  0.00     0.045 A 
HETATM   24  C   UNL     1      27.542  45.121  53.927  1.00  0.00     0.001 A 
HETATM   25  C   UNL     1      28.386  46.106  54.486  1.00  0.00     0.014 A 
HETATM   26  C   UNL     1      27.898  47.348  54.896  1.00  0.00     0.001 A 
HETATM   27  C   UNL     1      26.542  47.624  54.798  1.00  0.00     0.002 A 
HETATM   28  C   UNL     1      25.683  46.675  54.251  1.00  0.00     0.030 A 
BRANCH  24  29
HETATM   29  C   UNL     1      28.101  43.768  53.695  1.00  0.00    -0.024 A 
HETATM   30  C   UNL     1      27.435  42.611  54.144  1.00  0.00     0.012 A 
HETATM   31  C   UNL     1      27.940  41.335  53.879  1.00  0.00     0.001 A 
HETATM   32  C   UNL     1      29.120  41.189  53.157  1.00  0.00     0.000 A 
HETATM   33  C   UNL     1      29.793  42.317  52.696  1.00  0.00     0.001 A 
HETATM   34  C   UNL     1      29.286  43.591  52.960  1.00  0.00     0.012 A 
ENDBRANCH  24  29
ENDBRANCH  20  23
ENDBRANCH   1  19
TORSDOF 7
ENDMDL
MODEL 9
REMARK VINA RESULT:      -8.5      5.504     10.852
REMARK  7 active torsions:
REMARK  status: ('A' for Active; 'I' for Inactive)
REMARK    1  A    between atoms: C_2  and  O_3 
REMARK    2  A    between atoms: O_3  and  C_4 
REMARK    3  A    between atoms: C_5  and  N_6 
REMARK    4  A    between atoms: N_9  and  C_11 
REMARK    5  A    between atoms: C_11  and  C_12 
REMARK       I    between atoms: C_12  and  N_13 
REMARK    6  A    between atoms: N_13  and  C_14 
REMARK    7  A    between atoms: C_15  and  C_16 
ROOT
HETATM    1  C   UNL     1      18.927  50.254  49.009  1.00  0.00     0.275 C 
HETATM    2  C   UNL     1      18.636  51.606  49.660  1.00  0.00     0.050 C 
ENDROOT
BRANCH   1   3
HETATM    3  N   UNL     1      20.456  50.157  48.747  1.00  0.00    -0.056 N 
HETATM    4  C   UNL     1      21.346  50.859  49.789  1.00  0.00     0.255 C 
HETATM    5  C   UNL     1      22.830  50.785  49.350  1.00  0.00     0.150 C 
HETATM    6  N   UNL     1      23.223  49.376  49.123  1.00  0.00    -0.375 N 
HETATM    7  C   UNL     1      22.388  48.649  48.156  1.00  0.00     0.150 C 
HETATM    8  C   UNL     1      20.912  48.707  48.587  1.00  0.00     0.255 C 
HETATM    9  H   UNL     1      20.634  50.622  47.852  1.00  0.00     0.281 HD
BRANCH   6  10
HETATM   10  C   UNL     1      24.615  49.136  49.108  1.00  0.00     0.064 A 
HETATM   11  C   UNL     1      25.184  48.019  49.780  1.00  0.00     0.095 A 
HETATM   12  C   UNL     1      26.566  47.782  49.713  1.00  0.00     0.039 A 
HETATM   13  C   UNL     1      27.402  48.631  48.989  1.00  0.00     0.003 A 
HETATM   14  C   UNL     1      26.865  49.723  48.325  1.00  0.00     0.002 A 
HETATM   15  C   UNL     1      25.491  49.969  48.383  1.00  0.00     0.032 A 
BRANCH  11  16
HETATM   16  O   UNL     1      24.307  47.179  50.435  1.00  0.00    -0.349 OA
BRANCH  16  17
HETATM   17  C   UNL     1      24.530  45.774  50.312  1.00  0.00     0.171 C 
HETATM   18  C   UNL     1      23.636  45.248  49.202  1.00  0.00     0.034 C 
ENDBRANCH  16  17
ENDBRANCH  11  16
ENDBRANCH   6  10
ENDBRANCH   1   3
BRANCH   1  19
HETATM   19  C   UNL     1      18.388  49.094  49.874  1.00  0.00     0.253 C 
HETATM   20  N   UNL     1      17.544  48.152  49.351  1.00  0.00    -0.325 N 
HETATM   21  H   UNL     1      17.560  47.286  49.884  1.00  0.00     0.169 HD
HETATM   22  O   UNL     1      18.868  48.884  50.993  1.00  0.00    -0.271 OA
BRANCH  20  23
HETATM   23  C   UNL     1      16.860  48.125  48.121  1.00  0.00     0.045 A 
HETATM   24  C   UNL     1      17.241  47.348  47.000  1.00  0.00     0.001 A 
HETATM   25  C   UNL     1      16.379  47.359  45.881  1.00  0.00     0.014 A 
HETATM   26  C   UNL     1      15.220  48.136  45.852  1.00  0.00     0.001 A 
HETATM   27  C   UNL     1      14.912  48.958  46.927  1.00  0.00     0.002 A 
HETATM   28  C   UNL     1      15.739  48.968  48.047  1.00  0.00     0.030 A 
BRANCH  24  29
HETATM   29  C   UNL     1      18.541  46.647  46.876  1.00  0.00    -0.024 A 
HETATM   30  C   UNL     1      18.894  45.596  47.745  1.00  0.00     0.012 A 
HETATM   31  C   UNL     1      20.100  44.904  47.594  1.00  0.00     0.001 A 
HETATM   32  C   UNL     1      20.976  45.247  46.569  1.00  0.00     0.000 A 
HETATM   33  C   UNL     1      20.646  46.278  45.694  1.00  0.00     0.001 A 
HETATM   34  C   UNL     1      19.441  46.967  45.845  1.00  0.00     0.012 A 
ENDBRANCH  24  29
ENDBRANCH  20  23
ENDBRANCH   1  19
TORSDOF 7
ENDMDL
MODEL 10
REMARK VINA RESULT:      -8.5     12.192     15.787
REMARK  7 active torsions:
REMARK  status: ('A' for Active; 'I' for Inactive)
REMARK    1  A    between atoms: C_2  and  O_3 
REMARK    2  A    between atoms: O_3  and  C_4 
REMARK    3  A    between atoms: C_5  and  N_6 
REMARK    4  A    between atoms: N_9  and  C_11 
REMARK    5  A    between atoms: C_11  and  C_12 
REMARK       I    between atoms: C_12  and  N_13 
REMARK    6  A    between atoms: N_13  and  C_14 
REMARK    7  A    between atoms: C_15  and  C_16 
ROOT
HETATM    1  C   UNL     1      28.791  51.765  39.291  1.00  0.00     0.275 C 
HETATM    2  C   UNL     1      28.674  53.134  38.621  1.00  0.00     0.050 C 
ENDROOT
BRANCH   1   3
HETATM    3  N   UNL     1      30.297  51.464  39.528  1.00  0.00    -0.056 N 
HETATM    4  C   UNL     1      31.190  51.558  38.277  1.00  0.00     0.255 C 
HETATM    5  C   UNL     1      32.636  51.124  38.628  1.00  0.00     0.150 C 
HETATM    6  N   UNL     1      33.150  51.935  39.755  1.00  0.00    -0.375 N 
HETATM    7  C   UNL     1      32.319  51.903  40.969  1.00  0.00     0.150 C 
HETATM    8  C   UNL     1      30.883  52.341  40.634  1.00  0.00     0.255 C 
HETATM    9  H   UNL     1      30.358  50.495  39.857  1.00  0.00     0.281 HD
BRANCH   6  10
HETATM   10  C   UNL     1      34.553  51.922  39.913  1.00  0.00     0.064 A 
HETATM   11  C   UNL     1      35.339  53.082  39.666  1.00  0.00     0.095 A 
HETATM   12  C   UNL     1      36.728  53.052  39.872  1.00  0.00     0.039 A 
HETATM   13  C   UNL     1      37.358  51.893  40.321  1.00  0.00     0.003 A 
HETATM   14  C   UNL     1      36.608  50.754  40.570  1.00  0.00     0.002 A 
HETATM   15  C   UNL     1      35.226  50.771  40.370  1.00  0.00     0.032 A 
BRANCH  11  16
HETATM   16  O   UNL     1      34.660  54.218  39.278  1.00  0.00    -0.349 OA
BRANCH  16  17
HETATM   17  C   UNL     1      35.437  55.385  39.004  1.00  0.00     0.171 C 
HETATM   18  C   UNL     1      34.685  56.591  39.538  1.00  0.00     0.034 C 
ENDBRANCH  16  17
ENDBRANCH  11  16
ENDBRANCH   6  10
ENDBRANCH   1   3
BRANCH   1  19
HETATM   19  C   UNL     1      27.953  51.708  40.587  1.00  0.00     0.253 C 
HETATM   20  N   UNL     1      27.370  50.541  41.004  1.00  0.00    -0.325 N 
HETATM   21  H   UNL     1      27.175  50.548  42.002  1.00  0.00     0.169 HD
HETATM   22  O   UNL     1      27.963  52.663  41.371  1.00  0.00    -0.271 OA
BRANCH  20  23
HETATM   23  C   UNL     1      27.213  49.313  40.336  1.00  0.00     0.045 A 
HETATM   24  C   UNL     1      28.145  48.247  40.372  1.00  0.00     0.001 A 
HETATM   25  C   UNL     1      27.778  47.044  39.730  1.00  0.00     0.014 A 
HETATM   26  C   UNL     1      26.569  46.913  39.047  1.00  0.00     0.001 A 
HETATM   27  C   UNL     1      25.709  47.998  38.950  1.00  0.00     0.002 A 
HETATM   28  C   UNL     1      26.040  49.198  39.573  1.00  0.00     0.030 A 
BRANCH  24  29
HETATM   29  C   UNL     1      29.522  48.364  40.911  1.00  0.00    -0.024 A 
HETATM   30  C   UNL     1      29.758  48.760  42.241  1.00  0.00     0.012 A 
HETATM   31  C   UNL     1      31.055  48.820  42.760  1.00  0.00     0.001 A 
HETATM   32  C   UNL     1      32.142  48.482  41.960  1.00  0.00     0.000 A 
HETATM   33  C   UNL     1      31.933  48.081  40.644  1.00  0.00     0.001 A 
HETATM   34  C   UNL     1      30.637  48.019  40.127  1.00  0.00     0.012 A 
ENDBRANCH  24  29
ENDBRANCH  20  23
ENDBRANCH   1  19
TORSDOF 7
ENDMDL
