MODEL 1
REMARK VINA RESULT:      -8.5      0.000      0.000
REMARK  8 active torsions:
REMARK  status: ('A' for Active; 'I' for Inactive)
REMARK    1  A    between atoms: C_9  and  S_10 
REMARK    2  A    between atoms: S_10  and  C_11 
REMARK    3  A    between atoms: C_11  and  C_12 
REMARK       I    between atoms: C_12  and  N_13 
REMARK    4  A    between atoms: N_13  and  C_14 
REMARK    5  A    between atoms: C_15  and  O_16 
REMARK    6  A    between atoms: C_19  and  O_20 
REMARK    7  A    between atoms: N_25  and  C_26 
REMARK    8  A    between atoms: C_33  and  N_34 
ROOT
HETATM    1  C   UNL     1      28.411  45.574  55.932  1.00  0.00     0.073 C 
HETATM    2  C   UNL     1      27.521  46.402  55.077  1.00  0.00     0.068 A 
HETATM    3  N   UNL     1      27.285  47.673  55.426  1.00  0.00    -0.177 NA
HETATM    4  N   UNL     1      26.476  48.137  54.463  1.00  0.00    -0.260 N 
HETATM    5  H   UNL     1      26.157  49.101  54.511  1.00  0.00     0.191 HD
HETATM    6  C   UNL     1      26.188  47.202  53.512  1.00  0.00     0.162 A 
HETATM    7  C   UNL     1      26.844  46.044  53.871  1.00  0.00     0.081 A 
HETATM    8  N   UNL     1      25.417  47.383  52.442  1.00  0.00    -0.204 NA
HETATM    9  C   UNL     1      25.326  46.271  51.680  1.00  0.00     0.177 A 
HETATM   10  N   UNL     1      25.952  45.089  51.948  1.00  0.00    -0.276 N 
HETATM   11  C   UNL     1      26.714  44.901  53.066  1.00  0.00     0.124 A 
ENDROOT
BRANCH   9  12
HETATM   12  S   UNL     1      24.350  46.515  50.189  1.00  0.00    -0.082 SA
BRANCH  12  13
HETATM   13  C   UNL     1      25.154  48.018  49.537  1.00  0.00     0.185 C 
BRANCH  13  14
HETATM   14  C   UNL     1      24.109  48.924  48.919  1.00  0.00     0.232 C 
HETATM   15  N   UNL     1      22.958  49.024  49.681  1.00  0.00    -0.324 N 
HETATM   16  H   UNL     1      23.076  48.991  50.686  1.00  0.00     0.169 HD
HETATM   17  O   UNL     1      24.353  49.527  47.877  1.00  0.00    -0.272 OA
BRANCH  15  18
HETATM   18  C   UNL     1      21.722  49.529  49.212  1.00  0.00     0.068 A 
HETATM   19  C   UNL     1      20.717  48.722  48.640  1.00  0.00     0.097 A 
HETATM   20  C   UNL     1      19.525  49.319  48.197  1.00  0.00     0.075 A 
HETATM   21  C   UNL     1      19.314  50.691  48.355  1.00  0.00     0.070 A 
HETATM   22  C   UNL     1      20.289  51.467  48.981  1.00  0.00     0.039 A 
HETATM   23  C   UNL     1      21.481  50.891  49.417  1.00  0.00     0.035 A 
BRANCH  19  24
HETATM   24  O   UNL     1      20.930  47.366  48.655  1.00  0.00    -0.354 OA
HETATM   25  C   UNL     1      21.384  46.748  47.458  1.00  0.00     0.210 C 
ENDBRANCH  19  24
BRANCH  21  26
HETATM   26  O   UNL     1      18.199  51.384  47.974  1.00  0.00    -0.356 OA
HETATM   27  C   UNL     1      17.642  52.292  48.918  1.00  0.00     0.210 C 
ENDBRANCH  21  26
ENDBRANCH  15  18
ENDBRANCH  13  14
ENDBRANCH  12  13
ENDBRANCH   9  12
BRANCH  10  28
HETATM   28  C   UNL     1      25.861  44.007  51.005  1.00  0.00     0.043 A 
HETATM   29  C   UNL     1      26.899  43.836  50.084  1.00  0.00     0.031 A 
HETATM   30  C   UNL     1      26.852  42.750  49.209  1.00  0.00     0.021 A 
HETATM   31  C   UNL     1      25.779  41.858  49.269  1.00  0.00     0.011 A 
HETATM   32 BR   UNL     1      25.725  40.385  48.086  1.00  0.00    -0.051 Br
HETATM   33  C   UNL     1      24.750  42.034  50.200  1.00  0.00     0.021 A 
HETATM   34  C   UNL     1      24.788  43.115  51.086  1.00  0.00     0.031 A 
ENDBRANCH  10  28
BRANCH  11  35
HETATM   35  N   UNL     1      27.318  43.687  53.379  1.00  0.00    -0.384 N 
HETATM   36  H   UNL     1      26.908  43.053  54.055  1.00  0.00     0.157 HD
HETATM   37  H   UNL     1      28.329  43.623  53.317  1.00  0.00     0.157 HD
ENDBRANCH  11  35
TORSDOF 8
ENDMDL
MODEL 2
REMARK VINA RESULT:      -8.4      2.009      2.846
REMARK  8 active torsions:
REMARK  status: ('A' for Active; 'I' for Inactive)
REMARK    1  A    between atoms: C_9  and  S_10 
REMARK    2  A    between atoms: S_10  and  C_11 
REMARK    3  A    between atoms: C_11  and  C_12 
REMARK       I    between atoms: C_12  and  N_13 
REMARK    4  A    between atoms: N_13  and  C_14 
REMARK    5  A    between atoms: C_15  and  O_16 
REMARK    6  A    between atoms: C_19  and  O_20 
REMARK    7  A    between atoms: N_25  and  C_26 
REMARK    8  A    between atoms: C_33  and  N_34 
ROOT
HETATM    1  C   UNL     1      30.641  43.267  55.127  1.00  0.00     0.073 C 
HETATM    2  C   UNL     1      29.447  44.041  54.699  1.00  0.00     0.068 A 
HETATM    3  N   UNL     1      29.157  45.187  55.326  1.00  0.00    -0.177 NA
HETATM    4  N   UNL     1      28.056  45.636  54.706  1.00  0.00    -0.260 N 
HETATM    5  H   UNL     1      27.642  46.512  55.012  1.00  0.00     0.191 HD
HETATM    6  C   UNL     1      27.635  44.811  53.704  1.00  0.00     0.162 A 
HETATM    7  C   UNL     1      28.509  43.746  53.662  1.00  0.00     0.081 A 
HETATM    8  N   UNL     1      26.577  45.005  52.921  1.00  0.00    -0.204 NA
HETATM    9  C   UNL     1      26.418  44.016  52.015  1.00  0.00     0.177 A 
HETATM   10  N   UNL     1      27.242  42.936  51.889  1.00  0.00    -0.276 N 
HETATM   11  C   UNL     1      28.306  42.725  52.719  1.00  0.00     0.124 A 
ENDROOT
BRANCH   9  12
HETATM   12  S   UNL     1      25.038  44.296  50.895  1.00  0.00    -0.082 SA
BRANCH  12  13
HETATM   13  C   UNL     1      25.637  45.791  50.037  1.00  0.00     0.185 C 
BRANCH  13  14
HETATM   14  C   UNL     1      24.691  46.943  50.306  1.00  0.00     0.232 C 
HETATM   15  N   UNL     1      23.834  47.201  49.251  1.00  0.00    -0.324 N 
HETATM   16  H   UNL     1      23.526  46.401  48.713  1.00  0.00     0.169 HD
HETATM   17  O   UNL     1      24.697  47.504  51.400  1.00  0.00    -0.272 OA
BRANCH  15  18
HETATM   18  C   UNL     1      23.082  48.388  49.095  1.00  0.00     0.068 A 
HETATM   19  C   UNL     1      23.655  49.677  49.064  1.00  0.00     0.097 A 
HETATM   20  C   UNL     1      22.821  50.797  48.912  1.00  0.00     0.075 A 
HETATM   21  C   UNL     1      21.442  50.642  48.752  1.00  0.00     0.070 A 
HETATM   22  C   UNL     1      20.896  49.360  48.719  1.00  0.00     0.039 A 
HETATM   23  C   UNL     1      21.708  48.238  48.878  1.00  0.00     0.035 A 
BRANCH  19  24
HETATM   24  O   UNL     1      25.026  49.743  49.075  1.00  0.00    -0.354 OA
HETATM   25  C   UNL     1      25.694  49.956  47.837  1.00  0.00     0.210 C 
ENDBRANCH  19  24
BRANCH  21  26
HETATM   26  O   UNL     1      20.531  51.649  48.587  1.00  0.00    -0.356 OA
HETATM   27  C   UNL     1      19.506  51.765  49.567  1.00  0.00     0.210 C 
ENDBRANCH  21  26
ENDBRANCH  15  18
ENDBRANCH  13  14
ENDBRANCH  12  13
ENDBRANCH   9  12
BRANCH  10  28
HETATM   28  C   UNL     1      27.029  42.000  50.817  1.00  0.00     0.043 A 
HETATM   29  C   UNL     1      27.565  42.295  49.559  1.00  0.00     0.031 A 
HETATM   30  C   UNL     1      27.420  41.363  48.530  1.00  0.00     0.021 A 
HETATM   31  C   UNL     1      26.751  40.161  48.773  1.00  0.00     0.011 A 
HETATM   32 BR   UNL     1      26.564  38.901  47.377  1.00  0.00    -0.051 Br
HETATM   33  C   UNL     1      26.226  39.875  50.037  1.00  0.00     0.021 A 
HETATM   34  C   UNL     1      26.369  40.796  51.078  1.00  0.00     0.031 A 
ENDBRANCH  10  28
BRANCH  11  35
HETATM   35  N   UNL     1      29.125  41.604  52.636  1.00  0.00    -0.384 N 
HETATM   36  H   UNL     1      29.430  41.110  53.467  1.00  0.00     0.157 HD
HETATM   37  H   UNL     1      29.776  41.540  51.859  1.00  0.00     0.157 HD
ENDBRANCH  11  35
TORSDOF 8
ENDMDL
MODEL 3
REMARK VINA RESULT:      -8.2      2.317      3.467
REMARK  8 active torsions:
REMARK  status: ('A' for Active; 'I' for Inactive)
REMARK    1  A    between atoms: C_9  and  S_10 
REMARK    2  A    between atoms: S_10  and  C_11 
REMARK    3  A    between atoms: C_11  and  C_12 
REMARK       I    between atoms: C_12  and  N_13 
REMARK    4  A    between atoms: N_13  and  C_14 
REMARK    5  A    between atoms: C_15  and  O_16 
REMARK    6  A    between atoms: C_19  and  O_20 
REMARK    7  A    between atoms: N_25  and  C_26 
REMARK    8  A    between atoms: C_33  and  N_34 
ROOT
HETATM    1  C   UNL     1      30.830  43.324  55.756  1.00  0.00     0.073 C 
HETATM    2  C   UNL     1      29.924  44.494  55.615  1.00  0.00     0.068 A 
HETATM    3  N   UNL     1      30.092  45.547  56.423  1.00  0.00    -0.177 NA
HETATM    4  N   UNL     1      29.147  46.417  56.038  1.00  0.00    -0.260 N 
HETATM    5  H   UNL     1      29.079  47.312  56.515  1.00  0.00     0.191 HD
HETATM    6  C   UNL     1      28.381  45.950  55.010  1.00  0.00     0.162 A 
HETATM    7  C   UNL     1      28.845  44.690  54.699  1.00  0.00     0.081 A 
HETATM    8  N   UNL     1      27.376  46.597  54.425  1.00  0.00    -0.204 NA
HETATM    9  C   UNL     1      26.811  45.878  53.430  1.00  0.00     0.177 A 
HETATM   10  N   UNL     1      27.214  44.634  53.043  1.00  0.00    -0.276 N 
HETATM   11  C   UNL     1      28.224  43.962  53.671  1.00  0.00     0.124 A 
ENDROOT
BRANCH   9  12
HETATM   12  S   UNL     1      25.500  46.764  52.574  1.00  0.00    -0.082 SA
BRANCH  12  13
HETATM   13  C   UNL     1      26.475  47.552  51.249  1.00  0.00     0.185 C 
BRANCH  13  14
HETATM   14  C   UNL     1      25.645  47.626  49.984  1.00  0.00     0.232 C 
HETATM   15  N   UNL     1      24.293  47.435  50.210  1.00  0.00    -0.324 N 
HETATM   16  H   UNL     1      23.926  47.790  51.084  1.00  0.00     0.169 HD
HETATM   17  O   UNL     1      26.178  47.896  48.910  1.00  0.00    -0.272 OA
BRANCH  15  18
HETATM   18  C   UNL     1      23.342  47.139  49.205  1.00  0.00     0.068 A 
HETATM   19  C   UNL     1      22.585  48.121  48.533  1.00  0.00     0.097 A 
HETATM   20  C   UNL     1      21.659  47.725  47.554  1.00  0.00     0.075 A 
HETATM   21  C   UNL     1      21.513  46.378  47.216  1.00  0.00     0.070 A 
HETATM   22  C   UNL     1      22.313  45.423  47.842  1.00  0.00     0.039 A 
HETATM   23  C   UNL     1      23.230  45.798  48.822  1.00  0.00     0.035 A 
BRANCH  19  24
HETATM   24  O   UNL     1      22.890  49.431  48.809  1.00  0.00    -0.354 OA
HETATM   25  C   UNL     1      23.695  50.139  47.876  1.00  0.00     0.210 C 
ENDBRANCH  19  24
BRANCH  21  26
HETATM   26  O   UNL     1      20.656  45.870  46.278  1.00  0.00    -0.356 OA
HETATM   27  C   UNL     1      21.063  45.941  44.917  1.00  0.00     0.210 C 
ENDBRANCH  21  26
ENDBRANCH  15  18
ENDBRANCH  13  14
ENDBRANCH  12  13
ENDBRANCH   9  12
BRANCH  10  28
HETATM   28  C   UNL     1      26.600  44.011  51.900  1.00  0.00     0.043 A 
HETATM   29  C   UNL     1      25.346  43.414  52.061  1.00  0.00     0.031 A 
HETATM   30  C   UNL     1      24.713  42.865  50.945  1.00  0.00     0.021 A 
HETATM   31  C   UNL     1      25.336  42.924  49.696  1.00  0.00     0.011 A 
HETATM   32 BR   UNL     1      24.470  42.186  48.187  1.00  0.00    -0.051 Br
HETATM   33  C   UNL     1      26.587  43.531  49.546  1.00  0.00     0.021 A 
HETATM   34  C   UNL     1      27.230  44.089  50.655  1.00  0.00     0.031 A 
ENDBRANCH  10  28
BRANCH  11  35
HETATM   35  N   UNL     1      28.613  42.673  53.320  1.00  0.00    -0.384 N 
HETATM   36  H   UNL     1      28.087  41.862  53.626  1.00  0.00     0.157 HD
HETATM   37  H   UNL     1      29.601  42.491  53.177  1.00  0.00     0.157 HD
ENDBRANCH  11  35
TORSDOF 8
ENDMDL
MODEL 4
REMARK VINA RESULT:      -7.8      1.270      2.169
REMARK  8 active torsions:
REMARK  status: ('A' for Active; 'I' for Inactive)
REMARK    1  A    between atoms: C_9  and  S_10 
REMARK    2  A    between atoms: S_10  and  C_11 
REMARK    3  A    between atoms: C_11  and  C_12 
REMARK       I    between atoms: C_12  and  N_13 
REMARK    4  A    between atoms: N_13  and  C_14 
REMARK    5  A    between atoms: C_15  and  O_16 
REMARK    6  A    between atoms: C_19  and  O_20 
REMARK    7  A    between atoms: N_25  and  C_26 
REMARK    8  A    between atoms: C_33  and  N_34 
ROOT
HETATM    1  C   UNL     1      28.401  45.513  55.777  1.00  0.00     0.073 C 
HETATM    2  C   UNL     1      27.501  46.293  54.887  1.00  0.00     0.068 A 
HETATM    3  N   UNL     1      27.246  47.573  55.181  1.00  0.00    -0.177 NA
HETATM    4  N   UNL     1      26.432  47.985  54.199  1.00  0.00    -0.260 N 
HETATM    5  H   UNL     1      26.100  48.945  54.206  1.00  0.00     0.191 HD
HETATM    6  C   UNL     1      26.161  47.007  53.287  1.00  0.00     0.162 A 
HETATM    7  C   UNL     1      26.832  45.875  53.696  1.00  0.00     0.081 A 
HETATM    8  N   UNL     1      25.390  47.132  52.209  1.00  0.00    -0.204 NA
HETATM    9  C   UNL     1      25.316  45.989  51.493  1.00  0.00     0.177 A 
HETATM   10  N   UNL     1      25.959  44.828  51.812  1.00  0.00    -0.276 N 
HETATM   11  C   UNL     1      26.721  44.697  52.938  1.00  0.00     0.124 A 
ENDROOT
BRANCH   9  12
HETATM   12  S   UNL     1      24.341  46.156  49.991  1.00  0.00    -0.082 SA
BRANCH  12  13
HETATM   13  C   UNL     1      24.496  47.954  49.723  1.00  0.00     0.185 C 
BRANCH  13  14
HETATM   14  C   UNL     1      23.300  48.454  48.939  1.00  0.00     0.232 C 
HETATM   15  N   UNL     1      22.094  48.212  49.573  1.00  0.00    -0.324 N 
HETATM   16  H   UNL     1      22.098  48.257  50.584  1.00  0.00     0.169 HD
HETATM   17  O   UNL     1      23.464  49.062  47.884  1.00  0.00    -0.272 OA
BRANCH  15  18
HETATM   18  C   UNL     1      20.827  48.276  48.948  1.00  0.00     0.068 A 
HETATM   19  C   UNL     1      20.034  49.443  48.912  1.00  0.00     0.097 A 
HETATM   20  C   UNL     1      18.784  49.405  48.272  1.00  0.00     0.075 A 
HETATM   21  C   UNL     1      18.343  48.240  47.640  1.00  0.00     0.070 A 
HETATM   22  C   UNL     1      19.164  47.113  47.627  1.00  0.00     0.039 A 
HETATM   23  C   UNL     1      20.403  47.131  48.266  1.00  0.00     0.035 A 
BRANCH  19  24
HETATM   24  O   UNL     1      20.596  50.588  49.420  1.00  0.00    -0.354 OA
HETATM   25  C   UNL     1      20.404  51.800  48.703  1.00  0.00     0.210 C 
ENDBRANCH  19  24
BRANCH  21  26
HETATM   26  O   UNL     1      17.156  48.081  46.979  1.00  0.00    -0.356 OA
HETATM   27  C   UNL     1      15.995  47.860  47.771  1.00  0.00     0.210 C 
ENDBRANCH  21  26
ENDBRANCH  15  18
ENDBRANCH  13  14
ENDBRANCH  12  13
ENDBRANCH   9  12
BRANCH  10  28
HETATM   28  C   UNL     1      25.886  43.706  50.915  1.00  0.00     0.043 A 
HETATM   29  C   UNL     1      24.757  42.881  50.969  1.00  0.00     0.031 A 
HETATM   30  C   UNL     1      24.647  41.830  50.059  1.00  0.00     0.021 A 
HETATM   31  C   UNL     1      25.655  41.622  49.115  1.00  0.00     0.011 A 
HETATM   32 BR   UNL     1      25.495  40.199  47.880  1.00  0.00    -0.051 Br
HETATM   33  C   UNL     1      26.775  42.457  49.065  1.00  0.00     0.021 A 
HETATM   34  C   UNL     1      26.896  43.517  49.968  1.00  0.00     0.031 A 
ENDBRANCH  10  28
BRANCH  11  35
HETATM   35  N   UNL     1      27.341  43.507  53.302  1.00  0.00    -0.384 N 
HETATM   36  H   UNL     1      28.258  43.500  53.736  1.00  0.00     0.157 HD
HETATM   37  H   UNL     1      27.138  42.673  52.760  1.00  0.00     0.157 HD
ENDBRANCH  11  35
TORSDOF 8
ENDMDL
MODEL 5
REMARK VINA RESULT:      -7.8      2.475      3.598
REMARK  8 active torsions:
REMARK  status: ('A' for Active; 'I' for Inactive)
REMARK    1  A    between atoms: C_9  and  S_10 
REMARK    2  A    between atoms: S_10  and  C_11 
REMARK    3  A    between atoms: C_11  and  C_12 
REMARK       I    between atoms: C_12  and  N_13 
REMARK    4  A    between atoms: N_13  and  C_14 
REMARK    5  A    between atoms: C_15  and  O_16 
REMARK    6  A    between atoms: C_19  and  O_20 
REMARK    7  A    between atoms: N_25  and  C_26 
REMARK    8  A    between atoms: C_33  and  N_34 
ROOT
HETATM    1  C   UNL     1      30.080  43.017  54.825  1.00  0.00     0.073 C 
HETATM    2  C   UNL     1      28.991  43.656  54.041  1.00  0.00     0.068 A 
HETATM    3  N   UNL     1      28.546  44.863  54.411  1.00  0.00    -0.177 NA
HETATM    4  N   UNL     1      27.597  45.158  53.512  1.00  0.00    -0.260 N 
HETATM    5  H   UNL     1      27.107  46.045  53.587  1.00  0.00     0.191 HD
HETATM    6  C   UNL     1      27.422  44.176  52.581  1.00  0.00     0.162 A 
HETATM    7  C   UNL     1      28.308  43.165  52.886  1.00  0.00     0.081 A 
HETATM    8  N   UNL     1      26.556  44.199  51.570  1.00  0.00    -0.204 NA
HETATM    9  C   UNL     1      26.620  43.082  50.812  1.00  0.00     0.177 A 
HETATM   10  N   UNL     1      27.476  42.042  51.029  1.00  0.00    -0.276 N 
HETATM   11  C   UNL     1      28.338  42.010  52.088  1.00  0.00     0.124 A 
ENDROOT
BRANCH   9  12
HETATM   12  S   UNL     1      25.511  43.124  49.396  1.00  0.00    -0.082 SA
BRANCH  12  13
HETATM   13  C   UNL     1      24.118  44.052  50.124  1.00  0.00     0.185 C 
BRANCH  13  14
HETATM   14  C   UNL     1      23.683  45.145  49.169  1.00  0.00     0.232 C 
HETATM   15  N   UNL     1      23.772  46.412  49.717  1.00  0.00    -0.324 N 
HETATM   16  H   UNL     1      24.532  46.573  50.365  1.00  0.00     0.169 HD
HETATM   17  O   UNL     1      23.359  44.864  48.017  1.00  0.00    -0.272 OA
BRANCH  15  18
HETATM   18  C   UNL     1      23.147  47.565  49.185  1.00  0.00     0.068 A 
HETATM   19  C   UNL     1      23.778  48.824  49.099  1.00  0.00     0.097 A 
HETATM   20  C   UNL     1      23.070  49.912  48.561  1.00  0.00     0.075 A 
HETATM   21  C   UNL     1      21.770  49.747  48.077  1.00  0.00     0.070 A 
HETATM   22  C   UNL     1      21.182  48.483  48.109  1.00  0.00     0.039 A 
HETATM   23  C   UNL     1      21.867  47.395  48.649  1.00  0.00     0.035 A 
BRANCH  19  24
HETATM   24  O   UNL     1      25.103  48.876  49.453  1.00  0.00    -0.354 OA
HETATM   25  C   UNL     1      26.012  49.486  48.545  1.00  0.00     0.210 C 
ENDBRANCH  19  24
BRANCH  21  26
HETATM   26  O   UNL     1      20.985  50.722  47.526  1.00  0.00    -0.356 OA
HETATM   27  C   UNL     1      19.695  50.337  47.067  1.00  0.00     0.210 C 
ENDBRANCH  21  26
ENDBRANCH  15  18
ENDBRANCH  13  14
ENDBRANCH  12  13
ENDBRANCH   9  12
BRANCH  10  28
HETATM   28  C   UNL     1      27.522  40.953  50.090  1.00  0.00     0.043 A 
HETATM   29  C   UNL     1      28.450  41.011  49.046  1.00  0.00     0.031 A 
HETATM   30  C   UNL     1      28.547  39.930  48.169  1.00  0.00     0.021 A 
HETATM   31  C   UNL     1      27.726  38.815  48.350  1.00  0.00     0.011 A 
HETATM   32 BR   UNL     1      27.868  37.351  47.163  1.00  0.00    -0.051 Br
HETATM   33  C   UNL     1      26.806  38.764  49.403  1.00  0.00     0.021 A 
HETATM   34  C   UNL     1      26.702  39.838  50.291  1.00  0.00     0.031 A 
ENDBRANCH  10  28
BRANCH  11  35
HETATM   35  N   UNL     1      29.180  40.935  52.350  1.00  0.00    -0.384 N 
HETATM   36  H   UNL     1      29.455  40.289  51.618  1.00  0.00     0.157 HD
HETATM   37  H   UNL     1      29.155  40.519  53.276  1.00  0.00     0.157 HD
ENDBRANCH  11  35
TORSDOF 8
ENDMDL
MODEL 6
REMARK VINA RESULT:      -7.7      4.510      9.297
REMARK  8 active torsions:
REMARK  status: ('A' for Active; 'I' for Inactive)
REMARK    1  A    between atoms: C_9  and  S_10 
REMARK    2  A    between atoms: S_10  and  C_11 
REMARK    3  A    between atoms: C_11  and  C_12 
REMARK       I    between atoms: C_12  and  N_13 
REMARK    4  A    between atoms: N_13  and  C_14 
REMARK    5  A    between atoms: C_15  and  O_16 
REMARK    6  A    between atoms: C_19  and  O_20 
REMARK    7  A    between atoms: N_25  and  C_26 
REMARK    8  A    between atoms: C_33  and  N_34 
ROOT
HETATM    1  C   UNL     1      24.257  49.773  48.716  1.00  0.00     0.073 C 
HETATM    2  C   UNL     1      23.629  48.429  48.622  1.00  0.00     0.068 A 
HETATM    3  N   UNL     1      22.552  48.268  47.843  1.00  0.00    -0.177 NA
HETATM    4  N   UNL     1      22.245  46.969  47.964  1.00  0.00    -0.260 N 
HETATM    5  H   UNL     1      21.448  46.603  47.451  1.00  0.00     0.191 HD
HETATM    6  C   UNL     1      23.090  46.297  48.797  1.00  0.00     0.162 A 
HETATM    7  C   UNL     1      24.013  47.210  49.261  1.00  0.00     0.081 A 
HETATM    8  N   UNL     1      23.029  45.002  49.100  1.00  0.00    -0.204 NA
HETATM    9  C   UNL     1      24.009  44.624  49.949  1.00  0.00     0.177 A 
HETATM   10  N   UNL     1      24.973  45.454  50.444  1.00  0.00    -0.276 N 
HETATM   11  C   UNL     1      25.010  46.789  50.156  1.00  0.00     0.124 A 
ENDROOT
BRANCH   9  12
HETATM   12  S   UNL     1      23.990  42.863  50.313  1.00  0.00    -0.082 SA
BRANCH  12  13
HETATM   13  C   UNL     1      23.932  42.199  48.614  1.00  0.00     0.185 C 
BRANCH  13  14
HETATM   14  C   UNL     1      25.142  41.320  48.371  1.00  0.00     0.232 C 
HETATM   15  N   UNL     1      25.304  40.340  49.335  1.00  0.00    -0.324 N 
HETATM   16  H   UNL     1      24.458  39.948  49.728  1.00  0.00     0.169 HD
HETATM   17  O   UNL     1      25.827  41.479  47.364  1.00  0.00    -0.272 OA
BRANCH  15  18
HETATM   18  C   UNL     1      26.491  39.600  49.539  1.00  0.00     0.068 A 
HETATM   19  C   UNL     1      26.800  38.412  48.842  1.00  0.00     0.097 A 
HETATM   20  C   UNL     1      28.003  37.744  49.122  1.00  0.00     0.075 A 
HETATM   21  C   UNL     1      28.909  38.265  50.049  1.00  0.00     0.070 A 
HETATM   22  C   UNL     1      28.621  39.473  50.683  1.00  0.00     0.039 A 
HETATM   23  C   UNL     1      27.427  40.144  50.425  1.00  0.00     0.035 A 
BRANCH  19  24
HETATM   24  O   UNL     1      25.937  38.043  47.841  1.00  0.00    -0.354 OA
HETATM   25  C   UNL     1      26.453  37.941  46.520  1.00  0.00     0.210 C 
ENDBRANCH  19  24
BRANCH  21  26
HETATM   26  O   UNL     1      30.111  37.715  50.400  1.00  0.00    -0.356 OA
HETATM   27  C   UNL     1      30.130  36.867  51.542  1.00  0.00     0.210 C 
ENDBRANCH  21  26
ENDBRANCH  15  18
ENDBRANCH  13  14
ENDBRANCH  12  13
ENDBRANCH   9  12
BRANCH  10  28
HETATM   28  C   UNL     1      26.026  44.912  51.260  1.00  0.00     0.043 A 
HETATM   29  C   UNL     1      25.886  44.963  52.651  1.00  0.00     0.031 A 
HETATM   30  C   UNL     1      26.872  44.381  53.449  1.00  0.00     0.021 A 
HETATM   31  C   UNL     1      27.971  43.760  52.851  1.00  0.00     0.011 A 
HETATM   32 BR   UNL     1      29.299  42.968  53.938  1.00  0.00    -0.051 Br
HETATM   33  C   UNL     1      28.097  43.709  51.459  1.00  0.00     0.021 A 
HETATM   34  C   UNL     1      27.114  44.283  50.648  1.00  0.00     0.031 A 
ENDBRANCH  10  28
BRANCH  11  35
HETATM   35  N   UNL     1      25.955  47.656  50.693  1.00  0.00    -0.384 N 
HETATM   36  H   UNL     1      26.825  47.853  50.210  1.00  0.00     0.157 HD
HETATM   37  H   UNL     1      26.021  47.731  51.703  1.00  0.00     0.157 HD
ENDBRANCH  11  35
TORSDOF 8
ENDMDL
MODEL 7
REMARK VINA RESULT:      -7.6      3.533      8.214
REMARK  8 active torsions:
REMARK  status: ('A' for Active; 'I' for Inactive)
REMARK    1  A    between atoms: C_9  and  S_10 
REMARK    2  A    between atoms: S_10  and  C_11 
REMARK    3  A    between atoms: C_11  and  C_12 
REMARK       I    between atoms: C_12  and  N_13 
REMARK    4  A    between atoms: N_13  and  C_14 
REMARK    5  A    between atoms: C_15  and  O_16 
REMARK    6  A    between atoms: C_19  and  O_20 
REMARK    7  A    between atoms: N_25  and  C_26 
REMARK    8  A    between atoms: C_33  and  N_34 
ROOT
HETATM    1  C   UNL     1      20.097  51.917  48.336  1.00  0.00     0.073 C 
HETATM    2  C   UNL     1      20.880  50.740  48.795  1.00  0.00     0.068 A 
HETATM    3  N   UNL     1      21.829  50.912  49.724  1.00  0.00    -0.177 NA
HETATM    4  N   UNL     1      22.326  49.684  49.924  1.00  0.00    -0.260 N 
HETATM    5  H   UNL     1      23.072  49.560  50.602  1.00  0.00     0.191 HD
HETATM    6  C   UNL     1      21.725  48.733  49.151  1.00  0.00     0.162 A 
HETATM    7  C   UNL     1      20.773  49.375  48.388  1.00  0.00     0.081 A 
HETATM    8  N   UNL     1      22.010  47.433  49.143  1.00  0.00    -0.204 NA
HETATM    9  C   UNL     1      21.239  46.742  48.275  1.00  0.00     0.177 A 
HETATM   10  N   UNL     1      20.264  47.290  47.494  1.00  0.00    -0.276 N 
HETATM   11  C   UNL     1      19.999  48.630  47.482  1.00  0.00     0.124 A 
ENDROOT
BRANCH   9  12
HETATM   12  S   UNL     1      21.556  44.972  48.302  1.00  0.00    -0.082 SA
BRANCH  12  13
HETATM   13  C   UNL     1      23.291  44.961  47.735  1.00  0.00     0.185 C 
BRANCH  13  14
HETATM   14  C   UNL     1      24.209  44.735  48.919  1.00  0.00     0.232 C 
HETATM   15  N   UNL     1      23.817  45.428  50.050  1.00  0.00    -0.324 N 
HETATM   16  H   UNL     1      22.821  45.541  50.190  1.00  0.00     0.169 HD
HETATM   17  O   UNL     1      25.150  43.951  48.828  1.00  0.00    -0.272 OA
BRANCH  15  18
HETATM   18  C   UNL     1      24.637  45.657  51.180  1.00  0.00     0.068 A 
HETATM   19  C   UNL     1      25.266  46.892  51.450  1.00  0.00     0.097 A 
HETATM   20  C   UNL     1      26.068  47.018  52.596  1.00  0.00     0.075 A 
HETATM   21  C   UNL     1      26.215  45.950  53.484  1.00  0.00     0.070 A 
HETATM   22  C   UNL     1      25.537  44.756  53.239  1.00  0.00     0.039 A 
HETATM   23  C   UNL     1      24.744  44.611  52.102  1.00  0.00     0.035 A 
BRANCH  19  24
HETATM   24  O   UNL     1      24.955  47.938  50.617  1.00  0.00    -0.354 OA
HETATM   25  C   UNL     1      25.872  48.260  49.580  1.00  0.00     0.210 C 
ENDBRANCH  19  24
BRANCH  21  26
HETATM   26  O   UNL     1      26.958  45.952  54.632  1.00  0.00    -0.356 OA
HETATM   27  C   UNL     1      27.490  47.200  55.061  1.00  0.00     0.210 C 
ENDBRANCH  21  26
ENDBRANCH  15  18
ENDBRANCH  13  14
ENDBRANCH  12  13
ENDBRANCH   9  12
BRANCH  10  28
HETATM   28  C   UNL     1      19.438  46.434  46.683  1.00  0.00     0.043 A 
HETATM   29  C   UNL     1      19.836  46.175  45.368  1.00  0.00     0.031 A 
HETATM   30  C   UNL     1      19.077  45.294  44.596  1.00  0.00     0.021 A 
HETATM   31  C   UNL     1      17.945  44.689  45.146  1.00  0.00     0.011 A 
HETATM   32 BR   UNL     1      16.927  43.492  44.096  1.00  0.00    -0.051 Br
HETATM   33  C   UNL     1      17.561  44.950  46.465  1.00  0.00     0.021 A 
HETATM   34  C   UNL     1      18.315  45.826  47.251  1.00  0.00     0.031 A 
ENDBRANCH  10  28
BRANCH  11  35
HETATM   35  N   UNL     1      19.043  49.209  46.655  1.00  0.00    -0.384 N 
HETATM   36  H   UNL     1      18.061  49.217  46.909  1.00  0.00     0.157 HD
HETATM   37  H   UNL     1      19.208  49.205  45.653  1.00  0.00     0.157 HD
ENDBRANCH  11  35
TORSDOF 8
ENDMDL
MODEL 8
REMARK VINA RESULT:      -7.6      2.625      4.014
REMARK  8 active torsions:
REMARK  status: ('A' for Active; 'I' for Inactive)
REMARK    1  A    between atoms: C_9  and  S_10 
REMARK    2  A    between atoms: S_10  and  C_11 
REMARK    3  A    between atoms: C_11  and  C_12 
REMARK       I    between atoms: C_12  and  N_13 
REMARK    4  A    between atoms: N_13  and  C_14 
REMARK    5  A    between atoms: C_15  and  O_16 
REMARK    6  A    between atoms: C_19  and  O_20 
REMARK    7  A    between atoms: N_25  and  C_26 
REMARK    8  A    between atoms: C_33  and  N_34 
ROOT
HETATM    1  C   UNL     1      29.885  42.966  54.515  1.00  0.00     0.073 C 
HETATM    2  C   UNL     1      28.792  43.545  53.691  1.00  0.00     0.068 A 
HETATM    3  N   UNL     1      28.301  44.747  54.016  1.00  0.00    -0.177 NA
HETATM    4  N   UNL     1      27.361  44.984  53.091  1.00  0.00    -0.260 N 
HETATM    5  H   UNL     1      26.841  45.857  53.129  1.00  0.00     0.191 HD
HETATM    6  C   UNL     1      27.236  43.970  52.186  1.00  0.00     0.162 A 
HETATM    7  C   UNL     1      28.148  42.998  52.539  1.00  0.00     0.081 A 
HETATM    8  N   UNL     1      26.390  43.934  51.160  1.00  0.00    -0.204 NA
HETATM    9  C   UNL     1      26.505  42.798  50.437  1.00  0.00     0.177 A 
HETATM   10  N   UNL     1      27.388  41.793  50.702  1.00  0.00    -0.276 N 
HETATM   11  C   UNL     1      28.230  41.821  51.777  1.00  0.00     0.124 A 
ENDROOT
BRANCH   9  12
HETATM   12  S   UNL     1      25.423  42.762  49.000  1.00  0.00    -0.082 SA
BRANCH  12  13
HETATM   13  C   UNL     1      23.820  42.488  49.828  1.00  0.00     0.185 C 
BRANCH  13  14
HETATM   14  C   UNL     1      23.035  43.784  49.853  1.00  0.00     0.232 C 
HETATM   15  N   UNL     1      23.475  44.703  48.917  1.00  0.00    -0.324 N 
HETATM   16  H   UNL     1      23.816  44.329  48.041  1.00  0.00     0.169 HD
HETATM   17  O   UNL     1      22.076  43.910  50.611  1.00  0.00    -0.272 OA
BRANCH  15  18
HETATM   18  C   UNL     1      23.151  46.080  48.926  1.00  0.00     0.068 A 
HETATM   19  C   UNL     1      21.965  46.606  48.371  1.00  0.00     0.097 A 
HETATM   20  C   UNL     1      21.737  47.991  48.423  1.00  0.00     0.075 A 
HETATM   21  C   UNL     1      22.651  48.840  49.052  1.00  0.00     0.070 A 
HETATM   22  C   UNL     1      23.787  48.300  49.653  1.00  0.00     0.039 A 
HETATM   23  C   UNL     1      24.033  46.929  49.602  1.00  0.00     0.035 A 
BRANCH  19  24
HETATM   24  O   UNL     1      21.045  45.699  47.906  1.00  0.00    -0.354 OA
HETATM   25  C   UNL     1      19.667  46.027  48.022  1.00  0.00     0.210 C 
ENDBRANCH  19  24
BRANCH  21  26
HETATM   26  O   UNL     1      22.538  50.197  49.175  1.00  0.00    -0.356 OA
HETATM   27  C   UNL     1      21.391  50.696  49.854  1.00  0.00     0.210 C 
ENDBRANCH  21  26
ENDBRANCH  15  18
ENDBRANCH  13  14
ENDBRANCH  12  13
ENDBRANCH   9  12
BRANCH  10  28
HETATM   28  C   UNL     1      27.488  40.678  49.798  1.00  0.00     0.043 A 
HETATM   29  C   UNL     1      28.423  40.743  48.760  1.00  0.00     0.031 A 
HETATM   30  C   UNL     1      28.573  39.640  47.918  1.00  0.00     0.021 A 
HETATM   31  C   UNL     1      27.795  38.498  48.127  1.00  0.00     0.011 A 
HETATM   32 BR   UNL     1      28.009  37.006  46.987  1.00  0.00    -0.051 Br
HETATM   33  C   UNL     1      26.869  38.443  49.173  1.00  0.00     0.021 A 
HETATM   34  C   UNL     1      26.712  39.538  50.026  1.00  0.00     0.031 A 
ENDBRANCH  10  28
BRANCH  11  35
HETATM   35  N   UNL     1      29.101  40.782  52.088  1.00  0.00    -0.384 N 
HETATM   36  H   UNL     1      30.102  40.875  51.955  1.00  0.00     0.157 HD
HETATM   37  H   UNL     1      28.762  39.829  52.003  1.00  0.00     0.157 HD
ENDBRANCH  11  35
TORSDOF 8
ENDMDL
MODEL 9
REMARK VINA RESULT:      -7.6      3.556      8.613
REMARK  8 active torsions:
REMARK  status: ('A' for Active; 'I' for Inactive)
REMARK    1  A    between atoms: C_9  and  S_10 
REMARK    2  A    between atoms: S_10  and  C_11 
REMARK    3  A    between atoms: C_11  and  C_12 
REMARK       I    between atoms: C_12  and  N_13 
REMARK    4  A    between atoms: N_13  and  C_14 
REMARK    5  A    between atoms: C_15  and  O_16 
REMARK    6  A    between atoms: C_19  and  O_20 
REMARK    7  A    between atoms: N_25  and  C_26 
REMARK    8  A    between atoms: C_33  and  N_34 
ROOT
HETATM    1  C   UNL     1      19.078  49.703  48.491  1.00  0.00     0.073 C 
HETATM    2  C   UNL     1      20.481  49.711  48.982  1.00  0.00     0.068 A 
HETATM    3  N   UNL     1      20.974  50.833  49.520  1.00  0.00    -0.177 NA
HETATM    4  N   UNL     1      22.228  50.512  49.868  1.00  0.00    -0.260 N 
HETATM    5  H   UNL     1      22.812  51.217  50.309  1.00  0.00     0.191 HD
HETATM    6  C   UNL     1      22.551  49.221  49.567  1.00  0.00     0.162 A 
HETATM    7  C   UNL     1      21.441  48.653  48.977  1.00  0.00     0.081 A 
HETATM    8  N   UNL     1      23.720  48.629  49.801  1.00  0.00    -0.204 NA
HETATM    9  C   UNL     1      23.735  47.340  49.396  1.00  0.00     0.177 A 
HETATM   10  N   UNL     1      22.681  46.693  48.821  1.00  0.00    -0.276 N 
HETATM   11  C   UNL     1      21.495  47.316  48.552  1.00  0.00     0.124 A 
ENDROOT
BRANCH   9  12
HETATM   12  S   UNL     1      25.280  46.499  49.772  1.00  0.00    -0.082 SA
BRANCH  12  13
HETATM   13  C   UNL     1      25.015  46.146  51.542  1.00  0.00     0.185 C 
BRANCH  13  14
HETATM   14  C   UNL     1      25.434  44.722  51.843  1.00  0.00     0.232 C 
HETATM   15  N   UNL     1      26.729  44.441  51.443  1.00  0.00    -0.324 N 
HETATM   16  H   UNL     1      27.398  45.196  51.512  1.00  0.00     0.169 HD
HETATM   17  O   UNL     1      24.672  43.968  52.443  1.00  0.00    -0.272 OA
BRANCH  15  18
HETATM   18  C   UNL     1      27.265  43.139  51.307  1.00  0.00     0.068 A 
HETATM   19  C   UNL     1      27.985  42.481  52.327  1.00  0.00     0.097 A 
HETATM   20  C   UNL     1      28.485  41.190  52.092  1.00  0.00     0.075 A 
HETATM   21  C   UNL     1      28.241  40.541  50.879  1.00  0.00     0.070 A 
HETATM   22  C   UNL     1      27.473  41.176  49.904  1.00  0.00     0.039 A 
HETATM   23  C   UNL     1      26.978  42.461  50.117  1.00  0.00     0.035 A 
BRANCH  19  24
HETATM   24  O   UNL     1      28.055  43.118  53.541  1.00  0.00    -0.354 OA
HETATM   25  C   UNL     1      29.314  43.160  54.201  1.00  0.00     0.210 C 
ENDBRANCH  19  24
BRANCH  21  26
HETATM   26  O   UNL     1      28.665  39.287  50.537  1.00  0.00    -0.356 OA
HETATM   27  C   UNL     1      28.838  39.014  49.151  1.00  0.00     0.210 C 
ENDBRANCH  21  26
ENDBRANCH  15  18
ENDBRANCH  13  14
ENDBRANCH  12  13
ENDBRANCH   9  12
BRANCH  10  28
HETATM   28  C   UNL     1      22.785  45.289  48.526  1.00  0.00     0.043 A 
HETATM   29  C   UNL     1      23.149  44.904  47.231  1.00  0.00     0.031 A 
HETATM   30  C   UNL     1      23.317  43.547  46.954  1.00  0.00     0.021 A 
HETATM   31  C   UNL     1      23.122  42.603  47.965  1.00  0.00     0.011 A 
HETATM   32 BR   UNL     1      23.358  40.768  47.583  1.00  0.00    -0.051 Br
HETATM   33  C   UNL     1      22.765  43.000  49.258  1.00  0.00     0.021 A 
HETATM   34  C   UNL     1      22.599  44.356  49.551  1.00  0.00     0.031 A 
ENDBRANCH  10  28
BRANCH  11  35
HETATM   35  N   UNL     1      20.430  46.683  47.920  1.00  0.00    -0.384 N 
HETATM   36  H   UNL     1      20.336  46.690  46.911  1.00  0.00     0.157 HD
HETATM   37  H   UNL     1      19.545  46.623  48.414  1.00  0.00     0.157 HD
ENDBRANCH  11  35
TORSDOF 8
ENDMDL
MODEL 10
REMARK VINA RESULT:      -7.3      2.691      3.864
REMARK  8 active torsions:
REMARK  status: ('A' for Active; 'I' for Inactive)
REMARK    1  A    between atoms: C_9  and  S_10 
REMARK    2  A    between atoms: S_10  and  C_11 
REMARK    3  A    between atoms: C_11  and  C_12 
REMARK       I    between atoms: C_12  and  N_13 
REMARK    4  A    between atoms: N_13  and  C_14 
REMARK    5  A    between atoms: C_15  and  O_16 
REMARK    6  A    between atoms: C_19  and  O_20 
REMARK    7  A    between atoms: N_25  and  C_26 
REMARK    8  A    between atoms: C_33  and  N_34 
ROOT
HETATM    1  C   UNL     1      29.803  43.064  54.405  1.00  0.00     0.073 C 
HETATM    2  C   UNL     1      28.494  43.419  53.796  1.00  0.00     0.068 A 
HETATM    3  N   UNL     1      27.809  44.458  54.288  1.00  0.00    -0.177 NA
HETATM    4  N   UNL     1      26.707  44.521  53.527  1.00  0.00    -0.260 N 
HETATM    5  H   UNL     1      26.022  45.248  53.713  1.00  0.00     0.191 HD
HETATM    6  C   UNL     1      26.668  43.554  52.566  1.00  0.00     0.162 A 
HETATM    7  C   UNL     1      27.814  42.800  52.702  1.00  0.00     0.081 A 
HETATM    8  N   UNL     1      25.701  43.379  51.668  1.00  0.00    -0.204 NA
HETATM    9  C   UNL     1      25.947  42.339  50.842  1.00  0.00     0.177 A 
HETATM   10  N   UNL     1      27.060  41.551  50.893  1.00  0.00    -0.276 N 
HETATM   11  C   UNL     1      28.032  41.715  51.838  1.00  0.00     0.124 A 
ENDROOT
BRANCH   9  12
HETATM   12  S   UNL     1      24.689  42.131  49.573  1.00  0.00    -0.082 SA
BRANCH  12  13
HETATM   13  C   UNL     1      24.610  43.839  48.934  1.00  0.00     0.185 C 
BRANCH  13  14
HETATM   14  C   UNL     1      23.258  44.439  49.259  1.00  0.00     0.232 C 
HETATM   15  N   UNL     1      22.760  45.238  48.245  1.00  0.00    -0.324 N 
HETATM   16  H   UNL     1      22.981  44.958  47.298  1.00  0.00     0.169 HD
HETATM   17  O   UNL     1      22.690  44.148  50.310  1.00  0.00    -0.272 OA
BRANCH  15  18
HETATM   18  C   UNL     1      21.698  46.161  48.394  1.00  0.00     0.068 A 
HETATM   19  C   UNL     1      21.875  47.561  48.392  1.00  0.00     0.097 A 
HETATM   20  C   UNL     1      20.757  48.395  48.554  1.00  0.00     0.075 A 
HETATM   21  C   UNL     1      19.475  47.852  48.675  1.00  0.00     0.070 A 
HETATM   22  C   UNL     1      19.307  46.470  48.611  1.00  0.00     0.039 A 
HETATM   23  C   UNL     1      20.407  45.627  48.461  1.00  0.00     0.035 A 
BRANCH  19  24
HETATM   24  O   UNL     1      23.138  48.023  48.117  1.00  0.00    -0.354 OA
HETATM   25  C   UNL     1      23.900  48.561  49.189  1.00  0.00     0.210 C 
ENDBRANCH  19  24
BRANCH  21  26
HETATM   26  O   UNL     1      18.313  48.556  48.828  1.00  0.00    -0.356 OA
HETATM   27  C   UNL     1      18.321  49.632  49.760  1.00  0.00     0.210 C 
ENDBRANCH  21  26
ENDBRANCH  15  18
ENDBRANCH  13  14
ENDBRANCH  12  13
ENDBRANCH   9  12
BRANCH  10  28
HETATM   28  C   UNL     1      27.259  40.537  49.891  1.00  0.00     0.043 A 
HETATM   29  C   UNL     1      28.072  40.835  48.793  1.00  0.00     0.031 A 
HETATM   30  C   UNL     1      28.324  39.837  47.851  1.00  0.00     0.021 A 
HETATM   31  C   UNL     1      27.767  38.568  48.020  1.00  0.00     0.011 A 
HETATM   32 BR   UNL     1      28.118  37.219  46.743  1.00  0.00    -0.051 Br
HETATM   33  C   UNL     1      26.961  38.279  49.126  1.00  0.00     0.021 A 
HETATM   34  C   UNL     1      26.705  39.268  50.080  1.00  0.00     0.031 A 
ENDBRANCH  10  28
BRANCH  11  35
HETATM   35  N   UNL     1      29.147  40.888  51.933  1.00  0.00    -0.384 N 
HETATM   36  H   UNL     1      29.544  40.441  51.114  1.00  0.00     0.157 HD
HETATM   37  H   UNL     1      29.287  40.368  52.793  1.00  0.00     0.157 HD
ENDBRANCH  11  35
TORSDOF 8
ENDMDL
