MODEL 1
REMARK VINA RESULT:      -8.5      0.000      0.000
REMARK  7 active torsions:
REMARK  status: ('A' for Active; 'I' for Inactive)
REMARK    1  A    between atoms: C_2  and  O_3 
REMARK    2  A    between atoms: O_3  and  C_4 
REMARK    3  A    between atoms: C_4  and  C_5 
REMARK    4  A    between atoms: C_6  and  C_7 
REMARK    5  A    between atoms: C_18  and  S_19 
REMARK    6  A    between atoms: S_19  and  C_20 
REMARK    7  A    between atoms: C_20  and  C_21 
ROOT
HETATM    1  C   UNL     1      25.635  45.388  53.172  1.00  0.00     0.070 C 
HETATM    2  C   UNL     1      24.875  44.869  51.948  1.00  0.00     0.203 C 
HETATM    3  N   UNL     1      24.602  45.953  51.003  1.00  0.00    -0.082 N 
HETATM    4  C   UNL     1      25.251  47.155  51.018  1.00  0.00     0.726 A 
HETATM    5  N   UNL     1      26.149  47.399  51.993  1.00  0.00    -0.192 N 
HETATM    6  N   UNL     1      23.647  45.918  50.056  1.00  0.00    -0.128 NA
HETATM    7  C   UNL     1      23.820  47.117  49.488  1.00  0.00     0.226 A 
HETATM    8  N   UNL     1      24.811  47.898  50.034  1.00  0.00    -0.035 NA
HETATM    9  C   UNL     1      26.273  46.589  53.125  1.00  0.00     0.037 C 
HETATM   10  C   UNL     1      27.145  47.147  54.222  1.00  0.00     0.070 C 
HETATM   11  H   UNL     1      26.542  48.336  52.053  1.00  0.00     0.184 HD
ENDROOT
BRANCH   7  12
HETATM   12  S   UNL     1      22.811  47.636  48.174  1.00  0.00    -0.083 SA
BRANCH  12  13
HETATM   13  C   UNL     1      22.927  49.426  48.421  1.00  0.00     0.121 C 
BRANCH  13  14
HETATM   14  C   UNL     1      21.610  49.997  48.887  1.00  0.00    -0.047 A 
HETATM   15  C   UNL     1      20.776  49.264  49.746  1.00  0.00     0.031 A 
HETATM   16  C   UNL     1      19.547  49.788  50.146  1.00  0.00     0.034 A 
HETATM   17 CL   UNL     1      18.535  48.880  51.202  1.00  0.00    -0.084 Cl
HETATM   18  C   UNL     1      19.129  51.039  49.697  1.00  0.00     0.024 A 
HETATM   19  C   UNL     1      19.947  51.773  48.839  1.00  0.00     0.002 A 
HETATM   20  C   UNL     1      21.179  51.255  48.435  1.00  0.00     0.008 A 
ENDBRANCH  13  14
ENDBRANCH  12  13
ENDBRANCH   7  12
BRANCH   2  21
HETATM   21  C   UNL     1      25.624  43.746  51.223  1.00  0.00    -0.028 A 
HETATM   22  C   UNL     1      24.975  42.527  50.966  1.00  0.00     0.011 A 
HETATM   23  C   UNL     1      25.641  41.486  50.313  1.00  0.00     0.024 A 
HETATM   24  C   UNL     1      26.962  41.655  49.908  1.00  0.00     0.034 A 
HETATM   25 CL   UNL     1      27.783  40.372  49.109  1.00  0.00    -0.084 Cl
HETATM   26  C   UNL     1      27.623  42.855  50.150  1.00  0.00     0.024 A 
HETATM   27  C   UNL     1      26.960  43.896  50.803  1.00  0.00     0.011 A 
ENDBRANCH   2  21
BRANCH   1  28
HETATM   28  C   UNL     1      25.510  44.475  54.339  1.00  0.00     0.293 C 
HETATM   29  O   UNL     1      24.430  44.136  54.800  1.00  0.00    -0.259 OA
BRANCH  28  30
HETATM   30  O   UNL     1      26.713  44.166  54.879  1.00  0.00    -0.318 OA
BRANCH  30  31
HETATM   31  C   UNL     1      27.384  43.030  54.309  1.00  0.00     0.174 C 
HETATM   32  C   UNL     1      28.821  43.375  53.966  1.00  0.00     0.034 C 
ENDBRANCH  30  31
ENDBRANCH  28  30
ENDBRANCH   1  28
TORSDOF 7
ENDMDL
MODEL 2
REMARK VINA RESULT:      -8.4      5.102      7.791
REMARK  7 active torsions:
REMARK  status: ('A' for Active; 'I' for Inactive)
REMARK    1  A    between atoms: C_2  and  O_3 
REMARK    2  A    between atoms: O_3  and  C_4 
REMARK    3  A    between atoms: C_4  and  C_5 
REMARK    4  A    between atoms: C_6  and  C_7 
REMARK    5  A    between atoms: C_18  and  S_19 
REMARK    6  A    between atoms: S_19  and  C_20 
REMARK    7  A    between atoms: C_20  and  C_21 
ROOT
HETATM    1  C   UNL     1      23.125  48.622  48.662  1.00  0.00     0.070 C 
HETATM    2  C   UNL     1      21.910  48.748  47.738  1.00  0.00     0.203 C 
HETATM    3  N   UNL     1      21.367  47.429  47.406  1.00  0.00    -0.082 N 
HETATM    4  C   UNL     1      21.649  46.292  48.110  1.00  0.00     0.726 A 
HETATM    5  N   UNL     1      22.530  46.358  49.128  1.00  0.00    -0.192 N 
HETATM    6  N   UNL     1      20.581  47.172  46.345  1.00  0.00    -0.128 NA
HETATM    7  C   UNL     1      20.371  45.861  46.507  1.00  0.00     0.226 A 
HETATM    8  N   UNL     1      20.990  45.287  47.592  1.00  0.00    -0.035 NA
HETATM    9  C   UNL     1      23.350  47.468  49.347  1.00  0.00     0.037 C 
HETATM   10  C   UNL     1      24.441  47.269  50.369  1.00  0.00     0.070 C 
HETATM   11  H   UNL     1      22.811  45.485  49.570  1.00  0.00     0.184 HD
ENDROOT
BRANCH   7  12
HETATM   12  S   UNL     1      19.407  44.964  45.375  1.00  0.00    -0.083 SA
BRANCH  12  13
HETATM   13  C   UNL     1      17.984  44.610  46.437  1.00  0.00     0.121 C 
BRANCH  13  14
HETATM   14  C   UNL     1      17.359  45.883  46.953  1.00  0.00    -0.047 A 
HETATM   15  C   UNL     1      16.877  46.855  46.062  1.00  0.00     0.031 A 
HETATM   16  C   UNL     1      16.328  48.042  46.548  1.00  0.00     0.034 A 
HETATM   17 CL   UNL     1      15.738  49.224  45.446  1.00  0.00    -0.084 Cl
HETATM   18  C   UNL     1      16.257  48.280  47.920  1.00  0.00     0.024 A 
HETATM   19  C   UNL     1      16.740  47.324  48.812  1.00  0.00     0.002 A 
HETATM   20  C   UNL     1      17.288  46.133  48.333  1.00  0.00     0.008 A 
ENDBRANCH  13  14
ENDBRANCH  12  13
ENDBRANCH   7  12
BRANCH   2  21
HETATM   21  C   UNL     1      20.799  49.613  48.341  1.00  0.00    -0.028 A 
HETATM   22  C   UNL     1      20.546  50.890  47.813  1.00  0.00     0.011 A 
HETATM   23  C   UNL     1      19.543  51.700  48.352  1.00  0.00     0.024 A 
HETATM   24  C   UNL     1      18.780  51.240  49.422  1.00  0.00     0.034 A 
HETATM   25 CL   UNL     1      17.549  52.239  50.088  1.00  0.00    -0.084 Cl
HETATM   26  C   UNL     1      19.012  49.977  49.959  1.00  0.00     0.024 A 
HETATM   27  C   UNL     1      20.015  49.166  49.422  1.00  0.00     0.011 A 
ENDBRANCH   2  21
BRANCH   1  28
HETATM   28  C   UNL     1      23.980  49.838  48.634  1.00  0.00     0.293 C 
HETATM   29  O   UNL     1      23.812  50.781  49.393  1.00  0.00    -0.259 OA
BRANCH  28  30
HETATM   30  O   UNL     1      24.872  49.814  47.615  1.00  0.00    -0.318 OA
BRANCH  30  31
HETATM   31  C   UNL     1      26.204  50.244  47.936  1.00  0.00     0.174 C 
HETATM   32  C   UNL     1      26.936  49.175  48.725  1.00  0.00     0.034 C 
ENDBRANCH  30  31
ENDBRANCH  28  30
ENDBRANCH   1  28
TORSDOF 7
ENDMDL
MODEL 3
REMARK VINA RESULT:      -8.1      3.430      8.448
REMARK  7 active torsions:
REMARK  status: ('A' for Active; 'I' for Inactive)
REMARK    1  A    between atoms: C_2  and  O_3 
REMARK    2  A    between atoms: O_3  and  C_4 
REMARK    3  A    between atoms: C_4  and  C_5 
REMARK    4  A    between atoms: C_6  and  C_7 
REMARK    5  A    between atoms: C_18  and  S_19 
REMARK    6  A    between atoms: S_19  and  C_20 
REMARK    7  A    between atoms: C_20  and  C_21 
ROOT
HETATM    1  C   UNL     1      26.333  45.324  52.852  1.00  0.00     0.070 C 
HETATM    2  C   UNL     1      26.731  45.369  51.374  1.00  0.00     0.203 C 
HETATM    3  N   UNL     1      26.442  44.093  50.716  1.00  0.00    -0.082 N 
HETATM    4  C   UNL     1      25.599  43.148  51.229  1.00  0.00     0.726 A 
HETATM    5  N   UNL     1      25.048  43.355  52.441  1.00  0.00    -0.192 N 
HETATM    6  N   UNL     1      27.011  43.679  49.569  1.00  0.00    -0.128 NA
HETATM    7  C   UNL     1      26.412  42.493  49.413  1.00  0.00     0.226 A 
HETATM    8  N   UNL     1      25.520  42.139  50.398  1.00  0.00    -0.035 NA
HETATM    9  C   UNL     1      25.481  44.365  53.304  1.00  0.00     0.037 C 
HETATM   10  C   UNL     1      24.929  44.292  54.707  1.00  0.00     0.070 C 
HETATM   11  H   UNL     1      24.512  42.595  52.855  1.00  0.00     0.184 HD
ENDROOT
BRANCH   7  12
HETATM   12  S   UNL     1      26.793  41.472  48.060  1.00  0.00    -0.083 SA
BRANCH  12  13
HETATM   13  C   UNL     1      28.312  40.719  48.695  1.00  0.00     0.121 C 
BRANCH  13  14
HETATM   14  C   UNL     1      28.063  39.308  49.168  1.00  0.00    -0.047 A 
HETATM   15  C   UNL     1      28.978  38.666  50.017  1.00  0.00     0.031 A 
HETATM   16  C   UNL     1      28.754  37.351  50.424  1.00  0.00     0.034 A 
HETATM   17 CL   UNL     1      29.882  36.576  51.468  1.00  0.00    -0.084 Cl
HETATM   18  C   UNL     1      27.626  36.656  49.990  1.00  0.00     0.024 A 
HETATM   19  C   UNL     1      26.715  37.282  49.141  1.00  0.00     0.002 A 
HETATM   20  C   UNL     1      26.932  38.599  48.731  1.00  0.00     0.008 A 
ENDBRANCH  13  14
ENDBRANCH  12  13
ENDBRANCH   7  12
BRANCH   2  21
HETATM   21  C   UNL     1      26.034  46.499  50.610  1.00  0.00    -0.028 A 
HETATM   22  C   UNL     1      24.631  46.542  50.554  1.00  0.00     0.011 A 
HETATM   23  C   UNL     1      23.975  47.559  49.857  1.00  0.00     0.024 A 
HETATM   24  C   UNL     1      24.714  48.544  49.209  1.00  0.00     0.034 A 
HETATM   25 CL   UNL     1      23.905  49.794  48.346  1.00  0.00    -0.084 Cl
HETATM   26  C   UNL     1      26.105  48.523  49.252  1.00  0.00     0.024 A 
HETATM   27  C   UNL     1      26.763  47.507  49.949  1.00  0.00     0.011 A 
ENDBRANCH   2  21
BRANCH   1  28
HETATM   28  C   UNL     1      27.027  46.368  53.652  1.00  0.00     0.293 C 
HETATM   29  O   UNL     1      26.678  47.539  53.655  1.00  0.00    -0.259 OA
BRANCH  28  30
HETATM   30  O   UNL     1      28.131  45.889  54.272  1.00  0.00    -0.318 OA
BRANCH  30  31
HETATM   31  C   UNL     1      28.505  46.551  55.491  1.00  0.00     0.174 C 
HETATM   32  C   UNL     1      29.529  45.731  56.252  1.00  0.00     0.034 C 
ENDBRANCH  30  31
ENDBRANCH  28  30
ENDBRANCH   1  28
TORSDOF 7
ENDMDL
MODEL 4
REMARK VINA RESULT:      -8.1      4.050      8.729
REMARK  7 active torsions:
REMARK  status: ('A' for Active; 'I' for Inactive)
REMARK    1  A    between atoms: C_2  and  O_3 
REMARK    2  A    between atoms: O_3  and  C_4 
REMARK    3  A    between atoms: C_4  and  C_5 
REMARK    4  A    between atoms: C_6  and  C_7 
REMARK    5  A    between atoms: C_18  and  S_19 
REMARK    6  A    between atoms: S_19  and  C_20 
REMARK    7  A    between atoms: C_20  and  C_21 
ROOT
HETATM    1  C   UNL     1      23.472  44.570  48.848  1.00  0.00     0.070 C 
HETATM    2  C   UNL     1      23.909  45.387  50.068  1.00  0.00     0.203 C 
HETATM    3  N   UNL     1      24.733  44.580  50.970  1.00  0.00    -0.082 N 
HETATM    4  C   UNL     1      25.340  43.413  50.603  1.00  0.00     0.726 A 
HETATM    5  N   UNL     1      25.122  42.925  49.366  1.00  0.00    -0.192 N 
HETATM    6  N   UNL     1      24.939  44.859  52.270  1.00  0.00    -0.128 NA
HETATM    7  C   UNL     1      25.740  43.844  52.614  1.00  0.00     0.226 A 
HETATM    8  N   UNL     1      26.029  42.946  51.614  1.00  0.00    -0.035 NA
HETATM    9  C   UNL     1      24.121  43.420  48.525  1.00  0.00     0.037 C 
HETATM   10  C   UNL     1      23.857  42.597  47.288  1.00  0.00     0.070 C 
HETATM   11  H   UNL     1      25.492  42.003  49.147  1.00  0.00     0.184 HD
ENDROOT
BRANCH   7  12
HETATM   12  S   UNL     1      26.324  43.680  54.241  1.00  0.00    -0.083 SA
BRANCH  12  13
HETATM   13  C   UNL     1      28.064  43.332  53.881  1.00  0.00     0.121 C 
BRANCH  13  14
HETATM   14  C   UNL     1      28.975  44.073  54.830  1.00  0.00    -0.047 A 
HETATM   15  C   UNL     1      30.066  43.423  55.428  1.00  0.00     0.031 A 
HETATM   16  C   UNL     1      30.884  44.108  56.327  1.00  0.00     0.034 A 
HETATM   17 CL   UNL     1      32.221  43.301  57.050  1.00  0.00    -0.084 Cl
HETATM   18  C   UNL     1      30.626  45.440  56.647  1.00  0.00     0.024 A 
HETATM   19  C   UNL     1      29.541  46.092  56.063  1.00  0.00     0.002 A 
HETATM   20  C   UNL     1      28.719  45.413  55.162  1.00  0.00     0.008 A 
ENDBRANCH  13  14
ENDBRANCH  12  13
ENDBRANCH   7  12
BRANCH   2  21
HETATM   21  C   UNL     1      24.677  46.655  49.683  1.00  0.00    -0.028 A 
HETATM   22  C   UNL     1      26.082  46.655  49.710  1.00  0.00     0.011 A 
HETATM   23  C   UNL     1      26.803  47.802  49.371  1.00  0.00     0.024 A 
HETATM   24  C   UNL     1      26.128  48.961  48.998  1.00  0.00     0.034 A 
HETATM   25 CL   UNL     1      27.017  50.375  48.585  1.00  0.00    -0.084 Cl
HETATM   26  C   UNL     1      24.737  48.983  48.962  1.00  0.00     0.024 A 
HETATM   27  C   UNL     1      24.014  47.838  49.301  1.00  0.00     0.011 A 
ENDBRANCH   2  21
BRANCH   1  28
HETATM   28  C   UNL     1      22.280  45.156  48.178  1.00  0.00     0.293 C 
HETATM   29  O   UNL     1      22.343  45.722  47.097  1.00  0.00    -0.259 OA
BRANCH  28  30
HETATM   30  O   UNL     1      21.170  45.081  48.949  1.00  0.00    -0.318 OA
BRANCH  30  31
HETATM   31  C   UNL     1      19.987  45.690  48.407  1.00  0.00     0.174 C 
HETATM   32  C   UNL     1      19.825  47.104  48.932  1.00  0.00     0.034 C 
ENDBRANCH  30  31
ENDBRANCH  28  30
ENDBRANCH   1  28
TORSDOF 7
ENDMDL
MODEL 5
REMARK VINA RESULT:      -7.7      6.372      8.494
REMARK  7 active torsions:
REMARK  status: ('A' for Active; 'I' for Inactive)
REMARK    1  A    between atoms: C_2  and  O_3 
REMARK    2  A    between atoms: O_3  and  C_4 
REMARK    3  A    between atoms: C_4  and  C_5 
REMARK    4  A    between atoms: C_6  and  C_7 
REMARK    5  A    between atoms: C_18  and  S_19 
REMARK    6  A    between atoms: S_19  and  C_20 
REMARK    7  A    between atoms: C_20  and  C_21 
ROOT
HETATM    1  C   UNL     1      27.759  38.634  49.606  1.00  0.00     0.070 C 
HETATM    2  C   UNL     1      26.838  39.795  49.223  1.00  0.00     0.203 C 
HETATM    3  N   UNL     1      27.064  40.951  50.091  1.00  0.00    -0.082 N 
HETATM    4  C   UNL     1      28.178  41.114  50.865  1.00  0.00     0.726 A 
HETATM    5  N   UNL     1      29.100  40.131  50.894  1.00  0.00    -0.192 N 
HETATM    6  N   UNL     1      26.184  41.952  50.276  1.00  0.00    -0.128 NA
HETATM    7  C   UNL     1      26.864  42.724  51.130  1.00  0.00     0.226 A 
HETATM    8  N   UNL     1      28.103  42.257  51.499  1.00  0.00    -0.035 NA
HETATM    9  C   UNL     1      28.863  38.857  50.370  1.00  0.00     0.037 C 
HETATM   10  C   UNL     1      29.902  37.818  50.713  1.00  0.00     0.070 C 
HETATM   11  H   UNL     1      29.868  40.220  51.557  1.00  0.00     0.184 HD
ENDROOT
BRANCH   7  12
HETATM   12  S   UNL     1      26.178  44.196  51.745  1.00  0.00    -0.083 SA
BRANCH  12  13
HETATM   13  C   UNL     1      26.245  43.819  53.515  1.00  0.00     0.121 C 
BRANCH  13  14
HETATM   14  C   UNL     1      27.323  44.622  54.201  1.00  0.00    -0.047 A 
HETATM   15  C   UNL     1      28.494  44.000  54.662  1.00  0.00     0.031 A 
HETATM   16  C   UNL     1      29.471  44.745  55.323  1.00  0.00     0.034 A 
HETATM   17 CL   UNL     1      30.903  43.971  55.881  1.00  0.00    -0.084 Cl
HETATM   18  C   UNL     1      29.296  46.111  55.537  1.00  0.00     0.024 A 
HETATM   19  C   UNL     1      28.134  46.737  55.088  1.00  0.00     0.002 A 
HETATM   20  C   UNL     1      27.153  45.998  54.425  1.00  0.00     0.008 A 
ENDBRANCH  13  14
ENDBRANCH  12  13
ENDBRANCH   7  12
BRANCH   2  21
HETATM   21  C   UNL     1      27.006  40.222  47.761  1.00  0.00    -0.028 A 
HETATM   22  C   UNL     1      25.917  40.132  46.878  1.00  0.00     0.011 A 
HETATM   23  C   UNL     1      26.050  40.509  45.539  1.00  0.00     0.024 A 
HETATM   24  C   UNL     1      27.272  40.982  45.070  1.00  0.00     0.034 A 
HETATM   25 CL   UNL     1      27.436  41.442  43.420  1.00  0.00    -0.084 Cl
HETATM   26  C   UNL     1      28.363  41.082  45.928  1.00  0.00     0.024 A 
HETATM   27  C   UNL     1      28.233  40.705  47.266  1.00  0.00     0.011 A 
ENDBRANCH   2  21
BRANCH   1  28
HETATM   28  C   UNL     1      27.254  37.327  49.108  1.00  0.00     0.293 C 
HETATM   29  O   UNL     1      26.505  36.616  49.761  1.00  0.00    -0.259 OA
BRANCH  28  30
HETATM   30  O   UNL     1      27.802  36.986  47.918  1.00  0.00    -0.318 OA
BRANCH  30  31
HETATM   31  C   UNL     1      26.900  36.435  46.945  1.00  0.00     0.174 C 
HETATM   32  C   UNL     1      27.660  35.644  45.898  1.00  0.00     0.034 C 
ENDBRANCH  30  31
ENDBRANCH  28  30
ENDBRANCH   1  28
TORSDOF 7
ENDMDL
MODEL 6
REMARK VINA RESULT:      -7.7      2.610      3.411
REMARK  7 active torsions:
REMARK  status: ('A' for Active; 'I' for Inactive)
REMARK    1  A    between atoms: C_2  and  O_3 
REMARK    2  A    between atoms: O_3  and  C_4 
REMARK    3  A    between atoms: C_4  and  C_5 
REMARK    4  A    between atoms: C_6  and  C_7 
REMARK    5  A    between atoms: C_18  and  S_19 
REMARK    6  A    between atoms: S_19  and  C_20 
REMARK    7  A    between atoms: C_20  and  C_21 
ROOT
HETATM    1  C   UNL     1      25.112  44.947  50.563  1.00  0.00     0.070 C 
HETATM    2  C   UNL     1      23.888  45.708  50.047  1.00  0.00     0.203 C 
HETATM    3  N   UNL     1      24.252  47.063  49.627  1.00  0.00    -0.082 N 
HETATM    4  C   UNL     1      25.534  47.459  49.369  1.00  0.00     0.726 A 
HETATM    5  N   UNL     1      26.540  46.584  49.574  1.00  0.00    -0.192 N 
HETATM    6  N   UNL     1      23.385  48.084  49.504  1.00  0.00    -0.128 NA
HETATM    7  C   UNL     1      24.209  49.058  49.102  1.00  0.00     0.226 A 
HETATM    8  N   UNL     1      25.533  48.710  48.984  1.00  0.00    -0.035 NA
HETATM    9  C   UNL     1      26.366  45.382  50.265  1.00  0.00     0.037 C 
HETATM   10  C   UNL     1      27.640  44.654  50.617  1.00  0.00     0.070 C 
HETATM   11  H   UNL     1      27.494  46.928  49.482  1.00  0.00     0.184 HD
ENDROOT
BRANCH   7  12
HETATM   12  S   UNL     1      23.614  50.661  48.799  1.00  0.00    -0.083 SA
BRANCH  12  13
HETATM   13  C   UNL     1      22.128  50.236  47.855  1.00  0.00     0.121 C 
BRANCH  13  14
HETATM   14  C   UNL     1      20.877  50.550  48.640  1.00  0.00    -0.047 A 
HETATM   15  C   UNL     1      20.340  49.611  49.534  1.00  0.00     0.031 A 
HETATM   16  C   UNL     1      19.167  49.898  50.232  1.00  0.00     0.034 A 
HETATM   17 CL   UNL     1      18.520  48.740  51.328  1.00  0.00    -0.084 Cl
HETATM   18  C   UNL     1      18.511  51.114  50.047  1.00  0.00     0.024 A 
HETATM   19  C   UNL     1      19.033  52.051  49.155  1.00  0.00     0.002 A 
HETATM   20  C   UNL     1      20.208  51.770  48.455  1.00  0.00     0.008 A 
ENDBRANCH  13  14
ENDBRANCH  12  13
ENDBRANCH   7  12
BRANCH   2  21
HETATM   21  C   UNL     1      23.194  44.991  48.885  1.00  0.00    -0.028 A 
HETATM   22  C   UNL     1      21.797  45.065  48.754  1.00  0.00     0.011 A 
HETATM   23  C   UNL     1      21.143  44.411  47.706  1.00  0.00     0.024 A 
HETATM   24  C   UNL     1      21.878  43.679  46.779  1.00  0.00     0.034 A 
HETATM   25 CL   UNL     1      21.071  42.871  45.492  1.00  0.00    -0.084 Cl
HETATM   26  C   UNL     1      23.262  43.594  46.888  1.00  0.00     0.024 A 
HETATM   27  C   UNL     1      23.919  44.246  47.935  1.00  0.00     0.011 A 
ENDBRANCH   2  21
BRANCH   1  28
HETATM   28  C   UNL     1      24.735  43.796  51.426  1.00  0.00     0.293 C 
HETATM   29  O   UNL     1      24.612  42.660  50.994  1.00  0.00    -0.259 OA
BRANCH  28  30
HETATM   30  O   UNL     1      24.448  44.178  52.692  1.00  0.00    -0.318 OA
BRANCH  30  31
HETATM   31  C   UNL     1      25.561  44.243  53.598  1.00  0.00     0.174 C 
HETATM   32  C   UNL     1      25.101  44.037  55.028  1.00  0.00     0.034 C 
ENDBRANCH  30  31
ENDBRANCH  28  30
ENDBRANCH   1  28
TORSDOF 7
ENDMDL
MODEL 7
REMARK VINA RESULT:      -7.6      4.373      6.542
REMARK  7 active torsions:
REMARK  status: ('A' for Active; 'I' for Inactive)
REMARK    1  A    between atoms: C_2  and  O_3 
REMARK    2  A    between atoms: O_3  and  C_4 
REMARK    3  A    between atoms: C_4  and  C_5 
REMARK    4  A    between atoms: C_6  and  C_7 
REMARK    5  A    between atoms: C_18  and  S_19 
REMARK    6  A    between atoms: S_19  and  C_20 
REMARK    7  A    between atoms: C_20  and  C_21 
ROOT
HETATM    1  C   UNL     1      22.949  48.670  48.980  1.00  0.00     0.070 C 
HETATM    2  C   UNL     1      21.452  48.480  49.243  1.00  0.00     0.203 C 
HETATM    3  N   UNL     1      20.732  49.747  49.102  1.00  0.00    -0.082 N 
HETATM    4  C   UNL     1      21.239  50.842  48.461  1.00  0.00     0.726 A 
HETATM    5  N   UNL     1      22.500  50.793  47.987  1.00  0.00    -0.192 N 
HETATM    6  N   UNL     1      19.522  50.000  49.632  1.00  0.00    -0.128 NA
HETATM    7  C   UNL     1      19.329  51.256  49.213  1.00  0.00     0.226 A 
HETATM    8  N   UNL     1      20.350  51.802  48.472  1.00  0.00    -0.035 NA
HETATM    9  C   UNL     1      23.396  49.776  48.328  1.00  0.00     0.037 C 
HETATM   10  C   UNL     1      24.827  50.015  47.911  1.00  0.00     0.070 C 
HETATM   11  H   UNL     1      22.900  51.651  47.611  1.00  0.00     0.184 HD
ENDROOT
BRANCH   7  12
HETATM   12  S   UNL     1      17.886  52.126  49.635  1.00  0.00    -0.083 SA
BRANCH  12  13
HETATM   13  C   UNL     1      17.015  52.010  48.052  1.00  0.00     0.121 C 
BRANCH  13  14
HETATM   14  C   UNL     1      16.910  50.576  47.592  1.00  0.00    -0.047 A 
HETATM   15  C   UNL     1      17.569  50.148  46.430  1.00  0.00     0.031 A 
HETATM   16  C   UNL     1      17.441  48.828  45.997  1.00  0.00     0.034 A 
HETATM   17 CL   UNL     1      18.257  48.313  44.571  1.00  0.00    -0.084 Cl
HETATM   18  C   UNL     1      16.655  47.922  46.707  1.00  0.00     0.024 A 
HETATM   19  C   UNL     1      15.991  48.339  47.859  1.00  0.00     0.002 A 
HETATM   20  C   UNL     1      16.116  49.658  48.299  1.00  0.00     0.008 A 
ENDBRANCH  13  14
ENDBRANCH  12  13
ENDBRANCH   7  12
BRANCH   2  21
HETATM   21  C   UNL     1      20.820  47.435  48.319  1.00  0.00    -0.028 A 
HETATM   22  C   UNL     1      21.221  47.359  46.974  1.00  0.00     0.011 A 
HETATM   23  C   UNL     1      20.651  46.420  46.111  1.00  0.00     0.024 A 
HETATM   24  C   UNL     1      19.677  45.545  46.583  1.00  0.00     0.034 A 
HETATM   25 CL   UNL     1      18.973  44.391  45.519  1.00  0.00    -0.084 Cl
HETATM   26  C   UNL     1      19.267  45.601  47.912  1.00  0.00     0.024 A 
HETATM   27  C   UNL     1      19.834  46.539  48.776  1.00  0.00     0.011 A 
ENDBRANCH   2  21
BRANCH   1  28
HETATM   28  C   UNL     1      23.765  47.574  49.568  1.00  0.00     0.293 C 
HETATM   29  O   UNL     1      23.745  46.431  49.136  1.00  0.00    -0.259 OA
BRANCH  28  30
HETATM   30  O   UNL     1      24.430  47.969  50.679  1.00  0.00    -0.318 OA
BRANCH  30  31
HETATM   31  C   UNL     1      25.668  47.291  50.946  1.00  0.00     0.174 C 
HETATM   32  C   UNL     1      25.716  46.810  52.383  1.00  0.00     0.034 C 
ENDBRANCH  30  31
ENDBRANCH  28  30
ENDBRANCH   1  28
TORSDOF 7
ENDMDL
MODEL 8
REMARK VINA RESULT:      -7.6      4.791      8.750
REMARK  7 active torsions:
REMARK  status: ('A' for Active; 'I' for Inactive)
REMARK    1  A    between atoms: C_2  and  O_3 
REMARK    2  A    between atoms: O_3  and  C_4 
REMARK    3  A    between atoms: C_4  and  C_5 
REMARK    4  A    between atoms: C_6  and  C_7 
REMARK    5  A    between atoms: C_18  and  S_19 
REMARK    6  A    between atoms: S_19  and  C_20 
REMARK    7  A    between atoms: C_20  and  C_21 
ROOT
HETATM    1  C   UNL     1      19.198  45.797  46.992  1.00  0.00     0.070 C 
HETATM    2  C   UNL     1      19.998  46.322  48.187  1.00  0.00     0.203 C 
HETATM    3  N   UNL     1      21.388  45.864  48.128  1.00  0.00    -0.082 N 
HETATM    4  C   UNL     1      21.978  45.373  46.997  1.00  0.00     0.726 A 
HETATM    5  N   UNL     1      21.234  45.232  45.882  1.00  0.00    -0.192 N 
HETATM    6  N   UNL     1      22.222  45.815  49.182  1.00  0.00    -0.128 NA
HETATM    7  C   UNL     1      23.329  45.343  48.599  1.00  0.00     0.226 A 
HETATM    8  N   UNL     1      23.228  45.081  47.253  1.00  0.00    -0.035 NA
HETATM    9  C   UNL     1      19.840  45.330  45.887  1.00  0.00     0.037 C 
HETATM   10  C   UNL     1      19.162  44.899  44.611  1.00  0.00     0.070 C 
HETATM   11  H   UNL     1      21.659  44.765  45.084  1.00  0.00     0.184 HD
ENDROOT
BRANCH   7  12
HETATM   12  S   UNL     1      24.770  45.053  49.522  1.00  0.00    -0.083 SA
BRANCH  12  13
HETATM   13  C   UNL     1      24.754  46.546  50.547  1.00  0.00     0.121 C 
BRANCH  13  14
HETATM   14  C   UNL     1      25.253  47.742  49.773  1.00  0.00    -0.047 A 
HETATM   15  C   UNL     1      24.349  48.648  49.197  1.00  0.00     0.031 A 
HETATM   16  C   UNL     1      24.821  49.734  48.458  1.00  0.00     0.034 A 
HETATM   17 CL   UNL     1      23.703  50.841  47.759  1.00  0.00    -0.084 Cl
HETATM   18  C   UNL     1      26.189  49.929  48.279  1.00  0.00     0.024 A 
HETATM   19  C   UNL     1      27.094  49.031  48.842  1.00  0.00     0.002 A 
HETATM   20  C   UNL     1      26.630  47.943  49.584  1.00  0.00     0.008 A 
ENDBRANCH  13  14
ENDBRANCH  12  13
ENDBRANCH   7  12
BRANCH   2  21
HETATM   21  C   UNL     1      19.976  47.851  48.285  1.00  0.00    -0.028 A 
HETATM   22  C   UNL     1      19.635  48.467  49.501  1.00  0.00     0.011 A 
HETATM   23  C   UNL     1      19.601  49.859  49.610  1.00  0.00     0.024 A 
HETATM   24  C   UNL     1      19.909  50.650  48.507  1.00  0.00     0.034 A 
HETATM   25 CL   UNL     1      19.862  52.364  48.642  1.00  0.00    -0.084 Cl
HETATM   26  C   UNL     1      20.252  50.061  47.294  1.00  0.00     0.024 A 
HETATM   27  C   UNL     1      20.287  48.669  47.181  1.00  0.00     0.011 A 
ENDBRANCH   2  21
BRANCH   1  28
HETATM   28  C   UNL     1      17.733  45.815  47.246  1.00  0.00     0.293 C 
HETATM   29  O   UNL     1      17.172  44.979  47.939  1.00  0.00    -0.259 OA
BRANCH  28  30
HETATM   30  O   UNL     1      17.102  46.784  46.542  1.00  0.00    -0.318 OA
BRANCH  30  31
HETATM   31  C   UNL     1      16.231  47.643  47.295  1.00  0.00     0.174 C 
HETATM   32  C   UNL     1      16.635  49.095  47.126  1.00  0.00     0.034 C 
ENDBRANCH  30  31
ENDBRANCH  28  30
ENDBRANCH   1  28
TORSDOF 7
ENDMDL
MODEL 9
REMARK VINA RESULT:      -7.5      4.721      8.417
REMARK  7 active torsions:
REMARK  status: ('A' for Active; 'I' for Inactive)
REMARK    1  A    between atoms: C_2  and  O_3 
REMARK    2  A    between atoms: O_3  and  C_4 
REMARK    3  A    between atoms: C_4  and  C_5 
REMARK    4  A    between atoms: C_6  and  C_7 
REMARK    5  A    between atoms: C_18  and  S_19 
REMARK    6  A    between atoms: S_19  and  C_20 
REMARK    7  A    between atoms: C_20  and  C_21 
ROOT
HETATM    1  C   UNL     1      23.292  48.550  48.733  1.00  0.00     0.070 C 
HETATM    2  C   UNL     1      22.080  48.613  47.800  1.00  0.00     0.203 C 
HETATM    3  N   UNL     1      21.573  47.270  47.511  1.00  0.00    -0.082 N 
HETATM    4  C   UNL     1      21.880  46.166  48.255  1.00  0.00     0.726 A 
HETATM    5  N   UNL     1      22.753  46.289  49.274  1.00  0.00    -0.192 N 
HETATM    6  N   UNL     1      20.800  46.956  46.455  1.00  0.00    -0.128 NA
HETATM    7  C   UNL     1      20.623  45.647  46.661  1.00  0.00     0.226 A 
HETATM    8  N   UNL     1      21.250  45.126  47.768  1.00  0.00    -0.035 NA
HETATM    9  C   UNL     1      23.543  47.427  49.458  1.00  0.00     0.037 C 
HETATM   10  C   UNL     1      24.633  47.291  50.492  1.00  0.00     0.070 C 
HETATM   11  H   UNL     1      23.054  45.439  49.747  1.00  0.00     0.184 HD
ENDROOT
BRANCH   7  12
HETATM   12  S   UNL     1      19.688  44.687  45.556  1.00  0.00    -0.083 SA
BRANCH  12  13
HETATM   13  C   UNL     1      21.015  43.650  44.892  1.00  0.00     0.121 C 
BRANCH  13  14
HETATM   14  C   UNL     1      21.844  44.407  43.883  1.00  0.00    -0.047 A 
HETATM   15  C   UNL     1      23.239  44.251  43.843  1.00  0.00     0.031 A 
HETATM   16  C   UNL     1      23.999  44.978  42.927  1.00  0.00     0.034 A 
HETATM   17 CL   UNL     1      25.708  44.776  42.885  1.00  0.00    -0.084 Cl
HETATM   18  C   UNL     1      23.388  45.870  42.047  1.00  0.00     0.024 A 
HETATM   19  C   UNL     1      22.005  46.037  42.084  1.00  0.00     0.002 A 
HETATM   20  C   UNL     1      21.237  45.311  42.996  1.00  0.00     0.008 A 
ENDBRANCH  13  14
ENDBRANCH  12  13
ENDBRANCH   7  12
BRANCH   2  21
HETATM   21  C   UNL     1      20.944  49.469  48.366  1.00  0.00    -0.028 A 
HETATM   22  C   UNL     1      20.680  50.733  47.813  1.00  0.00     0.011 A 
HETATM   23  C   UNL     1      19.653  51.535  48.319  1.00  0.00     0.024 A 
HETATM   24  C   UNL     1      18.879  51.080  49.382  1.00  0.00     0.034 A 
HETATM   25 CL   UNL     1      17.618  52.069  50.008  1.00  0.00    -0.084 Cl
HETATM   26  C   UNL     1      19.121  49.830  49.945  1.00  0.00     0.024 A 
HETATM   27  C   UNL     1      20.147  49.028  49.441  1.00  0.00     0.011 A 
ENDBRANCH   2  21
BRANCH   1  28
HETATM   28  C   UNL     1      24.116  49.787  48.667  1.00  0.00     0.293 C 
HETATM   29  O   UNL     1      23.929  50.745  49.401  1.00  0.00    -0.259 OA
BRANCH  28  30
HETATM   30  O   UNL     1      25.003  49.757  47.645  1.00  0.00    -0.318 OA
BRANCH  30  31
HETATM   31  C   UNL     1      26.339  50.185  47.958  1.00  0.00     0.174 C 
HETATM   32  C   UNL     1      27.055  49.136  48.787  1.00  0.00     0.034 C 
ENDBRANCH  30  31
ENDBRANCH  28  30
ENDBRANCH   1  28
TORSDOF 7
ENDMDL
MODEL 10
REMARK VINA RESULT:      -7.4      3.511      8.633
REMARK  7 active torsions:
REMARK  status: ('A' for Active; 'I' for Inactive)
REMARK    1  A    between atoms: C_2  and  O_3 
REMARK    2  A    between atoms: O_3  and  C_4 
REMARK    3  A    between atoms: C_4  and  C_5 
REMARK    4  A    between atoms: C_6  and  C_7 
REMARK    5  A    between atoms: C_18  and  S_19 
REMARK    6  A    between atoms: S_19  and  C_20 
REMARK    7  A    between atoms: C_20  and  C_21 
ROOT
HETATM    1  C   UNL     1      26.470  45.151  52.790  1.00  0.00     0.070 C 
HETATM    2  C   UNL     1      26.816  45.230  51.300  1.00  0.00     0.203 C 
HETATM    3  N   UNL     1      26.459  43.987  50.613  1.00  0.00    -0.082 N 
HETATM    4  C   UNL     1      25.604  43.054  51.128  1.00  0.00     0.726 A 
HETATM    5  N   UNL     1      25.105  43.240  52.366  1.00  0.00    -0.192 N 
HETATM    6  N   UNL     1      26.972  43.592  49.434  1.00  0.00    -0.128 NA
HETATM    7  C   UNL     1      26.328  42.432  49.263  1.00  0.00     0.226 A 
HETATM    8  N   UNL     1      25.461  42.076  50.269  1.00  0.00    -0.035 NA
HETATM    9  C   UNL     1      25.603  44.206  53.243  1.00  0.00     0.037 C 
HETATM   10  C   UNL     1      25.100  44.106  54.663  1.00  0.00     0.070 C 
HETATM   11  H   UNL     1      24.558  42.485  52.776  1.00  0.00     0.184 HD
ENDROOT
BRANCH   7  12
HETATM   12  S   UNL     1      26.624  41.444  47.866  1.00  0.00    -0.083 SA
BRANCH  12  13
HETATM   13  C   UNL     1      27.983  40.439  48.515  1.00  0.00     0.121 C 
BRANCH  13  14
HETATM   14  C   UNL     1      27.660  38.967  48.432  1.00  0.00    -0.047 A 
HETATM   15  C   UNL     1      28.029  38.216  47.306  1.00  0.00     0.031 A 
HETATM   16  C   UNL     1      27.698  36.863  47.225  1.00  0.00     0.034 A 
HETATM   17 CL   UNL     1      28.160  35.952  45.840  1.00  0.00    -0.084 Cl
HETATM   18  C   UNL     1      26.995  36.243  48.256  1.00  0.00     0.024 A 
HETATM   19  C   UNL     1      26.617  36.982  49.376  1.00  0.00     0.002 A 
HETATM   20  C   UNL     1      26.946  38.336  49.464  1.00  0.00     0.008 A 
ENDBRANCH  13  14
ENDBRANCH  12  13
ENDBRANCH   7  12
BRANCH   2  21
HETATM   21  C   UNL     1      26.130  46.407  50.598  1.00  0.00    -0.028 A 
HETATM   22  C   UNL     1      26.907  47.367  49.927  1.00  0.00     0.011 A 
HETATM   23  C   UNL     1      26.303  48.453  49.287  1.00  0.00     0.024 A 
HETATM   24  C   UNL     1      24.918  48.589  49.309  1.00  0.00     0.034 A 
HETATM   25 CL   UNL     1      24.177  49.929  48.525  1.00  0.00    -0.084 Cl
HETATM   26  C   UNL     1      24.130  47.649  49.966  1.00  0.00     0.024 A 
HETATM   27  C   UNL     1      24.730  46.563  50.607  1.00  0.00     0.011 A 
ENDBRANCH   2  21
BRANCH   1  28
HETATM   28  C   UNL     1      27.228  46.145  53.595  1.00  0.00     0.293 C 
HETATM   29  O   UNL     1      28.151  45.831  54.333  1.00  0.00    -0.259 OA
BRANCH  28  30
HETATM   30  O   UNL     1      26.708  47.390  53.494  1.00  0.00    -0.318 OA
BRANCH  30  31
HETATM   31  C   UNL     1      25.806  47.782  54.542  1.00  0.00     0.174 C 
HETATM   32  C   UNL     1      26.536  48.577  55.607  1.00  0.00     0.034 C 
ENDBRANCH  30  31
ENDBRANCH  28  30
ENDBRANCH   1  28
TORSDOF 7
ENDMDL
