MODEL 1
REMARK VINA RESULT:      -9.1      0.000      0.000
REMARK  8 active torsions:
REMARK  status: ('A' for Active; 'I' for Inactive)
REMARK    1  A    between atoms: C_2  and  C_3 
REMARK    2  A    between atoms: C_3  and  C_4 
REMARK       I    between atoms: C_4  and  N_5 
REMARK    3  A    between atoms: N_8  and  C_9 
REMARK    4  A    between atoms: C_13  and  N_14 
REMARK    5  A    between atoms: N_14  and  C_15 
REMARK    6  A    between atoms: C_15  and  N_16 
REMARK       I    between atoms: N_16  and  C_17 
REMARK    7  A    between atoms: C_17  and  C_18 
REMARK    8  A    between atoms: C_19  and  O_20 
ROOT
HETATM    1  C   UNL     1      25.495  45.507  51.283  1.00  0.00     0.052 A 
HETATM    2  C   UNL     1      25.438  46.547  50.322  1.00  0.00     0.062 A 
HETATM    3 CL   UNL     1      26.486  47.931  50.397  1.00  0.00    -0.082 Cl
HETATM    4  C   UNL     1      24.458  46.569  49.312  1.00  0.00     0.055 A 
HETATM    5  C   UNL     1      23.463  45.596  49.283  1.00  0.00     0.036 A 
HETATM    6  C   UNL     1      23.532  44.538  50.183  1.00  0.00     0.032 A 
HETATM    7  C   UNL     1      24.534  44.492  51.157  1.00  0.00     0.033 A 
ENDROOT
BRANCH   5   8
HETATM    8  N   UNL     1      22.441  45.695  48.319  1.00  0.00    -0.333 N 
HETATM    9  H   UNL     1      22.728  45.711  47.339  1.00  0.00     0.168 HD
BRANCH   8  10
HETATM   10  C   UNL     1      21.120  46.027  48.515  1.00  0.00     0.179 C 
HETATM   11  S   UNL     1      19.765  45.061  48.312  1.00  0.00    -0.040 SA
BRANCH  10  12
HETATM   12  N   UNL     1      20.890  47.315  48.947  1.00  0.00    -0.299 N 
HETATM   13  C   UNL     1      21.191  48.513  48.320  1.00  0.00     0.260 C 
HETATM   14  O   UNL     1      22.108  48.626  47.511  1.00  0.00    -0.267 OA
HETATM   15  H   UNL     1      20.226  47.358  49.712  1.00  0.00     0.171 HD
BRANCH  13  16
HETATM   16  C   UNL     1      20.363  49.702  48.718  1.00  0.00     0.065 A 
HETATM   17  C   UNL     1      19.211  49.630  49.528  1.00  0.00     0.084 A 
HETATM   18  C   UNL     1      18.497  50.796  49.836  1.00  0.00     0.038 A 
HETATM   19  C   UNL     1      18.890  52.024  49.307  1.00  0.00     0.003 A 
HETATM   20  C   UNL     1      20.009  52.100  48.484  1.00  0.00     0.001 A 
HETATM   21  C   UNL     1      20.744  50.949  48.194  1.00  0.00     0.020 A 
BRANCH  17  22
HETATM   22  O   UNL     1      18.839  48.429  50.078  1.00  0.00    -0.355 OA
HETATM   23  C   UNL     1      18.534  48.511  51.473  1.00  0.00     0.210 C 
ENDBRANCH  17  22
ENDBRANCH  13  16
ENDBRANCH  10  12
ENDBRANCH   8  10
ENDBRANCH   5   8
BRANCH   1  24
HETATM   24  N   UNL     1      26.405  45.512  52.351  1.00  0.00    -0.376 N 
HETATM   25  C   UNL     1      27.061  44.225  52.665  1.00  0.00     0.143 C 
HETATM   26  C   UNL     1      28.346  44.489  53.480  1.00  0.00     0.145 C 
HETATM   27  N   UNL     1      28.122  45.342  54.661  1.00  0.00    -0.349 N 
HETATM   28  C   UNL     1      29.009  45.424  55.731  1.00  0.00     0.219 C 
HETATM   29  C   UNL     1      27.278  46.522  54.432  1.00  0.00     0.145 C 
HETATM   30  O   UNL     1      28.890  46.281  56.609  1.00  0.00    -0.273 OA
HETATM   31  C   UNL     1      26.032  46.242  53.582  1.00  0.00     0.143 C 
BRANCH  28  32
HETATM   32  C   UNL     1      30.137  44.404  55.774  1.00  0.00     0.103 C 
BRANCH  32  33
HETATM   33  C   UNL     1      30.876  44.429  57.112  1.00  0.00     0.005 C 
HETATM   34  C   UNL     1      31.934  43.341  57.191  1.00  0.00     0.005 C 
ENDBRANCH  32  33
ENDBRANCH  28  32
ENDBRANCH   1  24
TORSDOF 8
ENDMDL
MODEL 2
REMARK VINA RESULT:      -9.0      2.291      2.699
REMARK  8 active torsions:
REMARK  status: ('A' for Active; 'I' for Inactive)
REMARK    1  A    between atoms: C_2  and  C_3 
REMARK    2  A    between atoms: C_3  and  C_4 
REMARK       I    between atoms: C_4  and  N_5 
REMARK    3  A    between atoms: N_8  and  C_9 
REMARK    4  A    between atoms: C_13  and  N_14 
REMARK    5  A    between atoms: N_14  and  C_15 
REMARK    6  A    between atoms: C_15  and  N_16 
REMARK       I    between atoms: N_16  and  C_17 
REMARK    7  A    between atoms: C_17  and  C_18 
REMARK    8  A    between atoms: C_19  and  O_20 
ROOT
HETATM    1  C   UNL     1      25.687  45.635  51.149  1.00  0.00     0.052 A 
HETATM    2  C   UNL     1      24.681  44.953  50.421  1.00  0.00     0.062 A 
HETATM    3 CL   UNL     1      24.605  43.217  50.357  1.00  0.00    -0.082 Cl
HETATM    4  C   UNL     1      23.750  45.640  49.621  1.00  0.00     0.055 A 
HETATM    5  C   UNL     1      23.846  47.020  49.467  1.00  0.00     0.036 A 
HETATM    6  C   UNL     1      24.791  47.715  50.214  1.00  0.00     0.032 A 
HETATM    7  C   UNL     1      25.686  47.035  51.045  1.00  0.00     0.033 A 
ENDROOT
BRANCH   5   8
HETATM    8  N   UNL     1      22.960  47.672  48.587  1.00  0.00    -0.333 N 
HETATM    9  H   UNL     1      22.553  47.109  47.839  1.00  0.00     0.168 HD
BRANCH   8  10
HETATM   10  C   UNL     1      22.756  49.025  48.438  1.00  0.00     0.179 C 
HETATM   11  S   UNL     1      23.821  50.177  47.848  1.00  0.00    -0.040 SA
BRANCH  10  12
HETATM   12  N   UNL     1      21.510  49.481  48.809  1.00  0.00    -0.299 N 
HETATM   13  C   UNL     1      21.181  50.517  49.667  1.00  0.00     0.260 C 
HETATM   14  O   UNL     1      21.920  50.889  50.575  1.00  0.00    -0.267 OA
HETATM   15  H   UNL     1      20.773  49.145  48.200  1.00  0.00     0.171 HD
BRANCH  13  16
HETATM   16  C   UNL     1      19.832  51.148  49.466  1.00  0.00     0.065 A 
HETATM   17  C   UNL     1      18.662  50.753  50.147  1.00  0.00     0.084 A 
HETATM   18  C   UNL     1      17.446  51.395  49.884  1.00  0.00     0.038 A 
HETATM   19  C   UNL     1      17.371  52.394  48.914  1.00  0.00     0.003 A 
HETATM   20  C   UNL     1      18.515  52.772  48.216  1.00  0.00     0.001 A 
HETATM   21  C   UNL     1      19.737  52.157  48.492  1.00  0.00     0.020 A 
BRANCH  17  22
HETATM   22  O   UNL     1      18.737  49.792  51.126  1.00  0.00    -0.355 OA
HETATM   23  C   UNL     1      18.452  48.473  50.652  1.00  0.00     0.210 C 
ENDBRANCH  17  22
ENDBRANCH  13  16
ENDBRANCH  10  12
ENDBRANCH   8  10
ENDBRANCH   5   8
BRANCH   1  24
HETATM   24  N   UNL     1      26.680  44.965  51.879  1.00  0.00    -0.376 N 
HETATM   25  C   UNL     1      27.081  45.577  53.164  1.00  0.00     0.143 C 
HETATM   26  C   UNL     1      27.769  44.513  54.046  1.00  0.00     0.145 C 
HETATM   27  N   UNL     1      28.866  43.807  53.360  1.00  0.00    -0.349 N 
HETATM   28  C   UNL     1      29.855  43.088  54.027  1.00  0.00     0.219 C 
HETATM   29  C   UNL     1      28.575  43.380  51.985  1.00  0.00     0.145 C 
HETATM   30  O   UNL     1      30.643  42.357  53.423  1.00  0.00    -0.273 OA
HETATM   31  C   UNL     1      27.850  44.439  51.144  1.00  0.00     0.143 C 
BRANCH  28  32
HETATM   32  C   UNL     1      29.924  43.245  55.538  1.00  0.00     0.103 C 
BRANCH  32  33
HETATM   33  C   UNL     1      31.224  43.919  55.980  1.00  0.00     0.005 C 
HETATM   34  C   UNL     1      31.837  43.222  57.183  1.00  0.00     0.005 C 
ENDBRANCH  32  33
ENDBRANCH  28  32
ENDBRANCH   1  24
TORSDOF 8
ENDMDL
MODEL 3
REMARK VINA RESULT:      -8.7      1.257      2.084
REMARK  8 active torsions:
REMARK  status: ('A' for Active; 'I' for Inactive)
REMARK    1  A    between atoms: C_2  and  C_3 
REMARK    2  A    between atoms: C_3  and  C_4 
REMARK       I    between atoms: C_4  and  N_5 
REMARK    3  A    between atoms: N_8  and  C_9 
REMARK    4  A    between atoms: C_13  and  N_14 
REMARK    5  A    between atoms: N_14  and  C_15 
REMARK    6  A    between atoms: C_15  and  N_16 
REMARK       I    between atoms: N_16  and  C_17 
REMARK    7  A    between atoms: C_17  and  C_18 
REMARK    8  A    between atoms: C_19  and  O_20 
ROOT
HETATM    1  C   UNL     1      25.294  44.963  51.284  1.00  0.00     0.052 A 
HETATM    2  C   UNL     1      25.030  46.022  50.380  1.00  0.00     0.062 A 
HETATM    3 CL   UNL     1      25.863  47.544  50.474  1.00  0.00    -0.082 Cl
HETATM    4  C   UNL     1      24.003  45.939  49.422  1.00  0.00     0.055 A 
HETATM    5  C   UNL     1      23.163  44.830  49.392  1.00  0.00     0.036 A 
HETATM    6  C   UNL     1      23.438  43.756  50.233  1.00  0.00     0.032 A 
HETATM    7  C   UNL     1      24.488  43.820  51.153  1.00  0.00     0.033 A 
ENDROOT
BRANCH   5   8
HETATM    8  N   UNL     1      22.085  44.814  48.485  1.00  0.00    -0.333 N 
HETATM    9  H   UNL     1      21.350  44.126  48.652  1.00  0.00     0.168 HD
BRANCH   8  10
HETATM   10  C   UNL     1      22.003  45.427  47.255  1.00  0.00     0.179 C 
HETATM   11  S   UNL     1      22.448  44.816  45.759  1.00  0.00    -0.040 SA
BRANCH  10  12
HETATM   12  N   UNL     1      21.474  46.698  47.261  1.00  0.00    -0.299 N 
HETATM   13  C   UNL     1      20.640  47.293  48.194  1.00  0.00     0.260 C 
HETATM   14  O   UNL     1      19.880  46.648  48.911  1.00  0.00    -0.267 OA
HETATM   15  H   UNL     1      21.942  47.320  46.611  1.00  0.00     0.171 HD
BRANCH  13  16
HETATM   16  C   UNL     1      20.671  48.794  48.257  1.00  0.00     0.065 A 
HETATM   17  C   UNL     1      21.836  49.571  48.097  1.00  0.00     0.084 A 
HETATM   18  C   UNL     1      21.767  50.967  48.184  1.00  0.00     0.038 A 
HETATM   19  C   UNL     1      20.557  51.595  48.476  1.00  0.00     0.003 A 
HETATM   20  C   UNL     1      19.406  50.836  48.663  1.00  0.00     0.001 A 
HETATM   21  C   UNL     1      19.461  49.445  48.551  1.00  0.00     0.020 A 
BRANCH  17  22
HETATM   22  O   UNL     1      23.023  48.959  47.777  1.00  0.00    -0.355 OA
HETATM   23  C   UNL     1      24.176  49.705  48.181  1.00  0.00     0.210 C 
ENDBRANCH  17  22
ENDBRANCH  13  16
ENDBRANCH  10  12
ENDBRANCH   8  10
ENDBRANCH   5   8
BRANCH   1  24
HETATM   24  N   UNL     1      26.251  45.060  52.305  1.00  0.00    -0.376 N 
HETATM   25  C   UNL     1      27.022  43.835  52.605  1.00  0.00     0.143 C 
HETATM   26  C   UNL     1      28.319  44.214  53.351  1.00  0.00     0.145 C 
HETATM   27  N   UNL     1      28.085  45.069  54.529  1.00  0.00    -0.349 N 
HETATM   28  C   UNL     1      29.014  45.240  55.553  1.00  0.00     0.219 C 
HETATM   29  C   UNL     1      27.140  46.175  54.325  1.00  0.00     0.145 C 
HETATM   30  O   UNL     1      28.869  46.102  56.422  1.00  0.00    -0.273 OA
HETATM   31  C   UNL     1      25.881  45.781  53.542  1.00  0.00     0.143 C 
BRANCH  28  32
HETATM   32  C   UNL     1      30.220  44.314  55.554  1.00  0.00     0.103 C 
BRANCH  32  33
HETATM   33  C   UNL     1      30.997  44.394  56.869  1.00  0.00     0.005 C 
HETATM   34  C   UNL     1      31.776  43.118  57.141  1.00  0.00     0.005 C 
ENDBRANCH  32  33
ENDBRANCH  28  32
ENDBRANCH   1  24
TORSDOF 8
ENDMDL
MODEL 4
REMARK VINA RESULT:      -8.7      1.641      2.052
REMARK  8 active torsions:
REMARK  status: ('A' for Active; 'I' for Inactive)
REMARK    1  A    between atoms: C_2  and  C_3 
REMARK    2  A    between atoms: C_3  and  C_4 
REMARK       I    between atoms: C_4  and  N_5 
REMARK    3  A    between atoms: N_8  and  C_9 
REMARK    4  A    between atoms: C_13  and  N_14 
REMARK    5  A    between atoms: N_14  and  C_15 
REMARK    6  A    between atoms: C_15  and  N_16 
REMARK       I    between atoms: N_16  and  C_17 
REMARK    7  A    between atoms: C_17  and  C_18 
REMARK    8  A    between atoms: C_19  and  O_20 
ROOT
HETATM    1  C   UNL     1      25.262  45.156  50.998  1.00  0.00     0.052 A 
HETATM    2  C   UNL     1      24.314  44.264  50.437  1.00  0.00     0.062 A 
HETATM    3 CL   UNL     1      24.407  42.546  50.684  1.00  0.00    -0.082 Cl
HETATM    4  C   UNL     1      23.306  44.708  49.562  1.00  0.00     0.055 A 
HETATM    5  C   UNL     1      23.264  46.041  49.163  1.00  0.00     0.036 A 
HETATM    6  C   UNL     1      24.151  46.943  49.741  1.00  0.00     0.032 A 
HETATM    7  C   UNL     1      25.123  46.509  50.647  1.00  0.00     0.033 A 
ENDROOT
BRANCH   5   8
HETATM    8  N   UNL     1      22.303  46.439  48.214  1.00  0.00    -0.333 N 
HETATM    9  H   UNL     1      22.651  46.819  47.333  1.00  0.00     0.168 HD
BRANCH   8  10
HETATM   10  C   UNL     1      20.952  46.624  48.402  1.00  0.00     0.179 C 
HETATM   11  S   UNL     1      19.707  45.535  48.130  1.00  0.00    -0.040 SA
BRANCH  10  12
HETATM   12  N   UNL     1      20.585  47.859  48.890  1.00  0.00    -0.299 N 
HETATM   13  C   UNL     1      21.021  49.115  48.502  1.00  0.00     0.260 C 
HETATM   14  O   UNL     1      22.123  49.308  47.993  1.00  0.00    -0.267 OA
HETATM   15  H   UNL     1      19.736  47.825  49.442  1.00  0.00     0.171 HD
BRANCH  13  16
HETATM   16  C   UNL     1      20.091  50.261  48.781  1.00  0.00     0.065 A 
HETATM   17  C   UNL     1      19.353  50.411  49.973  1.00  0.00     0.084 A 
HETATM   18  C   UNL     1      18.501  51.511  50.138  1.00  0.00     0.038 A 
HETATM   19  C   UNL     1      18.338  52.436  49.109  1.00  0.00     0.003 A 
HETATM   20  C   UNL     1      19.041  52.282  47.917  1.00  0.00     0.001 A 
HETATM   21  C   UNL     1      19.914  51.205  47.755  1.00  0.00     0.020 A 
BRANCH  17  22
HETATM   22  O   UNL     1      19.534  49.520  51.002  1.00  0.00    -0.355 OA
HETATM   23  C   UNL     1      18.412  48.658  51.213  1.00  0.00     0.210 C 
ENDBRANCH  17  22
ENDBRANCH  13  16
ENDBRANCH  10  12
ENDBRANCH   8  10
ENDBRANCH   5   8
BRANCH   1  24
HETATM   24  N   UNL     1      26.329  44.723  51.799  1.00  0.00    -0.376 N 
HETATM   25  C   UNL     1      26.683  45.583  52.947  1.00  0.00     0.143 C 
HETATM   26  C   UNL     1      27.490  44.760  53.975  1.00  0.00     0.145 C 
HETATM   27  N   UNL     1      28.643  44.058  53.384  1.00  0.00    -0.349 N 
HETATM   28  C   UNL     1      29.710  43.566  54.132  1.00  0.00     0.219 C 
HETATM   29  C   UNL     1      28.377  43.373  52.112  1.00  0.00     0.145 C 
HETATM   30  O   UNL     1      30.560  42.822  53.637  1.00  0.00    -0.273 OA
HETATM   31  C   UNL     1      27.536  44.195  51.127  1.00  0.00     0.143 C 
BRANCH  28  32
HETATM   32  C   UNL     1      29.785  43.987  55.591  1.00  0.00     0.103 C 
BRANCH  32  33
HETATM   33  C   UNL     1      31.227  44.222  56.042  1.00  0.00     0.005 C 
HETATM   34  C   UNL     1      31.648  43.233  57.116  1.00  0.00     0.005 C 
ENDBRANCH  32  33
ENDBRANCH  28  32
ENDBRANCH   1  24
TORSDOF 8
ENDMDL
MODEL 5
REMARK VINA RESULT:      -8.5      2.436     10.187
REMARK  8 active torsions:
REMARK  status: ('A' for Active; 'I' for Inactive)
REMARK    1  A    between atoms: C_2  and  C_3 
REMARK    2  A    between atoms: C_3  and  C_4 
REMARK       I    between atoms: C_4  and  N_5 
REMARK    3  A    between atoms: N_8  and  C_9 
REMARK    4  A    between atoms: C_13  and  N_14 
REMARK    5  A    between atoms: N_14  and  C_15 
REMARK    6  A    between atoms: C_15  and  N_16 
REMARK       I    between atoms: N_16  and  C_17 
REMARK    7  A    between atoms: C_17  and  C_18 
REMARK    8  A    between atoms: C_19  and  O_20 
ROOT
HETATM    1  C   UNL     1      24.343  46.668  49.453  1.00  0.00     0.052 A 
HETATM    2  C   UNL     1      25.706  47.021  49.609  1.00  0.00     0.062 A 
HETATM    3 CL   UNL     1      26.295  48.614  49.239  1.00  0.00    -0.082 Cl
HETATM    4  C   UNL     1      26.680  46.073  49.972  1.00  0.00     0.055 A 
HETATM    5  C   UNL     1      26.332  44.733  50.113  1.00  0.00     0.036 A 
HETATM    6  C   UNL     1      24.992  44.373  50.017  1.00  0.00     0.032 A 
HETATM    7  C   UNL     1      24.017  45.325  49.702  1.00  0.00     0.033 A 
ENDROOT
BRANCH   5   8
HETATM    8  N   UNL     1      27.343  43.790  50.385  1.00  0.00    -0.333 N 
HETATM    9  H   UNL     1      28.119  43.740  49.724  1.00  0.00     0.168 HD
BRANCH   8  10
HETATM   10  C   UNL     1      27.311  42.748  51.284  1.00  0.00     0.179 C 
HETATM   11  S   UNL     1      26.827  41.165  51.020  1.00  0.00    -0.040 SA
BRANCH  10  12
HETATM   12  N   UNL     1      27.745  43.048  52.555  1.00  0.00    -0.299 N 
HETATM   13  C   UNL     1      29.027  42.988  53.077  1.00  0.00     0.260 C 
HETATM   14  O   UNL     1      29.889  42.232  52.635  1.00  0.00    -0.267 OA
HETATM   15  H   UNL     1      27.065  43.581  53.086  1.00  0.00     0.171 HD
BRANCH  13  16
HETATM   16  C   UNL     1      29.309  43.869  54.261  1.00  0.00     0.065 A 
HETATM   17  C   UNL     1      28.619  45.066  54.540  1.00  0.00     0.084 A 
HETATM   18  C   UNL     1      28.962  45.827  55.666  1.00  0.00     0.038 A 
HETATM   19  C   UNL     1      30.017  45.435  56.487  1.00  0.00     0.003 A 
HETATM   20  C   UNL     1      30.723  44.270  56.203  1.00  0.00     0.001 A 
HETATM   21  C   UNL     1      30.370  43.489  55.101  1.00  0.00     0.020 A 
BRANCH  17  22
HETATM   22  O   UNL     1      27.558  45.440  53.753  1.00  0.00    -0.355 OA
HETATM   23  C   UNL     1      26.530  46.128  54.472  1.00  0.00     0.210 C 
ENDBRANCH  17  22
ENDBRANCH  13  16
ENDBRANCH  10  12
ENDBRANCH   8  10
ENDBRANCH   5   8
BRANCH   1  24
HETATM   24  N   UNL     1      23.372  47.576  49.004  1.00  0.00    -0.376 N 
HETATM   25  C   UNL     1      23.051  48.699  49.909  1.00  0.00     0.143 C 
HETATM   26  C   UNL     1      22.383  49.834  49.102  1.00  0.00     0.145 C 
HETATM   27  N   UNL     1      21.237  49.378  48.294  1.00  0.00    -0.349 N 
HETATM   28  C   UNL     1      20.266  50.236  47.783  1.00  0.00     0.219 C 
HETATM   29  C   UNL     1      21.449  48.128  47.551  1.00  0.00     0.145 C 
HETATM   30  O   UNL     1      19.431  49.853  46.960  1.00  0.00    -0.273 OA
HETATM   31  C   UNL     1      22.155  47.034  48.362  1.00  0.00     0.143 C 
BRANCH  28  32
HETATM   32  C   UNL     1      20.276  51.671  48.287  1.00  0.00     0.103 C 
BRANCH  32  33
HETATM   33  C   UNL     1      19.358  51.854  49.497  1.00  0.00     0.005 C 
HETATM   34  C   UNL     1      18.067  52.561  49.120  1.00  0.00     0.005 C 
ENDBRANCH  32  33
ENDBRANCH  28  32
ENDBRANCH   1  24
TORSDOF 8
ENDMDL
MODEL 6
REMARK VINA RESULT:      -8.3      3.002     10.177
REMARK  8 active torsions:
REMARK  status: ('A' for Active; 'I' for Inactive)
REMARK    1  A    between atoms: C_2  and  C_3 
REMARK    2  A    between atoms: C_3  and  C_4 
REMARK       I    between atoms: C_4  and  N_5 
REMARK    3  A    between atoms: N_8  and  C_9 
REMARK    4  A    between atoms: C_13  and  N_14 
REMARK    5  A    between atoms: N_14  and  C_15 
REMARK    6  A    between atoms: C_15  and  N_16 
REMARK       I    between atoms: N_16  and  C_17 
REMARK    7  A    between atoms: C_17  and  C_18 
REMARK    8  A    between atoms: C_19  and  O_20 
ROOT
HETATM    1  C   UNL     1      23.534  44.942  49.194  1.00  0.00     0.052 A 
HETATM    2  C   UNL     1      23.887  43.838  48.380  1.00  0.00     0.062 A 
HETATM    3 CL   UNL     1      23.343  43.693  46.736  1.00  0.00    -0.082 Cl
HETATM    4  C   UNL     1      24.611  42.743  48.888  1.00  0.00     0.055 A 
HETATM    5  C   UNL     1      24.934  42.687  50.241  1.00  0.00     0.036 A 
HETATM    6  C   UNL     1      24.644  43.784  51.047  1.00  0.00     0.032 A 
HETATM    7  C   UNL     1      23.966  44.892  50.529  1.00  0.00     0.033 A 
ENDROOT
BRANCH   5   8
HETATM    8  N   UNL     1      25.576  41.538  50.742  1.00  0.00    -0.333 N 
HETATM    9  H   UNL     1      24.982  40.742  50.978  1.00  0.00     0.168 HD
BRANCH   8  10
HETATM   10  C   UNL     1      26.869  41.421  51.199  1.00  0.00     0.179 C 
HETATM   11  S   UNL     1      28.132  40.546  50.528  1.00  0.00    -0.040 SA
BRANCH  10  12
HETATM   12  N   UNL     1      27.159  42.126  52.346  1.00  0.00    -0.299 N 
HETATM   13  C   UNL     1      28.023  41.797  53.378  1.00  0.00     0.260 C 
HETATM   14  O   UNL     1      28.312  40.636  53.657  1.00  0.00    -0.267 OA
HETATM   15  H   UNL     1      26.860  43.093  52.297  1.00  0.00     0.171 HD
BRANCH  13  16
HETATM   16  C   UNL     1      28.563  42.941  54.188  1.00  0.00     0.065 A 
HETATM   17  C   UNL     1      27.839  44.114  54.483  1.00  0.00     0.084 A 
HETATM   18  C   UNL     1      28.433  45.134  55.239  1.00  0.00     0.038 A 
HETATM   19  C   UNL     1      29.755  45.018  55.662  1.00  0.00     0.003 A 
HETATM   20  C   UNL     1      30.488  43.876  55.352  1.00  0.00     0.001 A 
HETATM   21  C   UNL     1      29.895  42.843  54.623  1.00  0.00     0.020 A 
BRANCH  17  22
HETATM   22  O   UNL     1      26.525  44.219  54.097  1.00  0.00    -0.355 OA
HETATM   23  C   UNL     1      26.033  45.563  54.112  1.00  0.00     0.210 C 
ENDBRANCH  17  22
ENDBRANCH  13  16
ENDBRANCH  10  12
ENDBRANCH   8  10
ENDBRANCH   5   8
BRANCH   1  24
HETATM   24  N   UNL     1      22.736  45.999  48.732  1.00  0.00    -0.376 N 
HETATM   25  C   UNL     1      23.093  47.352  49.209  1.00  0.00     0.143 C 
HETATM   26  C   UNL     1      22.484  48.408  48.261  1.00  0.00     0.145 C 
HETATM   27  N   UNL     1      21.039  48.223  48.035  1.00  0.00    -0.349 N 
HETATM   28  C   UNL     1      20.204  49.220  47.537  1.00  0.00     0.219 C 
HETATM   29  C   UNL     1      20.615  46.840  47.780  1.00  0.00     0.145 C 
HETATM   30  O   UNL     1      19.047  48.980  47.182  1.00  0.00    -0.273 OA
HETATM   31  C   UNL     1      21.270  45.807  48.705  1.00  0.00     0.143 C 
BRANCH  28  32
HETATM   32  C   UNL     1      20.780  50.625  47.449  1.00  0.00     0.103 C 
BRANCH  32  33
HETATM   33  C   UNL     1      20.425  51.462  48.680  1.00  0.00     0.005 C 
HETATM   34  C   UNL     1      19.212  52.342  48.430  1.00  0.00     0.005 C 
ENDBRANCH  32  33
ENDBRANCH  28  32
ENDBRANCH   1  24
TORSDOF 8
ENDMDL
MODEL 7
REMARK VINA RESULT:      -8.1      2.226      3.089
REMARK  8 active torsions:
REMARK  status: ('A' for Active; 'I' for Inactive)
REMARK    1  A    between atoms: C_2  and  C_3 
REMARK    2  A    between atoms: C_3  and  C_4 
REMARK       I    between atoms: C_4  and  N_5 
REMARK    3  A    between atoms: N_8  and  C_9 
REMARK    4  A    between atoms: C_13  and  N_14 
REMARK    5  A    between atoms: N_14  and  C_15 
REMARK    6  A    between atoms: C_15  and  N_16 
REMARK       I    between atoms: N_16  and  C_17 
REMARK    7  A    between atoms: C_17  and  C_18 
REMARK    8  A    between atoms: C_19  and  O_20 
ROOT
HETATM    1  C   UNL     1      25.061  43.981  50.797  1.00  0.00     0.052 A 
HETATM    2  C   UNL     1      24.394  42.922  50.133  1.00  0.00     0.062 A 
HETATM    3 CL   UNL     1      24.966  41.282  50.209  1.00  0.00    -0.082 Cl
HETATM    4  C   UNL     1      23.294  43.152  49.288  1.00  0.00     0.055 A 
HETATM    5  C   UNL     1      22.877  44.454  49.023  1.00  0.00     0.036 A 
HETATM    6  C   UNL     1      23.482  45.505  49.705  1.00  0.00     0.032 A 
HETATM    7  C   UNL     1      24.546  45.270  50.581  1.00  0.00     0.033 A 
ENDROOT
BRANCH   5   8
HETATM    8  N   UNL     1      21.833  44.661  48.101  1.00  0.00    -0.333 N 
HETATM    9  H   UNL     1      21.005  44.073  48.199  1.00  0.00     0.168 HD
BRANCH   8  10
HETATM   10  C   UNL     1      21.871  45.375  46.924  1.00  0.00     0.179 C 
HETATM   11  S   UNL     1      22.391  44.861  45.415  1.00  0.00    -0.040 SA
BRANCH  10  12
HETATM   12  N   UNL     1      21.409  46.670  47.000  1.00  0.00    -0.299 N 
HETATM   13  C   UNL     1      20.584  47.247  47.951  1.00  0.00     0.260 C 
HETATM   14  O   UNL     1      19.773  46.600  48.609  1.00  0.00    -0.267 OA
HETATM   15  H   UNL     1      21.925  47.305  46.402  1.00  0.00     0.171 HD
BRANCH  13  16
HETATM   16  C   UNL     1      20.691  48.737  48.113  1.00  0.00     0.065 A 
HETATM   17  C   UNL     1      21.905  49.454  48.077  1.00  0.00     0.084 A 
HETATM   18  C   UNL     1      21.904  50.844  48.249  1.00  0.00     0.038 A 
HETATM   19  C   UNL     1      20.714  51.522  48.504  1.00  0.00     0.003 A 
HETATM   20  C   UNL     1      19.514  50.821  48.569  1.00  0.00     0.001 A 
HETATM   21  C   UNL     1      19.501  49.439  48.371  1.00  0.00     0.020 A 
BRANCH  17  22
HETATM   22  O   UNL     1      23.076  48.795  47.794  1.00  0.00    -0.355 OA
HETATM   23  C   UNL     1      24.115  49.047  48.744  1.00  0.00     0.210 C 
ENDBRANCH  17  22
ENDBRANCH  13  16
ENDBRANCH  10  12
ENDBRANCH   8  10
ENDBRANCH   5   8
BRANCH   1  24
HETATM   24  N   UNL     1      26.214  43.784  51.571  1.00  0.00    -0.376 N 
HETATM   25  C   UNL     1      26.481  44.786  52.624  1.00  0.00     0.143 C 
HETATM   26  C   UNL     1      27.446  44.187  53.670  1.00  0.00     0.145 C 
HETATM   27  N   UNL     1      28.667  43.615  53.075  1.00  0.00    -0.349 N 
HETATM   28  C   UNL     1      29.828  43.355  53.801  1.00  0.00     0.219 C 
HETATM   29  C   UNL     1      28.456  42.788  51.880  1.00  0.00     0.145 C 
HETATM   30  O   UNL     1      30.760  42.706  53.322  1.00  0.00    -0.273 OA
HETATM   31  C   UNL     1      27.458  43.385  50.879  1.00  0.00     0.143 C 
BRANCH  28  32
HETATM   32  C   UNL     1      29.899  43.910  55.215  1.00  0.00     0.103 C 
BRANCH  32  33
HETATM   33  C   UNL     1      31.000  43.237  56.035  1.00  0.00     0.005 C 
HETATM   34  C   UNL     1      31.313  44.016  57.302  1.00  0.00     0.005 C 
ENDBRANCH  32  33
ENDBRANCH  28  32
ENDBRANCH   1  24
TORSDOF 8
ENDMDL
MODEL 8
REMARK VINA RESULT:      -7.9      5.889      9.856
REMARK  8 active torsions:
REMARK  status: ('A' for Active; 'I' for Inactive)
REMARK    1  A    between atoms: C_2  and  C_3 
REMARK    2  A    between atoms: C_3  and  C_4 
REMARK       I    between atoms: C_4  and  N_5 
REMARK    3  A    between atoms: N_8  and  C_9 
REMARK    4  A    between atoms: C_13  and  N_14 
REMARK    5  A    between atoms: N_14  and  C_15 
REMARK    6  A    between atoms: C_15  and  N_16 
REMARK       I    between atoms: N_16  and  C_17 
REMARK    7  A    between atoms: C_17  and  C_18 
REMARK    8  A    between atoms: C_19  and  O_20 
ROOT
HETATM    1  C   UNL     1      25.996  43.923  51.595  1.00  0.00     0.052 A 
HETATM    2  C   UNL     1      26.346  45.203  51.099  1.00  0.00     0.062 A 
HETATM    3 CL   UNL     1      27.105  45.415  49.549  1.00  0.00    -0.082 Cl
HETATM    4  C   UNL     1      26.197  46.366  51.876  1.00  0.00     0.055 A 
HETATM    5  C   UNL     1      25.767  46.273  53.197  1.00  0.00     0.036 A 
HETATM    6  C   UNL     1      25.367  45.034  53.687  1.00  0.00     0.032 A 
HETATM    7  C   UNL     1      25.471  43.886  52.897  1.00  0.00     0.033 A 
ENDROOT
BRANCH   5   8
HETATM    8  N   UNL     1      25.716  47.442  53.982  1.00  0.00    -0.333 N 
HETATM    9  H   UNL     1      25.024  48.146  53.720  1.00  0.00     0.168 HD
BRANCH   8  10
HETATM   10  C   UNL     1      26.638  47.885  54.903  1.00  0.00     0.179 C 
HETATM   11  S   UNL     1      26.532  49.212  55.921  1.00  0.00    -0.040 SA
BRANCH  10  12
HETATM   12  N   UNL     1      27.784  47.129  55.005  1.00  0.00    -0.299 N 
HETATM   13  C   UNL     1      28.214  46.332  56.053  1.00  0.00     0.260 C 
HETATM   14  O   UNL     1      27.881  46.531  57.219  1.00  0.00    -0.267 OA
HETATM   15  H   UNL     1      28.238  46.984  54.110  1.00  0.00     0.171 HD
BRANCH  13  16
HETATM   16  C   UNL     1      29.164  45.222  55.703  1.00  0.00     0.065 A 
HETATM   17  C   UNL     1      30.411  45.020  56.328  1.00  0.00     0.084 A 
HETATM   18  C   UNL     1      31.235  43.960  55.925  1.00  0.00     0.038 A 
HETATM   19  C   UNL     1      30.851  43.131  54.872  1.00  0.00     0.003 A 
HETATM   20  C   UNL     1      29.635  43.341  54.229  1.00  0.00     0.001 A 
HETATM   21  C   UNL     1      28.795  44.376  54.644  1.00  0.00     0.020 A 
BRANCH  17  22
HETATM   22  O   UNL     1      30.779  45.813  57.387  1.00  0.00    -0.355 OA
HETATM   23  C   UNL     1      30.798  45.120  58.639  1.00  0.00     0.210 C 
ENDBRANCH  17  22
ENDBRANCH  13  16
ENDBRANCH  10  12
ENDBRANCH   8  10
ENDBRANCH   5   8
BRANCH   1  24
HETATM   24  N   UNL     1      26.221  42.742  50.872  1.00  0.00    -0.376 N 
HETATM   25  C   UNL     1      25.083  42.225  50.084  1.00  0.00     0.143 C 
HETATM   26  C   UNL     1      25.608  41.264  48.995  1.00  0.00     0.145 C 
HETATM   27  N   UNL     1      26.488  40.207  49.526  1.00  0.00    -0.349 N 
HETATM   28  C   UNL     1      26.785  39.034  48.837  1.00  0.00     0.219 C 
HETATM   29  C   UNL     1      27.495  40.657  50.496  1.00  0.00     0.145 C 
HETATM   30  O   UNL     1      27.666  38.262  49.220  1.00  0.00    -0.273 OA
HETATM   31  C   UNL     1      26.958  41.647  51.538  1.00  0.00     0.143 C 
BRANCH  28  32
HETATM   32  C   UNL     1      25.970  38.741  47.586  1.00  0.00     0.103 C 
BRANCH  32  33
HETATM   33  C   UNL     1      26.831  38.790  46.323  1.00  0.00     0.005 C 
HETATM   34  C   UNL     1      26.520  40.014  45.478  1.00  0.00     0.005 C 
ENDBRANCH  32  33
ENDBRANCH  28  32
ENDBRANCH   1  24
TORSDOF 8
ENDMDL
MODEL 9
REMARK VINA RESULT:      -7.9      2.358      2.954
REMARK  8 active torsions:
REMARK  status: ('A' for Active; 'I' for Inactive)
REMARK    1  A    between atoms: C_2  and  C_3 
REMARK    2  A    between atoms: C_3  and  C_4 
REMARK       I    between atoms: C_4  and  N_5 
REMARK    3  A    between atoms: N_8  and  C_9 
REMARK    4  A    between atoms: C_13  and  N_14 
REMARK    5  A    between atoms: N_14  and  C_15 
REMARK    6  A    between atoms: C_15  and  N_16 
REMARK       I    between atoms: N_16  and  C_17 
REMARK    7  A    between atoms: C_17  and  C_18 
REMARK    8  A    between atoms: C_19  and  O_20 
ROOT
HETATM    1  C   UNL     1      24.591  44.927  49.397  1.00  0.00     0.052 A 
HETATM    2  C   UNL     1      24.145  46.248  49.653  1.00  0.00     0.062 A 
HETATM    3 CL   UNL     1      24.764  47.190  50.976  1.00  0.00    -0.082 Cl
HETATM    4  C   UNL     1      23.100  46.834  48.915  1.00  0.00     0.055 A 
HETATM    5  C   UNL     1      22.421  46.089  47.955  1.00  0.00     0.036 A 
HETATM    6  C   UNL     1      22.876  44.810  47.650  1.00  0.00     0.032 A 
HETATM    7  C   UNL     1      23.946  44.246  48.352  1.00  0.00     0.033 A 
ENDROOT
BRANCH   5   8
HETATM    8  N   UNL     1      21.319  46.669  47.297  1.00  0.00    -0.333 N 
HETATM    9  H   UNL     1      21.523  47.328  46.544  1.00  0.00     0.168 HD
BRANCH   8  10
HETATM   10  C   UNL     1      20.000  46.666  47.690  1.00  0.00     0.179 C 
HETATM   11  S   UNL     1      18.854  45.462  47.473  1.00  0.00    -0.040 SA
BRANCH  10  12
HETATM   12  N   UNL     1      19.578  47.794  48.358  1.00  0.00    -0.299 N 
HETATM   13  C   UNL     1      19.855  49.124  48.087  1.00  0.00     0.260 C 
HETATM   14  O   UNL     1      20.873  49.485  47.502  1.00  0.00    -0.267 OA
HETATM   15  H   UNL     1      18.800  47.612  48.982  1.00  0.00     0.171 HD
BRANCH  13  16
HETATM   16  C   UNL     1      18.861  50.131  48.594  1.00  0.00     0.065 A 
HETATM   17  C   UNL     1      17.489  50.120  48.273  1.00  0.00     0.084 A 
HETATM   18  C   UNL     1      16.640  51.110  48.786  1.00  0.00     0.038 A 
HETATM   19  C   UNL     1      17.152  52.137  49.576  1.00  0.00     0.003 A 
HETATM   20  C   UNL     1      18.511  52.172  49.876  1.00  0.00     0.001 A 
HETATM   21  C   UNL     1      19.360  51.174  49.392  1.00  0.00     0.020 A 
BRANCH  17  22
HETATM   22  O   UNL     1      16.973  49.092  47.522  1.00  0.00    -0.355 OA
HETATM   23  C   UNL     1      16.023  48.290  48.230  1.00  0.00     0.210 C 
ENDBRANCH  17  22
ENDBRANCH  13  16
ENDBRANCH  10  12
ENDBRANCH   8  10
ENDBRANCH   5   8
BRANCH   1  24
HETATM   24  N   UNL     1      25.567  44.292  50.179  1.00  0.00    -0.376 N 
HETATM   25  C   UNL     1      26.963  44.739  49.982  1.00  0.00     0.143 C 
HETATM   26  C   UNL     1      27.808  44.338  51.211  1.00  0.00     0.145 C 
HETATM   27  N   UNL     1      27.687  42.911  51.561  1.00  0.00    -0.349 N 
HETATM   28  C   UNL     1      28.600  42.237  52.369  1.00  0.00     0.219 C 
HETATM   29  C   UNL     1      26.320  42.374  51.545  1.00  0.00     0.145 C 
HETATM   30  O   UNL     1      28.373  41.103  52.796  1.00  0.00    -0.273 OA
HETATM   31  C   UNL     1      25.488  42.824  50.338  1.00  0.00     0.143 C 
BRANCH  28  32
HETATM   32  C   UNL     1      29.895  42.960  52.702  1.00  0.00     0.103 C 
BRANCH  32  33
HETATM   33  C   UNL     1      30.096  43.100  54.212  1.00  0.00     0.005 C 
HETATM   34  C   UNL     1      29.158  44.135  54.810  1.00  0.00     0.005 C 
ENDBRANCH  32  33
ENDBRANCH  28  32
ENDBRANCH   1  24
TORSDOF 8
ENDMDL
MODEL 10
REMARK VINA RESULT:      -7.7      7.044     11.321
REMARK  8 active torsions:
REMARK  status: ('A' for Active; 'I' for Inactive)
REMARK    1  A    between atoms: C_2  and  C_3 
REMARK    2  A    between atoms: C_3  and  C_4 
REMARK       I    between atoms: C_4  and  N_5 
REMARK    3  A    between atoms: N_8  and  C_9 
REMARK    4  A    between atoms: C_13  and  N_14 
REMARK    5  A    between atoms: N_14  and  C_15 
REMARK    6  A    between atoms: C_15  and  N_16 
REMARK       I    between atoms: N_16  and  C_17 
REMARK    7  A    between atoms: C_17  and  C_18 
REMARK    8  A    between atoms: C_19  and  O_20 
ROOT
HETATM    1  C   UNL     1      27.775  40.593  47.940  1.00  0.00     0.052 A 
HETATM    2  C   UNL     1      28.361  40.139  49.147  1.00  0.00     0.062 A 
HETATM    3 CL   UNL     1      29.519  38.844  49.180  1.00  0.00    -0.082 Cl
HETATM    4  C   UNL     1      27.961  40.640  50.400  1.00  0.00     0.055 A 
HETATM    5  C   UNL     1      26.911  41.550  50.485  1.00  0.00     0.036 A 
HETATM    6  C   UNL     1      26.357  42.049  49.310  1.00  0.00     0.032 A 
HETATM    7  C   UNL     1      26.789  41.585  48.064  1.00  0.00     0.033 A 
ENDROOT
BRANCH   5   8
HETATM    8  N   UNL     1      26.468  41.964  51.757  1.00  0.00    -0.333 N 
HETATM    9  H   UNL     1      25.807  41.353  52.238  1.00  0.00     0.168 HD
BRANCH   8  10
HETATM   10  C   UNL     1      26.605  43.203  52.340  1.00  0.00     0.179 C 
HETATM   11  S   UNL     1      25.851  44.639  51.916  1.00  0.00    -0.040 SA
BRANCH  10  12
HETATM   12  N   UNL     1      27.461  43.260  53.417  1.00  0.00    -0.299 N 
HETATM   13  C   UNL     1      28.841  43.383  53.430  1.00  0.00     0.260 C 
HETATM   14  O   UNL     1      29.551  43.003  52.502  1.00  0.00    -0.267 OA
HETATM   15  H   UNL     1      26.981  43.453  54.289  1.00  0.00     0.171 HD
BRANCH  13  16
HETATM   16  C   UNL     1      29.448  43.969  54.674  1.00  0.00     0.065 A 
HETATM   17  C   UNL     1      29.070  45.206  55.234  1.00  0.00     0.084 A 
HETATM   18  C   UNL     1      29.703  45.675  56.393  1.00  0.00     0.038 A 
HETATM   19  C   UNL     1      30.742  44.948  56.971  1.00  0.00     0.003 A 
HETATM   20  C   UNL     1      31.143  43.739  56.409  1.00  0.00     0.001 A 
HETATM   21  C   UNL     1      30.498  43.250  55.271  1.00  0.00     0.020 A 
BRANCH  17  22
HETATM   22  O   UNL     1      28.025  45.909  54.687  1.00  0.00    -0.355 OA
HETATM   23  C   UNL     1      27.987  47.281  55.094  1.00  0.00     0.210 C 
ENDBRANCH  17  22
ENDBRANCH  13  16
ENDBRANCH  10  12
ENDBRANCH   8  10
ENDBRANCH   5   8
BRANCH   1  24
HETATM   24  N   UNL     1      28.094  40.043  46.689  1.00  0.00    -0.376 N 
HETATM   25  C   UNL     1      28.126  40.980  45.547  1.00  0.00     0.143 C 
HETATM   26  C   UNL     1      28.951  40.359  44.398  1.00  0.00     0.145 C 
HETATM   27  N   UNL     1      28.514  38.999  44.036  1.00  0.00    -0.349 N 
HETATM   28  C   UNL     1      28.837  38.383  42.829  1.00  0.00     0.219 C 
HETATM   29  C   UNL     1      28.252  38.101  45.168  1.00  0.00     0.145 C 
HETATM   30  O   UNL     1      28.619  37.185  42.634  1.00  0.00    -0.273 OA
HETATM   31  C   UNL     1      27.471  38.756  46.314  1.00  0.00     0.143 C 
BRANCH  28  32
HETATM   32  C   UNL     1      29.469  39.254  41.754  1.00  0.00     0.103 C 
BRANCH  32  33
HETATM   33  C   UNL     1      30.995  39.166  41.778  1.00  0.00     0.005 C 
HETATM   34  C   UNL     1      31.554  38.730  40.433  1.00  0.00     0.005 C 
ENDBRANCH  32  33
ENDBRANCH  28  32
ENDBRANCH   1  24
TORSDOF 8
ENDMDL
