MODEL 1
REMARK VINA RESULT:     -10.2      0.000      0.000
REMARK  7 active torsions:
REMARK  status: ('A' for Active; 'I' for Inactive)
REMARK    1  A    between atoms: C_9  and  C_10 
REMARK       I    between atoms: C_10  and  N_11 
REMARK    2  A    between atoms: N_11  and  C_12 
REMARK    3  A    between atoms: C_12  and  C_13 
REMARK    4  A    between atoms: C_12  and  C_22 
REMARK       I    between atoms: C_13  and  N_14 
REMARK    5  A    between atoms: N_14  and  C_15 
REMARK    6  A    between atoms: C_15  and  C_16 
REMARK    7  A    between atoms: C_22  and  C_23 
ROOT
HETATM    1  C   UNL     1      25.907  44.897  51.074  1.00  0.00     0.180 C 
ENDROOT
BRANCH   1   2
HETATM    2  N   UNL     1      26.552  45.075  52.401  1.00  0.00    -0.346 N 
HETATM    3  C   UNL     1      27.648  44.334  52.770  1.00  0.00     0.249 C 
HETATM    4  O   UNL     1      28.337  43.670  51.997  1.00  0.00    -0.271 OA
HETATM    5  H   UNL     1      25.883  45.309  53.129  1.00  0.00     0.163 HD
BRANCH   3   6
HETATM    6  C   UNL     1      28.072  44.411  54.241  1.00  0.00     0.281 C 
HETATM    7  N   UNL     1      28.273  45.872  54.595  1.00  0.00    -0.058 N 
HETATM    8  C   UNL     1      28.622  46.090  56.012  1.00  0.00     0.272 C 
HETATM    9  H   UNL     1      29.017  46.233  53.977  1.00  0.00     0.278 HD
HETATM   10  H   UNL     1      27.439  46.407  54.319  1.00  0.00     0.278 HD
HETATM   11  C   UNL     1      29.752  45.211  56.459  1.00  0.00    -0.026 A 
HETATM   12  C   UNL     1      30.093  44.041  55.749  1.00  0.00    -0.048 A 
HETATM   13  C   UNL     1      30.455  45.542  57.627  1.00  0.00     0.009 A 
HETATM   14  C   UNL     1      31.157  43.249  56.203  1.00  0.00     0.008 A 
HETATM   15  C   UNL     1      29.387  43.657  54.467  1.00  0.00     0.082 C 
HETATM   16  C   UNL     1      31.857  43.598  57.357  1.00  0.00     0.001 A 
HETATM   17  C   UNL     1      31.505  44.740  58.071  1.00  0.00     0.001 A 
ENDBRANCH   3   6
ENDBRANCH   1   2
BRANCH   1  18
HETATM   18  C   UNL     1      26.475  46.020  50.173  1.00  0.00     0.241 C 
HETATM   19  N   UNL     1      25.902  47.256  50.293  1.00  0.00    -0.353 N 
HETATM   20  H   UNL     1      25.255  47.472  51.047  1.00  0.00     0.162 HD
HETATM   21  O   UNL     1      27.344  45.775  49.328  1.00  0.00    -0.271 OA
BRANCH  19  22
HETATM   22  C   UNL     1      26.369  48.376  49.505  1.00  0.00     0.187 C 
BRANCH  22  23
HETATM   23  C   UNL     1      25.213  49.147  48.986  1.00  0.00     0.070 A 
HETATM   24  O   UNL     1      24.049  49.071  49.696  1.00  0.00    -0.325 OA
HETATM   25  C   UNL     1      23.141  49.852  49.058  1.00  0.00     0.142 A 
HETATM   26  C   UNL     1      23.705  50.440  47.952  1.00  0.00     0.027 A 
HETATM   27  C   UNL     1      25.045  49.985  47.902  1.00  0.00     0.036 A 
ENDBRANCH  22  23
ENDBRANCH  19  22
ENDBRANCH   1  18
BRANCH   1  28
HETATM   28  C   UNL     1      24.371  44.844  51.136  1.00  0.00     0.075 C 
BRANCH  28  29
HETATM   29  C   UNL     1      23.713  44.170  49.969  1.00  0.00    -0.028 A 
HETATM   30  C   UNL     1      23.042  44.818  48.879  1.00  0.00    -0.002 A 
HETATM   31  C   UNL     1      22.490  43.821  48.075  1.00  0.00     0.042 A 
HETATM   32  C   UNL     1      22.830  46.164  48.514  1.00  0.00     0.014 A 
HETATM   33  C   UNL     1      21.732  44.099  46.931  1.00  0.00     0.030 A 
HETATM   34  N   UNL     1      22.824  42.613  48.639  1.00  0.00    -0.365 N 
HETATM   35  C   UNL     1      21.533  45.440  46.595  1.00  0.00     0.002 A 
HETATM   36  C   UNL     1      22.076  46.460  47.372  1.00  0.00     0.001 A 
HETATM   37  H   UNL     1      22.540  41.714  48.271  1.00  0.00     0.165 HD
HETATM   38  C   UNL     1      23.550  42.810  49.784  1.00  0.00     0.096 A 
ENDBRANCH  28  29
ENDBRANCH   1  28
TORSDOF 7
ENDMDL
MODEL 2
REMARK VINA RESULT:     -10.1      3.517      8.238
REMARK  7 active torsions:
REMARK  status: ('A' for Active; 'I' for Inactive)
REMARK    1  A    between atoms: C_9  and  C_10 
REMARK       I    between atoms: C_10  and  N_11 
REMARK    2  A    between atoms: N_11  and  C_12 
REMARK    3  A    between atoms: C_12  and  C_13 
REMARK    4  A    between atoms: C_12  and  C_22 
REMARK       I    between atoms: C_13  and  N_14 
REMARK    5  A    between atoms: N_14  and  C_15 
REMARK    6  A    between atoms: C_15  and  C_16 
REMARK    7  A    between atoms: C_22  and  C_23 
ROOT
HETATM    1  C   UNL     1      26.956  43.570  53.340  1.00  0.00     0.180 C 
ENDROOT
BRANCH   1   2
HETATM    2  N   UNL     1      26.836  42.378  52.460  1.00  0.00    -0.346 N 
HETATM    3  C   UNL     1      27.776  41.377  52.479  1.00  0.00     0.249 C 
HETATM    4  O   UNL     1      28.628  41.231  53.354  1.00  0.00    -0.271 OA
HETATM    5  H   UNL     1      26.410  42.598  51.564  1.00  0.00     0.163 HD
BRANCH   3   6
HETATM    6  C   UNL     1      27.695  40.330  51.361  1.00  0.00     0.281 C 
HETATM    7  N   UNL     1      29.038  39.633  51.273  1.00  0.00    -0.058 N 
HETATM    8  C   UNL     1      29.072  38.549  50.272  1.00  0.00     0.272 C 
HETATM    9  H   UNL     1      29.740  40.356  51.051  1.00  0.00     0.278 HD
HETATM   10  H   UNL     1      29.310  39.299  52.207  1.00  0.00     0.278 HD
HETATM   11  C   UNL     1      28.546  38.993  48.939  1.00  0.00    -0.026 A 
HETATM   12  C   UNL     1      27.722  40.131  48.820  1.00  0.00    -0.048 A 
HETATM   13  C   UNL     1      28.851  38.236  47.797  1.00  0.00     0.009 A 
HETATM   14  C   UNL     1      27.253  40.509  47.555  1.00  0.00     0.008 A 
HETATM   15  C   UNL     1      27.389  40.997  50.015  1.00  0.00     0.082 C 
HETATM   16  C   UNL     1      27.576  39.757  46.426  1.00  0.00     0.001 A 
HETATM   17  C   UNL     1      28.370  38.620  46.547  1.00  0.00     0.001 A 
ENDBRANCH   3   6
ENDBRANCH   1   2
BRANCH   1  18
HETATM   18  C   UNL     1      25.761  44.484  52.981  1.00  0.00     0.241 C 
HETATM   19  N   UNL     1      25.978  45.436  52.024  1.00  0.00    -0.353 N 
HETATM   20  H   UNL     1      26.822  45.439  51.458  1.00  0.00     0.162 HD
HETATM   21  O   UNL     1      24.694  44.403  53.602  1.00  0.00    -0.271 OA
BRANCH  19  22
HETATM   22  C   UNL     1      24.920  46.333  51.609  1.00  0.00     0.187 C 
BRANCH  22  23
HETATM   23  C   UNL     1      25.432  47.285  50.593  1.00  0.00     0.070 A 
HETATM   24  O   UNL     1      24.528  48.145  50.040  1.00  0.00    -0.325 OA
HETATM   25  C   UNL     1      25.205  48.923  49.158  1.00  0.00     0.142 A 
HETATM   26  C   UNL     1      26.537  48.585  49.142  1.00  0.00     0.027 A 
HETATM   27  C   UNL     1      26.686  47.524  50.068  1.00  0.00     0.036 A 
ENDBRANCH  22  23
ENDBRANCH  19  22
ENDBRANCH   1  18
BRANCH   1  28
HETATM   28  C   UNL     1      28.331  44.256  53.263  1.00  0.00     0.075 C 
BRANCH  28  29
HETATM   29  C   UNL     1      28.761  44.954  54.519  1.00  0.00    -0.028 A 
HETATM   30  C   UNL     1      29.743  44.491  55.458  1.00  0.00    -0.002 A 
HETATM   31  C   UNL     1      29.757  45.388  56.525  1.00  0.00     0.042 A 
HETATM   32  C   UNL     1      30.605  43.375  55.510  1.00  0.00     0.014 A 
HETATM   33  C   UNL     1      30.582  45.223  57.645  1.00  0.00     0.030 A 
HETATM   34  N   UNL     1      28.837  46.369  56.244  1.00  0.00    -0.365 N 
HETATM   35  C   UNL     1      31.422  44.107  57.674  1.00  0.00     0.002 A 
HETATM   36  C   UNL     1      31.438  43.196  56.621  1.00  0.00     0.001 A 
HETATM   37  H   UNL     1      28.626  47.145  56.859  1.00  0.00     0.165 HD
HETATM   38  C   UNL     1      28.224  46.113  55.047  1.00  0.00     0.096 A 
ENDBRANCH  28  29
ENDBRANCH   1  28
TORSDOF 7
ENDMDL
MODEL 3
REMARK VINA RESULT:     -10.1      2.005      4.288
REMARK  7 active torsions:
REMARK  status: ('A' for Active; 'I' for Inactive)
REMARK    1  A    between atoms: C_9  and  C_10 
REMARK       I    between atoms: C_10  and  N_11 
REMARK    2  A    between atoms: N_11  and  C_12 
REMARK    3  A    between atoms: C_12  and  C_13 
REMARK    4  A    between atoms: C_12  and  C_22 
REMARK       I    between atoms: C_13  and  N_14 
REMARK    5  A    between atoms: N_14  and  C_15 
REMARK    6  A    between atoms: C_15  and  C_16 
REMARK    7  A    between atoms: C_22  and  C_23 
ROOT
HETATM    1  C   UNL     1      25.170  46.156  50.869  1.00  0.00     0.180 C 
ENDROOT
BRANCH   1   2
HETATM    2  N   UNL     1      25.750  45.660  52.143  1.00  0.00    -0.346 N 
HETATM    3  C   UNL     1      25.953  46.499  53.212  1.00  0.00     0.249 C 
HETATM    4  O   UNL     1      25.467  47.624  53.322  1.00  0.00    -0.271 OA
HETATM    5  H   UNL     1      26.431  44.920  51.999  1.00  0.00     0.163 HD
BRANCH   3   6
HETATM    6  C   UNL     1      26.787  45.949  54.376  1.00  0.00     0.281 C 
HETATM    7  N   UNL     1      27.583  47.097  54.966  1.00  0.00    -0.058 N 
HETATM    8  C   UNL     1      28.382  46.710  56.145  1.00  0.00     0.272 C 
HETATM    9  H   UNL     1      28.192  47.459  54.216  1.00  0.00     0.278 HD
HETATM   10  H   UNL     1      26.949  47.879  55.174  1.00  0.00     0.278 HD
HETATM   11  C   UNL     1      29.208  45.484  55.892  1.00  0.00    -0.026 A 
HETATM   12  C   UNL     1      28.893  44.593  54.844  1.00  0.00    -0.048 A 
HETATM   13  C   UNL     1      30.291  45.202  56.739  1.00  0.00     0.009 A 
HETATM   14  C   UNL     1      29.693  43.460  54.644  1.00  0.00     0.008 A 
HETATM   15  C   UNL     1      27.756  44.868  53.885  1.00  0.00     0.082 C 
HETATM   16  C   UNL     1      30.775  43.199  55.485  1.00  0.00     0.001 A 
HETATM   17  C   UNL     1      31.071  44.066  56.532  1.00  0.00     0.001 A 
ENDBRANCH   3   6
ENDBRANCH   1   2
BRANCH   1  18
HETATM   18  C   UNL     1      24.302  44.998  50.319  1.00  0.00     0.241 C 
HETATM   19  N   UNL     1      24.296  44.823  48.963  1.00  0.00    -0.353 N 
HETATM   20  H   UNL     1      24.950  45.314  48.359  1.00  0.00     0.162 HD
HETATM   21  O   UNL     1      23.588  44.329  51.074  1.00  0.00    -0.271 OA
BRANCH  19  22
HETATM   22  C   UNL     1      23.527  43.761  48.350  1.00  0.00     0.187 C 
BRANCH  22  23
HETATM   23  C   UNL     1      22.388  44.332  47.591  1.00  0.00     0.070 A 
HETATM   24  O   UNL     1      21.224  43.618  47.591  1.00  0.00    -0.325 OA
HETATM   25  C   UNL     1      20.325  44.320  46.855  1.00  0.00     0.142 A 
HETATM   26  C   UNL     1      20.889  45.484  46.390  1.00  0.00     0.027 A 
HETATM   27  C   UNL     1      22.224  45.493  46.863  1.00  0.00     0.036 A 
ENDBRANCH  22  23
ENDBRANCH  19  22
ENDBRANCH   1  18
BRANCH   1  28
HETATM   28  C   UNL     1      26.220  46.691  49.880  1.00  0.00     0.075 C 
BRANCH  28  29
HETATM   29  C   UNL     1      25.939  48.062  49.338  1.00  0.00    -0.028 A 
HETATM   30  C   UNL     1      24.646  48.618  49.058  1.00  0.00    -0.002 A 
HETATM   31  C   UNL     1      24.847  49.868  48.474  1.00  0.00     0.042 A 
HETATM   32  C   UNL     1      23.322  48.162  49.223  1.00  0.00     0.014 A 
HETATM   33  C   UNL     1      23.793  50.682  48.040  1.00  0.00     0.030 A 
HETATM   34  N   UNL     1      26.204  50.077  48.416  1.00  0.00    -0.365 N 
HETATM   35  C   UNL     1      22.491  50.205  48.211  1.00  0.00     0.002 A 
HETATM   36  C   UNL     1      22.256  48.964  48.797  1.00  0.00     0.001 A 
HETATM   37  H   UNL     1      26.637  50.902  48.021  1.00  0.00     0.165 HD
HETATM   38  C   UNL     1      26.871  48.993  48.922  1.00  0.00     0.096 A 
ENDBRANCH  28  29
ENDBRANCH   1  28
TORSDOF 7
ENDMDL
MODEL 4
REMARK VINA RESULT:     -10.0      3.056      9.551
REMARK  7 active torsions:
REMARK  status: ('A' for Active; 'I' for Inactive)
REMARK    1  A    between atoms: C_9  and  C_10 
REMARK       I    between atoms: C_10  and  N_11 
REMARK    2  A    between atoms: N_11  and  C_12 
REMARK    3  A    between atoms: C_12  and  C_13 
REMARK    4  A    between atoms: C_12  and  C_22 
REMARK       I    between atoms: C_13  and  N_14 
REMARK    5  A    between atoms: N_14  and  C_15 
REMARK    6  A    between atoms: C_15  and  C_16 
REMARK    7  A    between atoms: C_22  and  C_23 
ROOT
HETATM    1  C   UNL     1      27.247  43.443  51.086  1.00  0.00     0.180 C 
ENDROOT
BRANCH   1   2
HETATM    2  N   UNL     1      26.114  44.342  50.747  1.00  0.00    -0.346 N 
HETATM    3  C   UNL     1      26.308  45.496  50.027  1.00  0.00     0.249 C 
HETATM    4  O   UNL     1      27.329  45.766  49.396  1.00  0.00    -0.271 OA
HETATM    5  H   UNL     1      25.402  44.361  51.471  1.00  0.00     0.163 HD
BRANCH   3   6
HETATM    6  C   UNL     1      25.127  46.472  49.954  1.00  0.00     0.281 C 
HETATM    7  N   UNL     1      24.080  45.873  49.036  1.00  0.00    -0.058 N 
HETATM    8  C   UNL     1      22.855  46.690  48.932  1.00  0.00     0.272 C 
HETATM    9  H   UNL     1      24.520  45.757  48.109  1.00  0.00     0.278 HD
HETATM   10  H   UNL     1      23.874  44.911  49.336  1.00  0.00     0.278 HD
HETATM   11  C   UNL     1      23.156  48.127  48.628  1.00  0.00    -0.026 A 
HETATM   12  C   UNL     1      24.433  48.674  48.875  1.00  0.00    -0.048 A 
HETATM   13  C   UNL     1      22.136  48.948  48.126  1.00  0.00     0.009 A 
HETATM   14  C   UNL     1      24.670  50.023  48.576  1.00  0.00     0.008 A 
HETATM   15  C   UNL     1      25.575  47.823  49.386  1.00  0.00     0.082 C 
HETATM   16  C   UNL     1      23.651  50.824  48.062  1.00  0.00     0.001 A 
HETATM   17  C   UNL     1      22.385  50.290  47.842  1.00  0.00     0.001 A 
ENDBRANCH   3   6
ENDBRANCH   1   2
BRANCH   1  18
HETATM   18  C   UNL     1      27.146  42.246  50.110  1.00  0.00     0.241 C 
HETATM   19  N   UNL     1      27.025  41.004  50.668  1.00  0.00    -0.353 N 
HETATM   20  H   UNL     1      26.843  40.881  51.661  1.00  0.00     0.162 HD
HETATM   21  O   UNL     1      27.260  42.414  48.890  1.00  0.00    -0.271 OA
BRANCH  19  22
HETATM   22  C   UNL     1      26.911  39.821  49.841  1.00  0.00     0.187 C 
BRANCH  22  23
HETATM   23  C   UNL     1      28.229  39.151  49.730  1.00  0.00     0.070 A 
HETATM   24  O   UNL     1      28.826  38.763  50.895  1.00  0.00    -0.325 OA
HETATM   25  C   UNL     1      30.000  38.169  50.563  1.00  0.00     0.142 A 
HETATM   26  C   UNL     1      30.164  38.158  49.199  1.00  0.00     0.027 A 
HETATM   27  C   UNL     1      29.021  38.794  48.658  1.00  0.00     0.036 A 
ENDBRANCH  22  23
ENDBRANCH  19  22
ENDBRANCH   1  18
BRANCH   1  28
HETATM   28  C   UNL     1      27.299  43.051  52.573  1.00  0.00     0.075 C 
BRANCH  28  29
HETATM   29  C   UNL     1      27.797  44.125  53.494  1.00  0.00    -0.028 A 
HETATM   30  C   UNL     1      28.922  44.033  54.380  1.00  0.00    -0.002 A 
HETATM   31  C   UNL     1      28.967  45.212  55.123  1.00  0.00     0.042 A 
HETATM   32  C   UNL     1      29.893  43.043  54.639  1.00  0.00     0.014 A 
HETATM   33  C   UNL     1      29.927  45.450  56.114  1.00  0.00     0.030 A 
HETATM   34  N   UNL     1      27.926  46.001  54.696  1.00  0.00    -0.365 N 
HETATM   35  C   UNL     1      30.874  44.451  56.354  1.00  0.00     0.002 A 
HETATM   36  C   UNL     1      30.861  43.264  55.626  1.00  0.00     0.001 A 
HETATM   37  H   UNL     1      27.709  46.913  55.078  1.00  0.00     0.165 HD
HETATM   38  C   UNL     1      27.208  45.353  53.726  1.00  0.00     0.096 A 
ENDBRANCH  28  29
ENDBRANCH   1  28
TORSDOF 7
ENDMDL
MODEL 5
REMARK VINA RESULT:      -9.8      2.494      9.468
REMARK  7 active torsions:
REMARK  status: ('A' for Active; 'I' for Inactive)
REMARK    1  A    between atoms: C_9  and  C_10 
REMARK       I    between atoms: C_10  and  N_11 
REMARK    2  A    between atoms: N_11  and  C_12 
REMARK    3  A    between atoms: C_12  and  C_13 
REMARK    4  A    between atoms: C_12  and  C_22 
REMARK       I    between atoms: C_13  and  N_14 
REMARK    5  A    between atoms: N_14  and  C_15 
REMARK    6  A    between atoms: C_15  and  C_16 
REMARK    7  A    between atoms: C_22  and  C_23 
ROOT
HETATM    1  C   UNL     1      25.892  46.528  50.907  1.00  0.00     0.180 C 
ENDROOT
BRANCH   1   2
HETATM    2  N   UNL     1      24.835  47.147  50.066  1.00  0.00    -0.346 N 
HETATM    3  C   UNL     1      25.082  48.276  49.322  1.00  0.00     0.249 C 
HETATM    4  O   UNL     1      26.201  48.721  49.074  1.00  0.00    -0.271 OA
HETATM    5  H   UNL     1      23.909  47.054  50.474  1.00  0.00     0.163 HD
BRANCH   3   6
HETATM    6  C   UNL     1      23.866  48.974  48.700  1.00  0.00     0.281 C 
HETATM    7  N   UNL     1      24.018  50.466  48.923  1.00  0.00    -0.058 N 
HETATM    8  C   UNL     1      22.938  51.263  48.310  1.00  0.00     0.272 C 
HETATM    9  H   UNL     1      24.048  50.617  49.944  1.00  0.00     0.278 HD
HETATM   10  H   UNL     1      24.946  50.766  48.599  1.00  0.00     0.278 HD
HETATM   11  C   UNL     1      21.577  50.745  48.670  1.00  0.00    -0.026 A 
HETATM   12  C   UNL     1      21.396  49.427  49.137  1.00  0.00    -0.048 A 
HETATM   13  C   UNL     1      20.461  51.580  48.502  1.00  0.00     0.009 A 
HETATM   14  C   UNL     1      20.106  48.985  49.462  1.00  0.00     0.008 A 
HETATM   15  C   UNL     1      22.570  48.499  49.364  1.00  0.00     0.082 C 
HETATM   16  C   UNL     1      19.008  49.829  49.304  1.00  0.00     0.001 A 
HETATM   17  C   UNL     1      19.184  51.123  48.821  1.00  0.00     0.001 A 
ENDBRANCH   3   6
ENDBRANCH   1   2
BRANCH   1  18
HETATM   18  C   UNL     1      26.525  45.413  50.040  1.00  0.00     0.241 C 
HETATM   19  N   UNL     1      25.986  44.162  50.154  1.00  0.00    -0.353 N 
HETATM   20  H   UNL     1      25.114  44.002  50.651  1.00  0.00     0.162 HD
HETATM   21  O   UNL     1      27.525  45.640  49.349  1.00  0.00    -0.271 OA
BRANCH  19  22
HETATM   22  C   UNL     1      26.498  43.054  49.377  1.00  0.00     0.187 C 
BRANCH  22  23
HETATM   23  C   UNL     1      27.220  42.106  50.260  1.00  0.00     0.070 A 
HETATM   24  O   UNL     1      27.680  40.955  49.687  1.00  0.00    -0.325 OA
HETATM   25  C   UNL     1      28.311  40.250  50.659  1.00  0.00     0.142 A 
HETATM   26  C   UNL     1      28.275  40.935  51.850  1.00  0.00     0.027 A 
HETATM   27  C   UNL     1      27.568  42.135  51.595  1.00  0.00     0.036 A 
ENDBRANCH  22  23
ENDBRANCH  19  22
ENDBRANCH   1  18
BRANCH   1  28
HETATM   28  C   UNL     1      25.390  46.059  52.283  1.00  0.00     0.075 C 
BRANCH  28  29
HETATM   29  C   UNL     1      26.184  46.561  53.452  1.00  0.00    -0.028 A 
HETATM   30  C   UNL     1      27.302  45.905  54.068  1.00  0.00    -0.002 A 
HETATM   31  C   UNL     1      27.672  46.662  55.178  1.00  0.00     0.042 A 
HETATM   32  C   UNL     1      28.018  44.720  53.798  1.00  0.00     0.014 A 
HETATM   33  C   UNL     1      28.716  46.294  56.036  1.00  0.00     0.030 A 
HETATM   34  N   UNL     1      26.829  47.746  55.230  1.00  0.00    -0.365 N 
HETATM   35  C   UNL     1      29.406  45.114  55.749  1.00  0.00     0.002 A 
HETATM   36  C   UNL     1      29.066  44.337  54.644  1.00  0.00     0.001 A 
HETATM   37  H   UNL     1      26.861  48.459  55.948  1.00  0.00     0.165 HD
HETATM   38  C   UNL     1      25.923  47.690  54.205  1.00  0.00     0.096 A 
ENDBRANCH  28  29
ENDBRANCH   1  28
TORSDOF 7
ENDMDL
MODEL 6
REMARK VINA RESULT:      -9.7      2.578      4.081
REMARK  7 active torsions:
REMARK  status: ('A' for Active; 'I' for Inactive)
REMARK    1  A    between atoms: C_9  and  C_10 
REMARK       I    between atoms: C_10  and  N_11 
REMARK    2  A    between atoms: N_11  and  C_12 
REMARK    3  A    between atoms: C_12  and  C_13 
REMARK    4  A    between atoms: C_12  and  C_22 
REMARK       I    between atoms: C_13  and  N_14 
REMARK    5  A    between atoms: N_14  and  C_15 
REMARK    6  A    between atoms: C_15  and  C_16 
REMARK    7  A    between atoms: C_22  and  C_23 
ROOT
HETATM    1  C   UNL     1      25.695  43.731  51.022  1.00  0.00     0.180 C 
ENDROOT
BRANCH   1   2
HETATM    2  N   UNL     1      26.225  44.091  52.363  1.00  0.00    -0.346 N 
HETATM    3  C   UNL     1      27.574  44.094  52.623  1.00  0.00     0.249 C 
HETATM    4  O   UNL     1      28.453  44.058  51.763  1.00  0.00    -0.271 OA
HETATM    5  H   UNL     1      25.608  43.799  53.116  1.00  0.00     0.163 HD
BRANCH   3   6
HETATM    6  C   UNL     1      27.995  44.227  54.091  1.00  0.00     0.281 C 
HETATM    7  N   UNL     1      28.179  45.701  54.394  1.00  0.00    -0.058 N 
HETATM    8  C   UNL     1      28.523  45.972  55.804  1.00  0.00     0.272 C 
HETATM    9  H   UNL     1      28.920  46.049  53.765  1.00  0.00     0.278 HD
HETATM   10  H   UNL     1      27.340  46.216  54.100  1.00  0.00     0.278 HD
HETATM   11  C   UNL     1      29.663  45.122  56.281  1.00  0.00    -0.026 A 
HETATM   12  C   UNL     1      30.019  43.932  55.612  1.00  0.00    -0.048 A 
HETATM   13  C   UNL     1      30.361  45.501  57.438  1.00  0.00     0.009 A 
HETATM   14  C   UNL     1      31.091  43.168  56.094  1.00  0.00     0.008 A 
HETATM   15  C   UNL     1      29.318  43.496  54.344  1.00  0.00     0.082 C 
HETATM   16  C   UNL     1      31.785  43.565  57.237  1.00  0.00     0.001 A 
HETATM   17  C   UNL     1      31.419  44.726  57.910  1.00  0.00     0.001 A 
ENDBRANCH   3   6
ENDBRANCH   1   2
BRANCH   1  18
HETATM   18  C   UNL     1      24.829  44.932  50.572  1.00  0.00     0.241 C 
HETATM   19  N   UNL     1      25.476  46.120  50.375  1.00  0.00    -0.353 N 
HETATM   20  H   UNL     1      26.491  46.178  50.362  1.00  0.00     0.162 HD
HETATM   21  O   UNL     1      23.600  44.827  50.483  1.00  0.00    -0.271 OA
BRANCH  19  22
HETATM   22  C   UNL     1      24.758  47.299  49.942  1.00  0.00     0.187 C 
BRANCH  22  23
HETATM   23  C   UNL     1      25.708  48.301  49.400  1.00  0.00     0.070 A 
HETATM   24  O   UNL     1      25.194  49.257  48.572  1.00  0.00    -0.325 OA
HETATM   25  C   UNL     1      26.222  50.065  48.208  1.00  0.00     0.142 A 
HETATM   26  C   UNL     1      27.391  49.650  48.799  1.00  0.00     0.027 A 
HETATM   27  C   UNL     1      27.062  48.508  49.569  1.00  0.00     0.036 A 
ENDBRANCH  22  23
ENDBRANCH  19  22
ENDBRANCH   1  18
BRANCH   1  28
HETATM   28  C   UNL     1      24.972  42.374  50.989  1.00  0.00     0.075 C 
BRANCH  28  29
HETATM   29  C   UNL     1      25.655  41.312  50.180  1.00  0.00    -0.028 A 
HETATM   30  C   UNL     1      26.873  40.633  50.520  1.00  0.00    -0.002 A 
HETATM   31  C   UNL     1      27.204  39.805  49.448  1.00  0.00     0.042 A 
HETATM   32  C   UNL     1      27.739  40.665  51.633  1.00  0.00     0.014 A 
HETATM   33  C   UNL     1      28.359  39.014  49.427  1.00  0.00     0.030 A 
HETATM   34  N   UNL     1      26.221  39.956  48.499  1.00  0.00    -0.365 N 
HETATM   35  C   UNL     1      29.203  39.068  50.539  1.00  0.00     0.002 A 
HETATM   36  C   UNL     1      28.899  39.879  51.630  1.00  0.00     0.001 A 
HETATM   37  H   UNL     1      26.216  39.482  47.605  1.00  0.00     0.165 HD
HETATM   38  C   UNL     1      25.291  40.868  48.923  1.00  0.00     0.096 A 
ENDBRANCH  28  29
ENDBRANCH   1  28
TORSDOF 7
ENDMDL
MODEL 7
REMARK VINA RESULT:      -9.6      3.208      7.640
REMARK  7 active torsions:
REMARK  status: ('A' for Active; 'I' for Inactive)
REMARK    1  A    between atoms: C_9  and  C_10 
REMARK       I    between atoms: C_10  and  N_11 
REMARK    2  A    between atoms: N_11  and  C_12 
REMARK    3  A    between atoms: C_12  and  C_13 
REMARK    4  A    between atoms: C_12  and  C_22 
REMARK       I    between atoms: C_13  and  N_14 
REMARK    5  A    between atoms: N_14  and  C_15 
REMARK    6  A    between atoms: C_15  and  C_16 
REMARK    7  A    between atoms: C_22  and  C_23 
ROOT
HETATM    1  C   UNL     1      26.662  45.366  53.282  1.00  0.00     0.180 C 
ENDROOT
BRANCH   1   2
HETATM    2  N   UNL     1      27.275  44.600  52.165  1.00  0.00    -0.346 N 
HETATM    3  C   UNL     1      26.645  43.510  51.615  1.00  0.00     0.249 C 
HETATM    4  O   UNL     1      25.463  43.220  51.792  1.00  0.00    -0.271 OA
HETATM    5  H   UNL     1      28.289  44.570  52.226  1.00  0.00     0.163 HD
BRANCH   3   6
HETATM    6  C   UNL     1      27.472  42.646  50.654  1.00  0.00     0.281 C 
HETATM    7  N   UNL     1      26.579  42.253  49.493  1.00  0.00    -0.058 N 
HETATM    8  C   UNL     1      27.279  41.468  48.456  1.00  0.00     0.272 C 
HETATM    9  H   UNL     1      25.791  41.715  49.886  1.00  0.00     0.278 HD
HETATM   10  H   UNL     1      26.138  43.095  49.103  1.00  0.00     0.278 HD
HETATM   11  C   UNL     1      28.040  40.314  49.037  1.00  0.00    -0.026 A 
HETATM   12  C   UNL     1      28.397  40.285  50.401  1.00  0.00    -0.048 A 
HETATM   13  C   UNL     1      28.436  39.263  48.195  1.00  0.00     0.009 A 
HETATM   14  C   UNL     1      29.109  39.186  50.901  1.00  0.00     0.008 A 
HETATM   15  C   UNL     1      27.968  41.377  51.356  1.00  0.00     0.082 C 
HETATM   16  C   UNL     1      29.483  38.141  50.056  1.00  0.00     0.001 A 
HETATM   17  C   UNL     1      29.151  38.181  48.705  1.00  0.00     0.001 A 
ENDBRANCH   3   6
ENDBRANCH   1   2
BRANCH   1  18
HETATM   18  C   UNL     1      25.809  46.474  52.618  1.00  0.00     0.241 C 
HETATM   19  N   UNL     1      25.492  46.301  51.300  1.00  0.00    -0.353 N 
HETATM   20  H   UNL     1      25.660  45.419  50.822  1.00  0.00     0.162 HD
HETATM   21  O   UNL     1      25.512  47.501  53.239  1.00  0.00    -0.271 OA
BRANCH  19  22
HETATM   22  C   UNL     1      24.688  47.273  50.591  1.00  0.00     0.187 C 
BRANCH  22  23
HETATM   23  C   UNL     1      25.560  48.162  49.785  1.00  0.00     0.070 A 
HETATM   24  O   UNL     1      24.945  49.146  49.066  1.00  0.00    -0.325 OA
HETATM   25  C   UNL     1      25.919  49.838  48.422  1.00  0.00     0.142 A 
HETATM   26  C   UNL     1      27.156  49.322  48.725  1.00  0.00     0.027 A 
HETATM   27  C   UNL     1      26.926  48.236  49.605  1.00  0.00     0.036 A 
ENDBRANCH  22  23
ENDBRANCH  19  22
ENDBRANCH   1  18
BRANCH   1  28
HETATM   28  C   UNL     1      27.683  45.878  54.312  1.00  0.00     0.075 C 
BRANCH  28  29
HETATM   29  C   UNL     1      28.737  44.885  54.706  1.00  0.00    -0.028 A 
HETATM   30  C   UNL     1      29.538  44.920  55.896  1.00  0.00    -0.002 A 
HETATM   31  C   UNL     1      30.456  43.874  55.813  1.00  0.00     0.042 A 
HETATM   32  C   UNL     1      29.584  45.762  57.027  1.00  0.00     0.014 A 
HETATM   33  C   UNL     1      31.421  43.630  56.798  1.00  0.00     0.030 A 
HETATM   34  N   UNL     1      30.216  43.215  54.632  1.00  0.00    -0.365 N 
HETATM   35  C   UNL     1      31.449  44.482  57.905  1.00  0.00     0.002 A 
HETATM   36  C   UNL     1      30.542  45.532  58.022  1.00  0.00     0.001 A 
HETATM   37  H   UNL     1      30.748  42.418  54.305  1.00  0.00     0.165 HD
HETATM   38  C   UNL     1      29.193  43.821  53.952  1.00  0.00     0.096 A 
ENDBRANCH  28  29
ENDBRANCH   1  28
TORSDOF 7
ENDMDL
MODEL 8
REMARK VINA RESULT:      -9.5      3.490      4.749
REMARK  7 active torsions:
REMARK  status: ('A' for Active; 'I' for Inactive)
REMARK    1  A    between atoms: C_9  and  C_10 
REMARK       I    between atoms: C_10  and  N_11 
REMARK    2  A    between atoms: N_11  and  C_12 
REMARK    3  A    between atoms: C_12  and  C_13 
REMARK    4  A    between atoms: C_12  and  C_22 
REMARK       I    between atoms: C_13  and  N_14 
REMARK    5  A    between atoms: N_14  and  C_15 
REMARK    6  A    between atoms: C_15  and  C_16 
REMARK    7  A    between atoms: C_22  and  C_23 
ROOT
HETATM    1  C   UNL     1      25.708  42.590  50.665  1.00  0.00     0.180 C 
ENDROOT
BRANCH   1   2
HETATM    2  N   UNL     1      26.070  42.979  52.052  1.00  0.00    -0.346 N 
HETATM    3  C   UNL     1      26.839  44.089  52.307  1.00  0.00     0.249 C 
HETATM    4  O   UNL     1      27.079  44.977  51.491  1.00  0.00    -0.271 OA
HETATM    5  H   UNL     1      26.199  42.175  52.660  1.00  0.00     0.163 HD
BRANCH   3   6
HETATM    6  C   UNL     1      27.364  44.253  53.738  1.00  0.00     0.281 C 
HETATM    7  N   UNL     1      27.554  45.734  54.001  1.00  0.00    -0.058 N 
HETATM    8  C   UNL     1      27.997  46.033  55.377  1.00  0.00     0.272 C 
HETATM    9  H   UNL     1      28.244  46.077  53.313  1.00  0.00     0.278 HD
HETATM   10  H   UNL     1      26.690  46.236  53.759  1.00  0.00     0.278 HD
HETATM   11  C   UNL     1      29.177  45.203  55.785  1.00  0.00    -0.026 A 
HETATM   12  C   UNL     1      29.495  44.004  55.114  1.00  0.00    -0.048 A 
HETATM   13  C   UNL     1      29.953  45.609  56.882  1.00  0.00     0.009 A 
HETATM   14  C   UNL     1      30.607  43.259  55.530  1.00  0.00     0.008 A 
HETATM   15  C   UNL     1      28.709  43.538  53.908  1.00  0.00     0.082 C 
HETATM   16  C   UNL     1      31.379  43.683  56.612  1.00  0.00     0.001 A 
HETATM   17  C   UNL     1      31.050  44.853  57.289  1.00  0.00     0.001 A 
ENDBRANCH   3   6
ENDBRANCH   1   2
BRANCH   1  18
HETATM   18  C   UNL     1      24.372  43.307  50.358  1.00  0.00     0.241 C 
HETATM   19  N   UNL     1      24.449  44.485  49.668  1.00  0.00    -0.353 N 
HETATM   20  H   UNL     1      25.316  44.793  49.234  1.00  0.00     0.162 HD
HETATM   21  O   UNL     1      23.302  42.869  50.797  1.00  0.00    -0.271 OA
BRANCH  19  22
HETATM   22  C   UNL     1      23.256  45.228  49.321  1.00  0.00     0.187 C 
BRANCH  22  23
HETATM   23  C   UNL     1      23.574  46.671  49.200  1.00  0.00     0.070 A 
HETATM   24  O   UNL     1      24.826  47.063  49.579  1.00  0.00    -0.325 OA
HETATM   25  C   UNL     1      24.904  48.403  49.378  1.00  0.00     0.142 A 
HETATM   26  C   UNL     1      23.722  48.880  48.863  1.00  0.00     0.027 A 
HETATM   27  C   UNL     1      22.860  47.763  48.750  1.00  0.00     0.036 A 
ENDBRANCH  22  23
ENDBRANCH  19  22
ENDBRANCH   1  18
BRANCH   1  28
HETATM   28  C   UNL     1      25.682  41.068  50.438  1.00  0.00     0.075 C 
BRANCH  28  29
HETATM   29  C   UNL     1      27.030  40.411  50.393  1.00  0.00    -0.028 A 
HETATM   30  C   UNL     1      27.519  39.542  49.362  1.00  0.00    -0.002 A 
HETATM   31  C   UNL     1      28.770  39.076  49.767  1.00  0.00     0.042 A 
HETATM   32  C   UNL     1      27.002  39.085  48.132  1.00  0.00     0.014 A 
HETATM   33  C   UNL     1      29.527  38.174  49.009  1.00  0.00     0.030 A 
HETATM   34  N   UNL     1      29.043  39.651  50.984  1.00  0.00    -0.365 N 
HETATM   35  C   UNL     1      28.989  37.734  47.797  1.00  0.00     0.002 A 
HETATM   36  C   UNL     1      27.746  38.184  47.360  1.00  0.00     0.001 A 
HETATM   37  H   UNL     1      29.883  39.476  51.521  1.00  0.00     0.165 HD
HETATM   38  C   UNL     1      28.000  40.447  51.377  1.00  0.00     0.096 A 
ENDBRANCH  28  29
ENDBRANCH   1  28
TORSDOF 7
ENDMDL
MODEL 9
REMARK VINA RESULT:      -9.4      2.577      5.204
REMARK  7 active torsions:
REMARK  status: ('A' for Active; 'I' for Inactive)
REMARK    1  A    between atoms: C_9  and  C_10 
REMARK       I    between atoms: C_10  and  N_11 
REMARK    2  A    between atoms: N_11  and  C_12 
REMARK    3  A    between atoms: C_12  and  C_13 
REMARK    4  A    between atoms: C_12  and  C_22 
REMARK       I    between atoms: C_13  and  N_14 
REMARK    5  A    between atoms: N_14  and  C_15 
REMARK    6  A    between atoms: C_15  and  C_16 
REMARK    7  A    between atoms: C_22  and  C_23 
ROOT
HETATM    1  C   UNL     1      25.335  44.936  50.540  1.00  0.00     0.180 C 
ENDROOT
BRANCH   1   2
HETATM    2  N   UNL     1      26.216  44.795  51.729  1.00  0.00    -0.346 N 
HETATM    3  C   UNL     1      25.700  44.536  52.976  1.00  0.00     0.249 C 
HETATM    4  O   UNL     1      24.552  44.154  53.193  1.00  0.00    -0.271 OA
HETATM    5  H   UNL     1      27.033  45.397  51.680  1.00  0.00     0.163 HD
BRANCH   3   6
HETATM    6  C   UNL     1      26.663  44.664  54.163  1.00  0.00     0.281 C 
HETATM    7  N   UNL     1      27.243  46.065  54.145  1.00  0.00    -0.058 N 
HETATM    8  C   UNL     1      28.141  46.342  55.283  1.00  0.00     0.272 C 
HETATM    9  H   UNL     1      27.746  46.173  53.250  1.00  0.00     0.278 HD
HETATM   10  H   UNL     1      26.478  46.750  54.086  1.00  0.00     0.278 HD
HETATM   11  C   UNL     1      29.178  45.273  55.459  1.00  0.00    -0.026 A 
HETATM   12  C   UNL     1      29.005  43.987  54.905  1.00  0.00    -0.048 A 
HETATM   13  C   UNL     1      30.323  45.549  56.223  1.00  0.00     0.009 A 
HETATM   14  C   UNL     1      30.000  43.018  55.094  1.00  0.00     0.008 A 
HETATM   15  C   UNL     1      27.805  43.649  54.048  1.00  0.00     0.082 C 
HETATM   16  C   UNL     1      31.140  43.311  55.843  1.00  0.00     0.001 A 
HETATM   17  C   UNL     1      31.299  44.572  56.410  1.00  0.00     0.001 A 
ENDBRANCH   3   6
ENDBRANCH   1   2
BRANCH   1  18
HETATM   18  C   UNL     1      25.651  43.724  49.632  1.00  0.00     0.241 C 
HETATM   19  N   UNL     1      26.792  43.025  49.911  1.00  0.00    -0.353 N 
HETATM   20  H   UNL     1      27.320  43.185  50.766  1.00  0.00     0.162 HD
HETATM   21  O   UNL     1      24.942  43.466  48.652  1.00  0.00    -0.271 OA
BRANCH  19  22
HETATM   22  C   UNL     1      27.171  41.868  49.129  1.00  0.00     0.187 C 
BRANCH  22  23
HETATM   23  C   UNL     1      27.909  40.901  49.976  1.00  0.00     0.070 A 
HETATM   24  O   UNL     1      28.291  39.729  49.390  1.00  0.00    -0.325 OA
HETATM   25  C   UNL     1      28.954  39.009  50.330  1.00  0.00     0.142 A 
HETATM   26  C   UNL     1      29.015  39.705  51.513  1.00  0.00     0.027 A 
HETATM   27  C   UNL     1      28.338  40.928  51.288  1.00  0.00     0.036 A 
ENDBRANCH  22  23
ENDBRANCH  19  22
ENDBRANCH   1  18
BRANCH   1  28
HETATM   28  C   UNL     1      25.452  46.303  49.845  1.00  0.00     0.075 C 
BRANCH  28  29
HETATM   29  C   UNL     1      24.158  46.869  49.339  1.00  0.00    -0.028 A 
HETATM   30  C   UNL     1      23.935  48.214  48.892  1.00  0.00    -0.002 A 
HETATM   31  C   UNL     1      22.575  48.340  48.610  1.00  0.00     0.042 A 
HETATM   32  C   UNL     1      24.759  49.346  48.724  1.00  0.00     0.014 A 
HETATM   33  C   UNL     1      21.996  49.539  48.177  1.00  0.00     0.030 A 
HETATM   34  N   UNL     1      21.994  47.120  48.856  1.00  0.00    -0.365 N 
HETATM   35  C   UNL     1      22.835  50.646  48.024  1.00  0.00     0.002 A 
HETATM   36  C   UNL     1      24.198  50.553  48.290  1.00  0.00     0.001 A 
HETATM   37  H   UNL     1      21.005  46.927  48.750  1.00  0.00     0.165 HD
HETATM   38  C   UNL     1      22.933  46.231  49.306  1.00  0.00     0.096 A 
ENDBRANCH  28  29
ENDBRANCH   1  28
TORSDOF 7
ENDMDL
MODEL 10
REMARK VINA RESULT:      -9.2     11.735     13.668
REMARK  7 active torsions:
REMARK  status: ('A' for Active; 'I' for Inactive)
REMARK    1  A    between atoms: C_9  and  C_10 
REMARK       I    between atoms: C_10  and  N_11 
REMARK    2  A    between atoms: N_11  and  C_12 
REMARK    3  A    between atoms: C_12  and  C_13 
REMARK    4  A    between atoms: C_12  and  C_22 
REMARK       I    between atoms: C_13  and  N_14 
REMARK    5  A    between atoms: N_14  and  C_15 
REMARK    6  A    between atoms: C_15  and  C_16 
REMARK    7  A    between atoms: C_22  and  C_23 
ROOT
HETATM    1  C   UNL     1      33.559  50.804  41.972  1.00  0.00     0.180 C 
ENDROOT
BRANCH   1   2
HETATM    2  N   UNL     1      34.768  51.535  42.434  1.00  0.00    -0.346 N 
HETATM    3  C   UNL     1      36.032  51.098  42.121  1.00  0.00     0.249 C 
HETATM    4  O   UNL     1      36.291  50.259  41.259  1.00  0.00    -0.271 OA
HETATM    5  H   UNL     1      34.637  51.963  43.346  1.00  0.00     0.163 HD
BRANCH   3   6
HETATM    6  C   UNL     1      37.198  51.771  42.856  1.00  0.00     0.281 C 
HETATM    7  N   UNL     1      37.871  50.725  43.724  1.00  0.00    -0.058 N 
HETATM    8  C   UNL     1      39.058  51.232  44.439  1.00  0.00     0.272 C 
HETATM    9  H   UNL     1      37.161  50.385  44.392  1.00  0.00     0.278 HD
HETATM   10  H   UNL     1      38.092  49.900  43.152  1.00  0.00     0.278 HD
HETATM   11  C   UNL     1      38.778  52.514  45.165  1.00  0.00    -0.026 A 
HETATM   12  C   UNL     1      37.678  53.326  44.817  1.00  0.00    -0.048 A 
HETATM   13  C   UNL     1      39.649  52.928  46.184  1.00  0.00     0.009 A 
HETATM   14  C   UNL     1      37.454  54.516  45.523  1.00  0.00     0.008 A 
HETATM   15  C   UNL     1      36.692  52.910  43.748  1.00  0.00     0.082 C 
HETATM   16  C   UNL     1      38.320  54.908  46.543  1.00  0.00     0.001 A 
HETATM   17  C   UNL     1      39.418  54.118  46.871  1.00  0.00     0.001 A 
ENDBRANCH   3   6
ENDBRANCH   1   2
BRANCH   1  18
HETATM   18  C   UNL     1      33.117  51.501  40.663  1.00  0.00     0.241 C 
HETATM   19  N   UNL     1      32.891  50.696  39.581  1.00  0.00    -0.353 N 
HETATM   20  H   UNL     1      32.853  49.684  39.669  1.00  0.00     0.162 HD
HETATM   21  O   UNL     1      33.059  52.734  40.592  1.00  0.00    -0.271 OA
BRANCH  19  22
HETATM   22  C   UNL     1      32.462  51.250  38.315  1.00  0.00     0.187 C 
BRANCH  22  23
HETATM   23  C   UNL     1      30.987  51.153  38.193  1.00  0.00     0.070 A 
HETATM   24  O   UNL     1      30.429  49.922  38.386  1.00  0.00    -0.325 OA
HETATM   25  C   UNL     1      29.087  50.064  38.241  1.00  0.00     0.142 A 
HETATM   26  C   UNL     1      28.770  51.373  37.969  1.00  0.00     0.027 A 
HETATM   27  C   UNL     1      29.997  52.079  37.936  1.00  0.00     0.036 A 
ENDBRANCH  22  23
ENDBRANCH  19  22
ENDBRANCH   1  18
BRANCH   1  28
HETATM   28  C   UNL     1      32.459  50.694  43.041  1.00  0.00     0.075 C 
BRANCH  28  29
HETATM   29  C   UNL     1      31.172  50.088  42.564  1.00  0.00    -0.028 A 
HETATM   30  C   UNL     1      30.015  50.800  42.100  1.00  0.00    -0.002 A 
HETATM   31  C   UNL     1      29.015  49.859  41.856  1.00  0.00     0.042 A 
HETATM   32  C   UNL     1      29.718  52.162  41.889  1.00  0.00     0.014 A 
HETATM   33  C   UNL     1      27.732  50.210  41.420  1.00  0.00     0.030 A 
HETATM   34  N   UNL     1      29.542  48.622  42.141  1.00  0.00    -0.365 N 
HETATM   35  C   UNL     1      27.462  51.567  41.223  1.00  0.00     0.002 A 
HETATM   36  C   UNL     1      28.440  52.531  41.450  1.00  0.00     0.001 A 
HETATM   37  H   UNL     1      29.028  47.753  42.068  1.00  0.00     0.165 HD
HETATM   38  C   UNL     1      30.834  48.748  42.579  1.00  0.00     0.096 A 
ENDBRANCH  28  29
ENDBRANCH   1  28
TORSDOF 7
ENDMDL
