MODEL 1
REMARK VINA RESULT:      -8.9      0.000      0.000
REMARK  6 active torsions:
REMARK  status: ('A' for Active; 'I' for Inactive)
REMARK    1  A    between atoms: C_6  and  C_7 
REMARK    2  A    between atoms: C_7  and  N_8 
REMARK    3  A    between atoms: C_12  and  C_13 
REMARK    4  A    between atoms: C_13  and  C_14 
REMARK    5  A    between atoms: N_23  and  C_24 
REMARK    6  A    between atoms: C_24  and  C_25 
ROOT
HETATM    1  C   UNL     1      33.044  50.501  41.100  1.00  0.00     0.149 C 
HETATM    2  N   UNL     1      32.587  50.382  39.723  1.00  0.00    -0.220 NA
HETATM    3  C   UNL     1      31.912  51.514  39.323  1.00  0.00     0.304 C 
HETATM    4  O   UNL     1      31.650  51.747  38.156  1.00  0.00    -0.253 OA
HETATM    5  N   UNL     1      31.628  52.269  40.412  1.00  0.00    -0.270 N 
HETATM    6  C   UNL     1      32.314  51.803  41.497  1.00  0.00     0.257 C 
HETATM    7  O   UNL     1      32.333  52.306  42.614  1.00  0.00    -0.270 OA
HETATM    8  H   UNL     1      33.266  50.067  39.031  1.00  0.00     0.134 HD
ENDROOT
BRANCH   1   9
HETATM    9  C   UNL     1      32.588  49.302  41.995  1.00  0.00     0.028 C 
HETATM   10  C   UNL     1      32.737  47.914  41.339  1.00  0.00     0.035 C 
HETATM   11  C   UNL     1      31.671  47.599  40.296  1.00  0.00     0.235 C 
HETATM   12  N   UNL     1      30.292  47.764  40.890  1.00  0.00    -0.067 N 
HETATM   13  H   UNL     1      30.195  47.047  41.618  1.00  0.00     0.280 HD
HETATM   14  C   UNL     1      30.062  49.110  41.530  1.00  0.00     0.235 C 
HETATM   15  C   UNL     1      31.150  49.406  42.550  1.00  0.00     0.035 C 
BRANCH  12  16
HETATM   16  C   UNL     1      29.195  47.484  39.873  1.00  0.00     0.273 C 
BRANCH  16  17
HETATM   17  C   UNL     1      28.268  46.361  40.264  1.00  0.00    -0.027 A 
HETATM   18  C   UNL     1      28.390  45.058  39.735  1.00  0.00    -0.054 A 
HETATM   19  C   UNL     1      27.481  44.064  40.139  1.00  0.00     0.014 A 
HETATM   20  C   UNL     1      29.443  44.689  38.723  1.00  0.00     0.049 C 
HETATM   21  C   UNL     1      26.455  44.340  41.048  1.00  0.00    -0.061 A 
HETATM   22  C   UNL     1      25.481  43.274  41.459  1.00  0.00     0.048 C 
HETATM   23  C   UNL     1      26.344  45.628  41.573  1.00  0.00     0.007 A 
HETATM   24  C   UNL     1      27.236  46.628  41.185  1.00  0.00     0.010 A 
ENDBRANCH  16  17
ENDBRANCH  12  16
ENDBRANCH   1   9
BRANCH   1  25
HETATM   25  C   UNL     1      34.565  50.668  41.093  1.00  0.00     0.067 A 
HETATM   26  N   UNL     1      35.177  50.450  42.296  1.00  0.00    -0.263 NA
HETATM   27  C   UNL     1      36.525  50.576  42.345  1.00  0.00     0.117 A 
HETATM   28  C   UNL     1      37.300  50.934  41.259  1.00  0.00     0.019 A 
HETATM   29  C   UNL     1      36.662  51.181  40.050  1.00  0.00     0.003 A 
HETATM   30  C   UNL     1      35.278  51.054  39.961  1.00  0.00     0.030 A 
ENDBRANCH   1  25
BRANCH   5  31
HETATM   31  C   UNL     1      30.844  53.492  40.388  1.00  0.00     0.168 C 
BRANCH  31  32
HETATM   32  C   UNL     1      29.337  53.219  40.440  1.00  0.00     0.140 C 
HETATM   33  O   UNL     1      28.910  52.436  39.300  1.00  0.00    -0.384 OA
HETATM   34  C   UNL     1      27.870  51.545  39.746  1.00  0.00     0.168 C 
HETATM   35  C   UNL     1      27.598  51.854  41.203  1.00  0.00     0.029 C 
HETATM   36  C   UNL     1      28.919  52.420  41.663  1.00  0.00     0.036 C 
ENDBRANCH  31  32
ENDBRANCH   5  31
TORSDOF 6
ENDMDL
MODEL 2
REMARK VINA RESULT:      -8.5      2.186      7.584
REMARK  6 active torsions:
REMARK  status: ('A' for Active; 'I' for Inactive)
REMARK    1  A    between atoms: C_6  and  C_7 
REMARK    2  A    between atoms: C_7  and  N_8 
REMARK    3  A    between atoms: C_12  and  C_13 
REMARK    4  A    between atoms: C_13  and  C_14 
REMARK    5  A    between atoms: N_23  and  C_24 
REMARK    6  A    between atoms: C_24  and  C_25 
ROOT
HETATM    1  C   UNL     1      29.031  48.646  39.264  1.00  0.00     0.149 C 
HETATM    2  N   UNL     1      28.864  48.573  40.708  1.00  0.00    -0.220 NA
HETATM    3  C   UNL     1      28.223  49.692  41.192  1.00  0.00     0.304 C 
HETATM    4  O   UNL     1      27.760  49.751  42.317  1.00  0.00    -0.253 OA
HETATM    5  N   UNL     1      28.200  50.643  40.226  1.00  0.00    -0.270 N 
HETATM    6  C   UNL     1      28.581  50.105  39.030  1.00  0.00     0.257 C 
HETATM    7  O   UNL     1      28.598  50.680  37.949  1.00  0.00    -0.270 OA
HETATM    8  H   UNL     1      28.484  47.709  41.091  1.00  0.00     0.134 HD
ENDROOT
BRANCH   1   9
HETATM    9  C   UNL     1      30.514  48.432  38.814  1.00  0.00     0.028 C 
HETATM   10  C   UNL     1      31.308  47.423  39.668  1.00  0.00     0.035 C 
HETATM   11  C   UNL     1      31.750  47.963  41.023  1.00  0.00     0.235 C 
HETATM   12  N   UNL     1      32.530  49.245  40.847  1.00  0.00    -0.067 N 
HETATM   13  H   UNL     1      33.392  49.000  40.346  1.00  0.00     0.280 HD
HETATM   14  C   UNL     1      31.805  50.293  40.041  1.00  0.00     0.235 C 
HETATM   15  C   UNL     1      31.360  49.720  38.704  1.00  0.00     0.035 C 
BRANCH  12  16
HETATM   16  C   UNL     1      32.969  49.834  42.180  1.00  0.00     0.273 C 
BRANCH  16  17
HETATM   17  C   UNL     1      34.312  50.519  42.136  1.00  0.00    -0.027 A 
HETATM   18  C   UNL     1      34.690  51.506  43.071  1.00  0.00    -0.054 A 
HETATM   19  C   UNL     1      35.956  52.109  42.960  1.00  0.00     0.014 A 
HETATM   20  C   UNL     1      33.776  51.970  44.175  1.00  0.00     0.049 C 
HETATM   21  C   UNL     1      36.845  51.755  41.941  1.00  0.00    -0.061 A 
HETATM   22  C   UNL     1      38.187  52.417  41.823  1.00  0.00     0.048 C 
HETATM   23  C   UNL     1      36.468  50.773  41.024  1.00  0.00     0.007 A 
HETATM   24  C   UNL     1      35.216  50.163  41.117  1.00  0.00     0.010 A 
ENDBRANCH  16  17
ENDBRANCH  12  16
ENDBRANCH   1   9
BRANCH   1  25
HETATM   25  C   UNL     1      28.082  47.637  38.615  1.00  0.00     0.067 A 
HETATM   26  N   UNL     1      26.754  47.842  38.870  1.00  0.00    -0.263 NA
HETATM   27  C   UNL     1      25.869  46.982  38.312  1.00  0.00     0.117 A 
HETATM   28  C   UNL     1      26.236  45.906  37.529  1.00  0.00     0.019 A 
HETATM   29  C   UNL     1      27.591  45.691  37.302  1.00  0.00     0.003 A 
HETATM   30  C   UNL     1      28.529  46.560  37.854  1.00  0.00     0.030 A 
ENDBRANCH   1  25
BRANCH   5  31
HETATM   31  C   UNL     1      27.686  51.990  40.405  1.00  0.00     0.168 C 
BRANCH  31  32
HETATM   32  C   UNL     1      28.746  52.950  40.957  1.00  0.00     0.140 C 
HETATM   33  O   UNL     1      29.459  52.355  42.067  1.00  0.00    -0.384 OA
HETATM   34  C   UNL     1      30.829  52.796  41.994  1.00  0.00     0.168 C 
HETATM   35  C   UNL     1      30.935  53.765  40.834  1.00  0.00     0.029 C 
HETATM   36  C   UNL     1      29.810  53.313  39.936  1.00  0.00     0.036 C 
ENDBRANCH  31  32
ENDBRANCH   5  31
TORSDOF 6
ENDMDL
MODEL 3
REMARK VINA RESULT:      -8.5      2.293      7.548
REMARK  6 active torsions:
REMARK  status: ('A' for Active; 'I' for Inactive)
REMARK    1  A    between atoms: C_6  and  C_7 
REMARK    2  A    between atoms: C_7  and  N_8 
REMARK    3  A    between atoms: C_12  and  C_13 
REMARK    4  A    between atoms: C_13  and  C_14 
REMARK    5  A    between atoms: N_23  and  C_24 
REMARK    6  A    between atoms: C_24  and  C_25 
ROOT
HETATM    1  C   UNL     1      28.006  47.957  40.191  1.00  0.00     0.149 C 
HETATM    2  N   UNL     1      28.802  48.161  38.989  1.00  0.00    -0.220 NA
HETATM    3  C   UNL     1      30.149  48.098  39.268  1.00  0.00     0.304 C 
HETATM    4  O   UNL     1      30.997  47.998  38.399  1.00  0.00    -0.253 OA
HETATM    5  N   UNL     1      30.328  48.153  40.610  1.00  0.00    -0.270 N 
HETATM    6  C   UNL     1      29.131  47.995  41.249  1.00  0.00     0.257 C 
HETATM    7  O   UNL     1      28.959  47.926  42.460  1.00  0.00    -0.270 OA
HETATM    8  H   UNL     1      28.547  47.621  38.164  1.00  0.00     0.134 HD
ENDROOT
BRANCH   1   9
HETATM    9  C   UNL     1      26.966  49.100  40.431  1.00  0.00     0.028 C 
HETATM   10  C   UNL     1      26.302  49.646  39.150  1.00  0.00     0.035 C 
HETATM   11  C   UNL     1      27.194  50.569  38.329  1.00  0.00     0.235 C 
HETATM   12  N   UNL     1      27.709  51.700  39.187  1.00  0.00    -0.067 N 
HETATM   13  H   UNL     1      26.894  52.262  39.458  1.00  0.00     0.280 HD
HETATM   14  C   UNL     1      28.396  51.242  40.450  1.00  0.00     0.235 C 
HETATM   15  C   UNL     1      27.491  50.308  41.238  1.00  0.00     0.035 C 
BRANCH  12  16
HETATM   16  C   UNL     1      28.628  52.634  38.412  1.00  0.00     0.273 C 
BRANCH  16  17
HETATM   17  C   UNL     1      30.096  52.384  38.645  1.00  0.00    -0.027 A 
HETATM   18  C   UNL     1      30.828  53.048  39.653  1.00  0.00    -0.054 A 
HETATM   19  C   UNL     1      32.198  52.771  39.804  1.00  0.00     0.014 A 
HETATM   20  C   UNL     1      30.206  54.074  40.564  1.00  0.00     0.049 C 
HETATM   21  C   UNL     1      32.852  51.857  38.973  1.00  0.00    -0.061 A 
HETATM   22  C   UNL     1      34.320  51.582  39.133  1.00  0.00     0.048 C 
HETATM   23  C   UNL     1      32.123  51.198  37.983  1.00  0.00     0.007 A 
HETATM   24  C   UNL     1      30.762  51.459  37.818  1.00  0.00     0.010 A 
ENDBRANCH  16  17
ENDBRANCH  12  16
ENDBRANCH   1   9
BRANCH   1  25
HETATM   25  C   UNL     1      27.341  46.582  40.104  1.00  0.00     0.067 A 
HETATM   26  N   UNL     1      27.369  46.002  38.865  1.00  0.00    -0.263 NA
HETATM   27  C   UNL     1      26.802  44.780  38.733  1.00  0.00     0.117 A 
HETATM   28  C   UNL     1      26.180  44.108  39.768  1.00  0.00     0.019 A 
HETATM   29  C   UNL     1      26.132  44.722  41.014  1.00  0.00     0.003 A 
HETATM   30  C   UNL     1      26.712  45.976  41.188  1.00  0.00     0.030 A 
ENDBRANCH   1  25
BRANCH   5  31
HETATM   31  C   UNL     1      31.622  48.204  41.270  1.00  0.00     0.168 C 
BRANCH  31  32
HETATM   32  C   UNL     1      32.031  49.633  41.642  1.00  0.00     0.140 C 
HETATM   33  O   UNL     1      31.338  50.081  42.831  1.00  0.00    -0.384 OA
HETATM   34  C   UNL     1      32.247  50.909  43.581  1.00  0.00     0.168 C 
HETATM   35  C   UNL     1      33.523  51.034  42.774  1.00  0.00     0.029 C 
HETATM   36  C   UNL     1      33.511  49.765  41.957  1.00  0.00     0.036 C 
ENDBRANCH  31  32
ENDBRANCH   5  31
TORSDOF 6
ENDMDL
MODEL 4
REMARK VINA RESULT:      -8.4     11.148     12.649
REMARK  6 active torsions:
REMARK  status: ('A' for Active; 'I' for Inactive)
REMARK    1  A    between atoms: C_6  and  C_7 
REMARK    2  A    between atoms: C_7  and  N_8 
REMARK    3  A    between atoms: C_12  and  C_13 
REMARK    4  A    between atoms: C_13  and  C_14 
REMARK    5  A    between atoms: N_23  and  C_24 
REMARK    6  A    between atoms: C_24  and  C_25 
ROOT
HETATM    1  C   UNL     1      26.616  43.549  51.262  1.00  0.00     0.149 C 
HETATM    2  N   UNL     1      27.277  44.153  50.115  1.00  0.00    -0.220 NA
HETATM    3  C   UNL     1      26.866  45.455  49.932  1.00  0.00     0.304 C 
HETATM    4  O   UNL     1      27.448  46.232  49.197  1.00  0.00    -0.253 OA
HETATM    5  N   UNL     1      25.767  45.684  50.692  1.00  0.00    -0.270 N 
HETATM    6  C   UNL     1      25.581  44.654  51.569  1.00  0.00     0.257 C 
HETATM    7  O   UNL     1      24.722  44.589  52.439  1.00  0.00    -0.270 OA
HETATM    8  H   UNL     1      28.289  44.050  50.051  1.00  0.00     0.134 HD
ENDROOT
BRANCH   1   9
HETATM    9  C   UNL     1      25.912  42.196  50.912  1.00  0.00     0.028 C 
HETATM   10  C   UNL     1      26.781  40.941  51.130  1.00  0.00     0.035 C 
HETATM   11  C   UNL     1      27.839  40.720  50.055  1.00  0.00     0.235 C 
HETATM   12  N   UNL     1      27.198  40.696  48.688  1.00  0.00    -0.067 N 
HETATM   13  H   UNL     1      26.590  39.869  48.660  1.00  0.00     0.280 HD
HETATM   14  C   UNL     1      26.349  41.907  48.391  1.00  0.00     0.235 C 
HETATM   15  C   UNL     1      25.318  42.113  49.489  1.00  0.00     0.035 C 
BRANCH  12  16
HETATM   16  C   UNL     1      28.223  40.503  47.579  1.00  0.00     0.273 C 
BRANCH  16  17
HETATM   17  C   UNL     1      28.071  39.210  46.819  1.00  0.00    -0.027 A 
HETATM   18  C   UNL     1      28.623  37.993  47.273  1.00  0.00    -0.054 A 
HETATM   19  C   UNL     1      28.448  36.829  46.504  1.00  0.00     0.014 A 
HETATM   20  C   UNL     1      29.427  37.891  48.543  1.00  0.00     0.049 C 
HETATM   21  C   UNL     1      27.743  36.852  45.296  1.00  0.00    -0.061 A 
HETATM   22  C   UNL     1      27.577  35.606  44.476  1.00  0.00     0.048 C 
HETATM   23  C   UNL     1      27.193  38.056  44.856  1.00  0.00     0.007 A 
HETATM   24  C   UNL     1      27.356  39.223  45.606  1.00  0.00     0.010 A 
ENDBRANCH  16  17
ENDBRANCH  12  16
ENDBRANCH   1   9
BRANCH   1  25
HETATM   25  C   UNL     1      27.643  43.389  52.384  1.00  0.00     0.067 A 
HETATM   26  N   UNL     1      27.121  43.357  53.648  1.00  0.00    -0.263 NA
HETATM   27  C   UNL     1      27.986  43.208  54.680  1.00  0.00     0.117 A 
HETATM   28  C   UNL     1      29.355  43.114  54.523  1.00  0.00     0.019 A 
HETATM   29  C   UNL     1      29.875  43.178  53.236  1.00  0.00     0.003 A 
HETATM   30  C   UNL     1      29.014  43.323  52.151  1.00  0.00     0.030 A 
ENDBRANCH   1  25
BRANCH   5  31
HETATM   31  C   UNL     1      25.002  46.920  50.687  1.00  0.00     0.168 C 
BRANCH  31  32
HETATM   32  C   UNL     1      24.226  47.119  49.381  1.00  0.00     0.140 C 
HETATM   33  O   UNL     1      23.341  46.003  49.125  1.00  0.00    -0.384 OA
HETATM   34  C   UNL     1      22.147  46.523  48.510  1.00  0.00     0.168 C 
HETATM   35  C   UNL     1      22.348  48.011  48.311  1.00  0.00     0.029 C 
HETATM   36  C   UNL     1      23.335  48.350  49.400  1.00  0.00     0.036 C 
ENDBRANCH  31  32
ENDBRANCH   5  31
TORSDOF 6
ENDMDL
MODEL 5
REMARK VINA RESULT:      -8.3     12.908     16.252
REMARK  6 active torsions:
REMARK  status: ('A' for Active; 'I' for Inactive)
REMARK    1  A    between atoms: C_6  and  C_7 
REMARK    2  A    between atoms: C_7  and  N_8 
REMARK    3  A    between atoms: C_12  and  C_13 
REMARK    4  A    between atoms: C_13  and  C_14 
REMARK    5  A    between atoms: N_23  and  C_24 
REMARK    6  A    between atoms: C_24  and  C_25 
ROOT
HETATM    1  C   UNL     1      20.177  49.788  48.277  1.00  0.00     0.149 C 
HETATM    2  N   UNL     1      19.551  49.693  49.588  1.00  0.00    -0.220 NA
HETATM    3  C   UNL     1      18.881  48.498  49.734  1.00  0.00     0.304 C 
HETATM    4  O   UNL     1      18.489  48.091  50.813  1.00  0.00    -0.253 OA
HETATM    5  N   UNL     1      18.764  47.905  48.521  1.00  0.00    -0.270 N 
HETATM    6  C   UNL     1      19.556  48.541  47.609  1.00  0.00     0.257 C 
HETATM    7  O   UNL     1      19.731  48.209  46.443  1.00  0.00    -0.270 OA
HETATM    8  H   UNL     1      20.127  49.919  50.397  1.00  0.00     0.134 HD
ENDROOT
BRANCH   1   9
HETATM    9  C   UNL     1      19.783  51.094  47.511  1.00  0.00     0.028 C 
HETATM   10  C   UNL     1      19.611  52.339  48.406  1.00  0.00     0.035 C 
HETATM   11  C   UNL     1      18.311  52.361  49.202  1.00  0.00     0.235 C 
HETATM   12  N   UNL     1      17.128  52.199  48.278  1.00  0.00    -0.067 N 
HETATM   13  H   UNL     1      17.105  53.031  47.677  1.00  0.00     0.280 HD
HETATM   14  C   UNL     1      17.212  50.985  47.386  1.00  0.00     0.235 C 
HETATM   15  C   UNL     1      18.526  50.981  46.620  1.00  0.00     0.035 C 
BRANCH  12  16
HETATM   16  C   UNL     1      15.808  52.188  49.036  1.00  0.00     0.273 C 
BRANCH  16  17
HETATM   17  C   UNL     1      15.243  53.560  49.304  1.00  0.00    -0.027 A 
HETATM   18  C   UNL     1      14.507  54.280  48.338  1.00  0.00    -0.054 A 
HETATM   19  C   UNL     1      14.020  55.560  48.658  1.00  0.00     0.014 A 
HETATM   20  C   UNL     1      14.245  53.745  46.954  1.00  0.00     0.049 C 
HETATM   21  C   UNL     1      14.254  56.137  49.910  1.00  0.00    -0.061 A 
HETATM   22  C   UNL     1      13.742  57.511  50.234  1.00  0.00     0.048 C 
HETATM   23  C   UNL     1      14.975  55.418  50.863  1.00  0.00     0.007 A 
HETATM   24  C   UNL     1      15.466  54.146  50.565  1.00  0.00     0.010 A 
ENDBRANCH  16  17
ENDBRANCH  12  16
ENDBRANCH   1   9
BRANCH   1  25
HETATM   25  C   UNL     1      21.691  49.658  48.452  1.00  0.00     0.067 A 
HETATM   26  N   UNL     1      22.099  48.579  49.186  1.00  0.00    -0.263 NA
HETATM   27  C   UNL     1      23.431  48.411  49.364  1.00  0.00     0.117 A 
HETATM   28  C   UNL     1      24.385  49.278  48.870  1.00  0.00     0.019 A 
HETATM   29  C   UNL     1      23.955  50.387  48.151  1.00  0.00     0.003 A 
HETATM   30  C   UNL     1      22.593  50.588  47.942  1.00  0.00     0.030 A 
ENDBRANCH   1  25
BRANCH   5  31
HETATM   31  C   UNL     1      18.034  46.673  48.271  1.00  0.00     0.168 C 
BRANCH  31  32
HETATM   32  C   UNL     1      16.613  46.931  47.758  1.00  0.00     0.140 C 
HETATM   33  O   UNL     1      15.949  47.942  48.552  1.00  0.00    -0.384 OA
HETATM   34  C   UNL     1      15.118  48.718  47.666  1.00  0.00     0.168 C 
HETATM   35  C   UNL     1      15.223  48.101  46.287  1.00  0.00     0.029 C 
HETATM   36  C   UNL     1      16.581  47.447  46.330  1.00  0.00     0.036 C 
ENDBRANCH  31  32
ENDBRANCH   5  31
TORSDOF 6
ENDMDL
MODEL 6
REMARK VINA RESULT:      -8.2     24.981     27.103
REMARK  6 active torsions:
REMARK  status: ('A' for Active; 'I' for Inactive)
REMARK    1  A    between atoms: C_6  and  C_7 
REMARK    2  A    between atoms: C_7  and  N_8 
REMARK    3  A    between atoms: C_12  and  C_13 
REMARK    4  A    between atoms: C_13  and  C_14 
REMARK    5  A    between atoms: N_23  and  C_24 
REMARK    6  A    between atoms: C_24  and  C_25 
ROOT
HETATM    1  C   UNL     1      39.271  42.797  64.399  1.00  0.00     0.149 C 
HETATM    2  N   UNL     1      39.592  43.194  65.762  1.00  0.00    -0.220 NA
HETATM    3  C   UNL     1      38.450  43.366  66.513  1.00  0.00     0.304 C 
HETATM    4  O   UNL     1      38.468  43.460  67.727  1.00  0.00    -0.253 OA
HETATM    5  N   UNL     1      37.376  43.396  65.686  1.00  0.00    -0.270 N 
HETATM    6  C   UNL     1      37.739  42.996  64.432  1.00  0.00     0.257 C 
HETATM    7  O   UNL     1      36.991  42.844  63.474  1.00  0.00    -0.270 OA
HETATM    8  H   UNL     1      40.303  42.652  66.251  1.00  0.00     0.134 HD
ENDROOT
BRANCH   1   9
HETATM    9  C   UNL     1      39.937  43.720  63.326  1.00  0.00     0.028 C 
HETATM   10  C   UNL     1      41.469  43.855  63.453  1.00  0.00     0.035 C 
HETATM   11  C   UNL     1      41.924  44.767  64.586  1.00  0.00     0.235 C 
HETATM   12  N   UNL     1      41.277  46.126  64.456  1.00  0.00    -0.067 N 
HETATM   13  H   UNL     1      41.640  46.546  63.592  1.00  0.00     0.280 HD
HETATM   14  C   UNL     1      39.773  46.077  64.352  1.00  0.00     0.235 C 
HETATM   15  C   UNL     1      39.349  45.145  63.228  1.00  0.00     0.035 C 
BRANCH  12  16
HETATM   16  C   UNL     1      41.684  47.063  65.584  1.00  0.00     0.273 C 
BRANCH  16  17
HETATM   17  C   UNL     1      40.709  48.187  65.832  1.00  0.00    -0.027 A 
HETATM   18  C   UNL     1      40.414  48.663  67.127  1.00  0.00    -0.054 A 
HETATM   19  C   UNL     1      39.485  49.708  67.280  1.00  0.00     0.014 A 
HETATM   20  C   UNL     1      41.031  48.074  68.368  1.00  0.00     0.049 C 
HETATM   21  C   UNL     1      38.844  50.281  66.177  1.00  0.00    -0.061 A 
HETATM   22  C   UNL     1      37.843  51.385  66.355  1.00  0.00     0.048 C 
HETATM   23  C   UNL     1      39.146  49.811  64.899  1.00  0.00     0.007 A 
HETATM   24  C   UNL     1      40.065  48.775  64.726  1.00  0.00     0.010 A 
ENDBRANCH  16  17
ENDBRANCH  12  16
ENDBRANCH   1   9
BRANCH   1  25
HETATM   25  C   UNL     1      39.661  41.329  64.217  1.00  0.00     0.067 A 
HETATM   26  N   UNL     1      40.359  40.781  65.258  1.00  0.00    -0.263 NA
HETATM   27  C   UNL     1      40.722  39.481  65.154  1.00  0.00     0.117 A 
HETATM   28  C   UNL     1      40.448  38.696  64.050  1.00  0.00     0.019 A 
HETATM   29  C   UNL     1      39.765  39.274  62.987  1.00  0.00     0.003 A 
HETATM   30  C   UNL     1      39.369  40.607  63.063  1.00  0.00     0.030 A 
ENDBRANCH   1  25
BRANCH   5  31
HETATM   31  C   UNL     1      36.011  43.654  66.113  1.00  0.00     0.168 C 
BRANCH  31  32
HETATM   32  C   UNL     1      35.687  45.151  66.155  1.00  0.00     0.140 C 
HETATM   33  O   UNL     1      36.300  45.785  67.302  1.00  0.00    -0.384 OA
HETATM   34  C   UNL     1      36.706  47.109  66.906  1.00  0.00     0.168 C 
HETATM   35  C   UNL     1      36.248  47.317  65.477  1.00  0.00     0.029 C 
HETATM   36  C   UNL     1      36.208  45.907  64.944  1.00  0.00     0.036 C 
ENDBRANCH  31  32
ENDBRANCH   5  31
TORSDOF 6
ENDMDL
MODEL 7
REMARK VINA RESULT:      -8.2     11.402     15.178
REMARK  6 active torsions:
REMARK  status: ('A' for Active; 'I' for Inactive)
REMARK    1  A    between atoms: C_6  and  C_7 
REMARK    2  A    between atoms: C_7  and  N_8 
REMARK    3  A    between atoms: C_12  and  C_13 
REMARK    4  A    between atoms: C_13  and  C_14 
REMARK    5  A    between atoms: N_23  and  C_24 
REMARK    6  A    between atoms: C_24  and  C_25 
ROOT
HETATM    1  C   UNL     1      18.004  50.841  48.607  1.00  0.00     0.149 C 
HETATM    2  N   UNL     1      18.787  51.235  47.444  1.00  0.00    -0.220 NA
HETATM    3  C   UNL     1      18.523  50.419  46.367  1.00  0.00     0.304 C 
HETATM    4  O   UNL     1      18.868  50.695  45.232  1.00  0.00    -0.253 OA
HETATM    5  N   UNL     1      17.839  49.330  46.793  1.00  0.00    -0.270 N 
HETATM    6  C   UNL     1      17.417  49.514  48.079  1.00  0.00     0.257 C 
HETATM    7  O   UNL     1      16.714  48.750  48.728  1.00  0.00    -0.270 OA
HETATM    8  H   UNL     1      18.788  52.224  47.196  1.00  0.00     0.134 HD
ENDROOT
BRANCH   1   9
HETATM    9  C   UNL     1      18.885  50.603  49.878  1.00  0.00     0.028 C 
HETATM   10  C   UNL     1      20.304  51.203  49.801  1.00  0.00     0.035 C 
HETATM   11  C   UNL     1      21.270  50.410  48.928  1.00  0.00     0.235 C 
HETATM   12  N   UNL     1      21.323  48.970  49.378  1.00  0.00    -0.067 N 
HETATM   13  H   UNL     1      21.729  48.969  50.322  1.00  0.00     0.280 HD
HETATM   14  C   UNL     1      19.970  48.306  49.455  1.00  0.00     0.235 C 
HETATM   15  C   UNL     1      19.023  49.128  50.315  1.00  0.00     0.035 C 
BRANCH  12  16
HETATM   16  C   UNL     1      22.257  48.134  48.516  1.00  0.00     0.273 C 
BRANCH  16  17
HETATM   17  C   UNL     1      23.717  48.470  48.688  1.00  0.00    -0.027 A 
HETATM   18  C   UNL     1      24.591  47.678  49.464  1.00  0.00    -0.054 A 
HETATM   19  C   UNL     1      25.939  48.061  49.588  1.00  0.00     0.014 A 
HETATM   20  C   UNL     1      24.132  46.446  50.199  1.00  0.00     0.049 C 
HETATM   21  C   UNL     1      26.430  49.211  48.964  1.00  0.00    -0.061 A 
HETATM   22  C   UNL     1      27.867  49.618  49.117  1.00  0.00     0.048 C 
HETATM   23  C   UNL     1      25.563  49.986  48.192  1.00  0.00     0.007 A 
HETATM   24  C   UNL     1      24.222  49.623  48.057  1.00  0.00     0.010 A 
ENDBRANCH  16  17
ENDBRANCH  12  16
ENDBRANCH   1   9
BRANCH   1  25
HETATM   25  C   UNL     1      16.925  51.899  48.846  1.00  0.00     0.067 A 
HETATM   26  N   UNL     1      16.041  52.068  47.816  1.00  0.00    -0.263 NA
HETATM   27  C   UNL     1      15.058  52.985  47.978  1.00  0.00     0.117 A 
HETATM   28  C   UNL     1      14.921  53.769  49.107  1.00  0.00     0.019 A 
HETATM   29  C   UNL     1      15.844  53.608  50.134  1.00  0.00     0.003 A 
HETATM   30  C   UNL     1      16.863  52.668  50.005  1.00  0.00     0.030 A 
ENDBRANCH   1  25
BRANCH   5  31
HETATM   31  C   UNL     1      17.467  48.206  45.950  1.00  0.00     0.168 C 
BRANCH  31  32
HETATM   32  C   UNL     1      18.545  47.116  45.923  1.00  0.00     0.140 C 
HETATM   33  O   UNL     1      18.415  46.228  47.058  1.00  0.00    -0.384 OA
HETATM   34  C   UNL     1      18.766  44.901  46.618  1.00  0.00     0.168 C 
HETATM   35  C   UNL     1      19.204  45.002  45.171  1.00  0.00     0.029 C 
HETATM   36  C   UNL     1      18.460  46.225  44.696  1.00  0.00     0.036 C 
ENDBRANCH  31  32
ENDBRANCH   5  31
TORSDOF 6
ENDMDL
MODEL 8
REMARK VINA RESULT:      -8.1     25.056     26.914
REMARK  6 active torsions:
REMARK  status: ('A' for Active; 'I' for Inactive)
REMARK    1  A    between atoms: C_6  and  C_7 
REMARK    2  A    between atoms: C_7  and  N_8 
REMARK    3  A    between atoms: C_12  and  C_13 
REMARK    4  A    between atoms: C_13  and  C_14 
REMARK    5  A    between atoms: N_23  and  C_24 
REMARK    6  A    between atoms: C_24  and  C_25 
ROOT
HETATM    1  C   UNL     1      38.037  49.052  66.504  1.00  0.00     0.149 C 
HETATM    2  N   UNL     1      38.410  48.235  67.649  1.00  0.00    -0.220 NA
HETATM    3  C   UNL     1      39.743  47.893  67.604  1.00  0.00     0.304 C 
HETATM    4  O   UNL     1      40.335  47.424  68.560  1.00  0.00    -0.253 OA
HETATM    5  N   UNL     1      40.231  48.174  66.372  1.00  0.00    -0.270 N 
HETATM    6  C   UNL     1      39.333  48.927  65.672  1.00  0.00     0.257 C 
HETATM    7  O   UNL     1      39.500  49.406  64.557  1.00  0.00    -0.270 OA
HETATM    8  H   UNL     1      38.121  48.563  68.570  1.00  0.00     0.134 HD
ENDROOT
BRANCH   1   9
HETATM    9  C   UNL     1      36.808  48.479  65.725  1.00  0.00     0.028 C 
HETATM   10  C   UNL     1      35.704  47.875  66.616  1.00  0.00     0.035 C 
HETATM   11  C   UNL     1      36.041  46.502  67.184  1.00  0.00     0.235 C 
HETATM   12  N   UNL     1      36.408  45.550  66.070  1.00  0.00    -0.067 N 
HETATM   13  H   UNL     1      35.564  45.420  65.501  1.00  0.00     0.280 HD
HETATM   14  C   UNL     1      37.503  46.062  65.168  1.00  0.00     0.235 C 
HETATM   15  C   UNL     1      37.148  47.440  64.632  1.00  0.00     0.035 C 
BRANCH  12  16
HETATM   16  C   UNL     1      36.778  44.171  66.596  1.00  0.00     0.273 C 
BRANCH  16  17
HETATM   17  C   UNL     1      37.455  43.286  65.579  1.00  0.00    -0.027 A 
HETATM   18  C   UNL     1      38.728  42.717  65.796  1.00  0.00    -0.054 A 
HETATM   19  C   UNL     1      39.301  41.911  64.795  1.00  0.00     0.014 A 
HETATM   20  C   UNL     1      39.524  42.964  67.051  1.00  0.00     0.049 C 
HETATM   21  C   UNL     1      38.637  41.666  63.589  1.00  0.00    -0.061 A 
HETATM   22  C   UNL     1      39.266  40.816  62.523  1.00  0.00     0.048 C 
HETATM   23  C   UNL     1      37.376  42.225  63.384  1.00  0.00     0.007 A 
HETATM   24  C   UNL     1      36.791  43.027  64.364  1.00  0.00     0.010 A 
ENDBRANCH  16  17
ENDBRANCH  12  16
ENDBRANCH   1   9
BRANCH   1  25
HETATM   25  C   UNL     1      37.795  50.483  66.988  1.00  0.00     0.067 A 
HETATM   26  N   UNL     1      37.459  50.599  68.308  1.00  0.00    -0.263 NA
HETATM   27  C   UNL     1      37.242  51.845  68.792  1.00  0.00     0.117 A 
HETATM   28  C   UNL     1      37.317  52.990  68.022  1.00  0.00     0.019 A 
HETATM   29  C   UNL     1      37.630  52.855  66.675  1.00  0.00     0.003 A 
HETATM   30  C   UNL     1      37.867  51.589  66.145  1.00  0.00     0.030 A 
ENDBRANCH   1  25
BRANCH   5  31
HETATM   31  C   UNL     1      41.579  47.862  65.926  1.00  0.00     0.168 C 
BRANCH  31  32
HETATM   32  C   UNL     1      41.590  46.913  64.722  1.00  0.00     0.140 C 
HETATM   33  O   UNL     1      42.942  46.640  64.286  1.00  0.00    -0.384 OA
HETATM   34  C   UNL     1      42.991  45.270  63.842  1.00  0.00     0.168 C 
HETATM   35  C   UNL     1      41.587  44.709  63.940  1.00  0.00     0.029 C 
HETATM   36  C   UNL     1      40.978  45.556  65.029  1.00  0.00     0.036 C 
ENDBRANCH  31  32
ENDBRANCH   5  31
TORSDOF 6
ENDMDL
MODEL 9
REMARK VINA RESULT:      -8.0      2.450      7.554
REMARK  6 active torsions:
REMARK  status: ('A' for Active; 'I' for Inactive)
REMARK    1  A    between atoms: C_6  and  C_7 
REMARK    2  A    between atoms: C_7  and  N_8 
REMARK    3  A    between atoms: C_12  and  C_13 
REMARK    4  A    between atoms: C_13  and  C_14 
REMARK    5  A    between atoms: N_23  and  C_24 
REMARK    6  A    between atoms: C_24  and  C_25 
ROOT
HETATM    1  C   UNL     1      27.296  49.381  39.769  1.00  0.00     0.149 C 
HETATM    2  N   UNL     1      27.295  50.205  40.969  1.00  0.00    -0.220 NA
HETATM    3  C   UNL     1      27.525  51.528  40.665  1.00  0.00     0.304 C 
HETATM    4  O   UNL     1      27.333  52.429  41.461  1.00  0.00    -0.253 OA
HETATM    5  N   UNL     1      27.966  51.619  39.387  1.00  0.00    -0.270 N 
HETATM    6  C   UNL     1      27.796  50.425  38.746  1.00  0.00     0.257 C 
HETATM    7  O   UNL     1      28.027  50.196  37.565  1.00  0.00    -0.270 OA
HETATM    8  H   UNL     1      26.520  50.082  41.619  1.00  0.00     0.134 HD
ENDROOT
BRANCH   1   9
HETATM    9  C   UNL     1      28.280  48.169  39.867  1.00  0.00     0.028 C 
HETATM   10  C   UNL     1      28.280  47.446  41.229  1.00  0.00     0.035 C 
HETATM   11  C   UNL     1      29.020  48.193  42.332  1.00  0.00     0.235 C 
HETATM   12  N   UNL     1      30.431  48.510  41.894  1.00  0.00    -0.067 N 
HETATM   13  H   UNL     1      30.917  47.611  41.787  1.00  0.00     0.280 HD
HETATM   14  C   UNL     1      30.511  49.241  40.577  1.00  0.00     0.235 C 
HETATM   15  C   UNL     1      29.748  48.483  39.503  1.00  0.00     0.035 C 
BRANCH  12  16
HETATM   16  C   UNL     1      31.200  49.280  42.958  1.00  0.00     0.273 C 
BRANCH  16  17
HETATM   17  C   UNL     1      32.553  49.769  42.505  1.00  0.00    -0.027 A 
HETATM   18  C   UNL     1      33.165  50.918  43.050  1.00  0.00    -0.054 A 
HETATM   19  C   UNL     1      34.424  51.320  42.568  1.00  0.00     0.014 A 
HETATM   20  C   UNL     1      32.509  51.761  44.112  1.00  0.00     0.049 C 
HETATM   21  C   UNL     1      35.079  50.608  41.559  1.00  0.00    -0.061 A 
HETATM   22  C   UNL     1      36.416  51.056  41.042  1.00  0.00     0.048 C 
HETATM   23  C   UNL     1      34.473  49.469  41.029  1.00  0.00     0.007 A 
HETATM   24  C   UNL     1      33.223  49.054  41.494  1.00  0.00     0.010 A 
ENDBRANCH  16  17
ENDBRANCH  12  16
ENDBRANCH   1   9
BRANCH   1  25
HETATM   25  C   UNL     1      25.860  48.935  39.486  1.00  0.00     0.067 A 
HETATM   26  N   UNL     1      25.040  49.906  38.980  1.00  0.00    -0.263 NA
HETATM   27  C   UNL     1      23.760  49.562  38.703  1.00  0.00     0.117 A 
HETATM   28  C   UNL     1      23.239  48.303  38.927  1.00  0.00     0.019 A 
HETATM   29  C   UNL     1      24.075  47.334  39.470  1.00  0.00     0.003 A 
HETATM   30  C   UNL     1      25.400  47.650  39.761  1.00  0.00     0.030 A 
ENDBRANCH   1  25
BRANCH   5  31
HETATM   31  C   UNL     1      28.398  52.851  38.747  1.00  0.00     0.168 C 
BRANCH  31  32
HETATM   32  C   UNL     1      29.839  53.223  39.113  1.00  0.00     0.140 C 
HETATM   33  O   UNL     1      29.909  53.785  40.444  1.00  0.00    -0.384 OA
HETATM   34  C   UNL     1      31.145  53.344  41.040  1.00  0.00     0.168 C 
HETATM   35  C   UNL     1      31.895  52.543  39.996  1.00  0.00     0.029 C 
HETATM   36  C   UNL     1      30.777  52.028  39.124  1.00  0.00     0.036 C 
ENDBRANCH  31  32
ENDBRANCH   5  31
TORSDOF 6
ENDMDL
MODEL 10
REMARK VINA RESULT:      -7.9     11.496     14.585
REMARK  6 active torsions:
REMARK  status: ('A' for Active; 'I' for Inactive)
REMARK    1  A    between atoms: C_6  and  C_7 
REMARK    2  A    between atoms: C_7  and  N_8 
REMARK    3  A    between atoms: C_12  and  C_13 
REMARK    4  A    between atoms: C_13  and  C_14 
REMARK    5  A    between atoms: N_23  and  C_24 
REMARK    6  A    between atoms: C_24  and  C_25 
ROOT
HETATM    1  C   UNL     1      25.592  40.715  48.248  1.00  0.00     0.149 C 
HETATM    2  N   UNL     1      26.696  41.584  47.868  1.00  0.00    -0.220 NA
HETATM    3  C   UNL     1      27.630  40.904  47.118  1.00  0.00     0.304 C 
HETATM    4  O   UNL     1      28.507  41.468  46.490  1.00  0.00    -0.253 OA
HETATM    5  N   UNL     1      27.384  39.574  47.205  1.00  0.00    -0.270 N 
HETATM    6  C   UNL     1      26.165  39.359  47.782  1.00  0.00     0.257 C 
HETATM    7  O   UNL     1      25.619  38.274  47.940  1.00  0.00    -0.270 OA
HETATM    8  H   UNL     1      26.460  42.492  47.470  1.00  0.00     0.134 HD
ENDROOT
BRANCH   1   9
HETATM    9  C   UNL     1      25.323  40.716  49.790  1.00  0.00     0.028 C 
HETATM   10  C   UNL     1      24.744  42.034  50.343  1.00  0.00     0.035 C 
HETATM   11  C   UNL     1      25.765  43.158  50.476  1.00  0.00     0.235 C 
HETATM   12  N   UNL     1      26.942  42.701  51.305  1.00  0.00    -0.067 N 
HETATM   13  H   UNL     1      26.587  42.528  52.253  1.00  0.00     0.280 HD
HETATM   14  C   UNL     1      27.579  41.427  50.809  1.00  0.00     0.235 C 
HETATM   15  C   UNL     1      26.534  40.331  50.668  1.00  0.00     0.035 C 
BRANCH  12  16
HETATM   16  C   UNL     1      28.000  43.786  51.441  1.00  0.00     0.273 C 
BRANCH  16  17
HETATM   17  C   UNL     1      28.756  43.747  52.746  1.00  0.00    -0.027 A 
HETATM   18  C   UNL     1      28.350  44.485  53.879  1.00  0.00    -0.054 A 
HETATM   19  C   UNL     1      29.112  44.407  55.059  1.00  0.00     0.014 A 
HETATM   20  C   UNL     1      27.144  45.387  53.871  1.00  0.00     0.049 C 
HETATM   21  C   UNL     1      30.265  43.619  55.131  1.00  0.00    -0.061 A 
HETATM   22  C   UNL     1      31.078  43.556  56.392  1.00  0.00     0.048 C 
HETATM   23  C   UNL     1      30.656  42.886  54.011  1.00  0.00     0.007 A 
HETATM   24  C   UNL     1      29.913  42.950  52.831  1.00  0.00     0.010 A 
ENDBRANCH  16  17
ENDBRANCH  12  16
ENDBRANCH   1   9
BRANCH   1  25
HETATM   25  C   UNL     1      24.354  41.127  47.449  1.00  0.00     0.067 A 
HETATM   26  N   UNL     1      24.430  42.357  46.855  1.00  0.00    -0.263 NA
HETATM   27  C   UNL     1      23.365  42.767  46.126  1.00  0.00     0.117 A 
HETATM   28  C   UNL     1      22.209  42.026  45.976  1.00  0.00     0.019 A 
HETATM   29  C   UNL     1      22.134  40.791  46.609  1.00  0.00     0.003 A 
HETATM   30  C   UNL     1      23.213  40.334  47.360  1.00  0.00     0.030 A 
ENDBRANCH   1  25
BRANCH   5  31
HETATM   31  C   UNL     1      28.219  38.540  46.617  1.00  0.00     0.168 C 
BRANCH  31  32
HETATM   32  C   UNL     1      27.779  38.174  45.195  1.00  0.00     0.140 C 
HETATM   33  O   UNL     1      26.676  39.004  44.762  1.00  0.00    -0.384 OA
HETATM   34  C   UNL     1      26.845  39.258  43.353  1.00  0.00     0.168 C 
HETATM   35  C   UNL     1      28.063  38.483  42.894  1.00  0.00     0.029 C 
HETATM   36  C   UNL     1      28.874  38.379  44.162  1.00  0.00     0.036 C 
ENDBRANCH  31  32
ENDBRANCH   5  31
TORSDOF 6
ENDMDL
