MODEL 1
REMARK VINA RESULT:     -10.1      0.000      0.000
REMARK  6 active torsions:
REMARK  status: ('A' for Active; 'I' for Inactive)
REMARK    1  A    between atoms: C_2  and  O_3 
REMARK    2  A    between atoms: O_3  and  C_4 
REMARK    3  A    between atoms: C_5  and  O_6 
REMARK    4  A    between atoms: O_6  and  C_7 
REMARK    5  A    between atoms: C_7  and  C_8 
REMARK    6  A    between atoms: C_18  and  C_19 
ROOT
HETATM    1  C   UNL     1      25.749  46.297  51.196  1.00  0.00     0.103 A 
HETATM    2  C   UNL     1      26.014  45.131  50.463  1.00  0.00     0.112 A 
HETATM    3  C   UNL     1      25.273  44.805  49.328  1.00  0.00     0.041 A 
HETATM    4  C   UNL     1      24.251  45.653  48.909  1.00  0.00     0.014 A 
HETATM    5  C   UNL     1      23.973  46.839  49.608  1.00  0.00    -0.013 A 
HETATM    6  C   UNL     1      24.724  47.145  50.762  1.00  0.00     0.050 A 
ENDROOT
BRANCH   5   7
HETATM    7  C   UNL     1      22.957  47.805  49.045  1.00  0.00     0.219 C 
HETATM    8  N   UNL     1      23.122  49.110  49.630  1.00  0.00    -0.332 N 
HETATM    9  C   UNL     1      22.204  50.105  49.421  1.00  0.00     0.256 C 
HETATM   10  H   UNL     1      24.062  49.434  49.813  1.00  0.00     0.165 HD
HETATM   11  O   UNL     1      22.477  51.290  49.569  1.00  0.00    -0.267 OA
HETATM   12  C   UNL     1      20.882  49.642  49.029  1.00  0.00     0.073 A 
HETATM   13  C   UNL     1      20.636  48.287  48.994  1.00  0.00     0.088 A 
HETATM   14  C   UNL     1      19.732  50.405  48.658  1.00  0.00    -0.023 A 
HETATM   15  S   UNL     1      19.033  47.928  48.554  1.00  0.00    -0.074 SA
HETATM   16  N   UNL     1      21.591  47.366  49.272  1.00  0.00    -0.358 N 
HETATM   17  C   UNL     1      18.658  49.581  48.374  1.00  0.00     0.018 A 
HETATM   18  C   UNL     1      17.316  50.050  47.925  1.00  0.00     0.281 C 
HETATM   19  N   UNL     1      17.137  51.547  48.163  1.00  0.00    -0.070 N 
HETATM   20  C   UNL     1      18.387  52.334  47.774  1.00  0.00     0.239 C 
HETATM   21  H   UNL     1      16.394  51.848  47.522  1.00  0.00     0.279 HD
HETATM   22  C   UNL     1      16.646  51.858  49.548  1.00  0.00     0.270 C 
HETATM   23  C   UNL     1      19.624  51.898  48.581  1.00  0.00     0.068 C 
HETATM   24  H   UNL     1      21.422  46.397  49.008  1.00  0.00     0.162 HD
ENDBRANCH   5   7
BRANCH   1  25
HETATM   25  O   UNL     1      26.561  46.522  52.275  1.00  0.00    -0.349 OA
BRANCH  25  26
HETATM   26  C   UNL     1      25.978  47.110  53.435  1.00  0.00     0.171 C 
HETATM   27  C   UNL     1      27.102  47.439  54.403  1.00  0.00     0.034 C 
ENDBRANCH  25  26
ENDBRANCH   1  25
BRANCH   2  28
HETATM   28  O   UNL     1      27.156  44.384  50.840  1.00  0.00    -0.272 OA
BRANCH  28  29
HETATM   29  C   UNL     1      27.069  43.197  51.546  1.00  0.00     0.298 C 
HETATM   30  O   UNL     1      26.398  42.217  51.265  1.00  0.00    -0.259 OA
BRANCH  29  31
HETATM   31  C   UNL     1      28.018  43.250  52.692  1.00  0.00     0.040 A 
HETATM   32  C   UNL     1      29.316  42.755  52.499  1.00  0.00     0.019 A 
HETATM   33  C   UNL     1      30.258  42.831  53.528  1.00  0.00     0.020 A 
HETATM   34  C   UNL     1      29.901  43.393  54.753  1.00  0.00     0.011 A 
HETATM   35 BR   UNL     1      31.179  43.511  56.140  1.00  0.00    -0.051 Br
HETATM   36  C   UNL     1      28.610  43.876  54.961  1.00  0.00     0.020 A 
HETATM   37  C   UNL     1      27.666  43.804  53.932  1.00  0.00     0.019 A 
ENDBRANCH  29  31
ENDBRANCH  28  29
ENDBRANCH   2  28
TORSDOF 6
ENDMDL
MODEL 2
REMARK VINA RESULT:     -10.0      1.391      2.515
REMARK  6 active torsions:
REMARK  status: ('A' for Active; 'I' for Inactive)
REMARK    1  A    between atoms: C_2  and  O_3 
REMARK    2  A    between atoms: O_3  and  C_4 
REMARK    3  A    between atoms: C_5  and  O_6 
REMARK    4  A    between atoms: O_6  and  C_7 
REMARK    5  A    between atoms: C_7  and  C_8 
REMARK    6  A    between atoms: C_18  and  C_19 
ROOT
HETATM    1  C   UNL     1      24.868  44.983  51.189  1.00  0.00     0.103 A 
HETATM    2  C   UNL     1      26.010  45.696  51.581  1.00  0.00     0.112 A 
HETATM    3  C   UNL     1      26.246  46.992  51.124  1.00  0.00     0.041 A 
HETATM    4  C   UNL     1      25.331  47.594  50.265  1.00  0.00     0.014 A 
HETATM    5  C   UNL     1      24.166  46.916  49.869  1.00  0.00    -0.013 A 
HETATM    6  C   UNL     1      23.952  45.599  50.330  1.00  0.00     0.050 A 
ENDROOT
BRANCH   5   7
HETATM    7  C   UNL     1      23.126  47.649  49.056  1.00  0.00     0.219 C 
HETATM    8  N   UNL     1      22.935  48.983  49.564  1.00  0.00    -0.332 N 
HETATM    9  C   UNL     1      21.913  49.776  49.114  1.00  0.00     0.256 C 
HETATM   10  H   UNL     1      23.746  49.485  49.896  1.00  0.00     0.165 HD
HETATM   11  O   UNL     1      21.935  50.996  49.222  1.00  0.00    -0.267 OA
HETATM   12  C   UNL     1      20.800  49.055  48.515  1.00  0.00     0.073 A 
HETATM   13  C   UNL     1      20.813  47.678  48.535  1.00  0.00     0.088 A 
HETATM   14  C   UNL     1      19.629  49.571  47.880  1.00  0.00    -0.023 A 
HETATM   15  S   UNL     1      19.420  47.005  47.830  1.00  0.00    -0.074 SA
HETATM   16  N   UNL     1      21.843  46.966  49.054  1.00  0.00    -0.358 N 
HETATM   17  C   UNL     1      18.798  48.548  47.461  1.00  0.00     0.018 A 
HETATM   18  C   UNL     1      17.509  48.736  46.735  1.00  0.00     0.281 C 
HETATM   19  N   UNL     1      17.022  50.180  46.824  1.00  0.00    -0.070 N 
HETATM   20  C   UNL     1      18.162  51.175  46.620  1.00  0.00     0.239 C 
HETATM   21  H   UNL     1      16.378  50.309  46.034  1.00  0.00     0.279 HD
HETATM   22  C   UNL     1      16.218  50.443  48.065  1.00  0.00     0.270 C 
HETATM   23  C   UNL     1      19.272  51.013  47.674  1.00  0.00     0.068 C 
HETATM   24  H   UNL     1      21.907  45.975  48.835  1.00  0.00     0.162 HD
ENDBRANCH   5   7
BRANCH   1  25
HETATM   25  O   UNL     1      24.734  43.729  51.724  1.00  0.00    -0.349 OA
BRANCH  25  26
HETATM   26  C   UNL     1      24.706  42.622  50.827  1.00  0.00     0.171 C 
HETATM   27  C   UNL     1      26.088  41.991  50.824  1.00  0.00     0.034 C 
ENDBRANCH  25  26
ENDBRANCH   1  25
BRANCH   2  28
HETATM   28  O   UNL     1      26.829  45.099  52.570  1.00  0.00    -0.272 OA
BRANCH  28  29
HETATM   29  C   UNL     1      26.855  45.545  53.880  1.00  0.00     0.298 C 
HETATM   30  O   UNL     1      25.995  46.189  54.459  1.00  0.00    -0.259 OA
BRANCH  29  31
HETATM   31  C   UNL     1      28.086  45.026  54.537  1.00  0.00     0.040 A 
HETATM   32  C   UNL     1      28.692  45.817  55.525  1.00  0.00     0.019 A 
HETATM   33  C   UNL     1      29.819  45.350  56.206  1.00  0.00     0.020 A 
HETATM   34  C   UNL     1      30.346  44.097  55.895  1.00  0.00     0.011 A 
HETATM   35 BR   UNL     1      31.860  43.458  56.827  1.00  0.00    -0.051 Br
HETATM   36  C   UNL     1      29.761  43.308  54.905  1.00  0.00     0.020 A 
HETATM   37  C   UNL     1      28.631  43.772  54.224  1.00  0.00     0.019 A 
ENDBRANCH  29  31
ENDBRANCH  28  29
ENDBRANCH   2  28
TORSDOF 6
ENDMDL
MODEL 3
REMARK VINA RESULT:      -9.9      1.251      2.439
REMARK  6 active torsions:
REMARK  status: ('A' for Active; 'I' for Inactive)
REMARK    1  A    between atoms: C_2  and  O_3 
REMARK    2  A    between atoms: O_3  and  C_4 
REMARK    3  A    between atoms: C_5  and  O_6 
REMARK    4  A    between atoms: O_6  and  C_7 
REMARK    5  A    between atoms: C_7  and  C_8 
REMARK    6  A    between atoms: C_18  and  C_19 
ROOT
HETATM    1  C   UNL     1      24.692  44.711  50.134  1.00  0.00     0.103 A 
HETATM    2  C   UNL     1      25.652  45.264  50.994  1.00  0.00     0.112 A 
HETATM    3  C   UNL     1      25.757  46.643  51.171  1.00  0.00     0.041 A 
HETATM    4  C   UNL     1      24.892  47.490  50.485  1.00  0.00     0.014 A 
HETATM    5  C   UNL     1      23.905  46.969  49.631  1.00  0.00    -0.013 A 
HETATM    6  C   UNL     1      23.824  45.571  49.454  1.00  0.00     0.050 A 
ENDROOT
BRANCH   5   7
HETATM    7  C   UNL     1      22.892  47.906  49.016  1.00  0.00     0.219 C 
HETATM    8  N   UNL     1      22.905  49.177  49.691  1.00  0.00    -0.332 N 
HETATM    9  C   UNL     1      21.949  50.125  49.440  1.00  0.00     0.256 C 
HETATM   10  H   UNL     1      23.796  49.545  49.994  1.00  0.00     0.165 HD
HETATM   11  O   UNL     1      22.124  51.313  49.685  1.00  0.00    -0.267 OA
HETATM   12  C   UNL     1      20.710  49.609  48.878  1.00  0.00     0.073 A 
HETATM   13  C   UNL     1      20.562  48.246  48.738  1.00  0.00     0.088 A 
HETATM   14  C   UNL     1      19.558  50.322  48.427  1.00  0.00    -0.023 A 
HETATM   15  S   UNL     1      19.044  47.820  48.104  1.00  0.00    -0.074 SA
HETATM   16  N   UNL     1      21.542  47.369  49.065  1.00  0.00    -0.358 N 
HETATM   17  C   UNL     1      18.578  49.454  47.979  1.00  0.00     0.018 A 
HETATM   18  C   UNL     1      17.263  49.868  47.413  1.00  0.00     0.281 C 
HETATM   19  N   UNL     1      16.959  51.333  47.716  1.00  0.00    -0.070 N 
HETATM   20  C   UNL     1      18.186  52.219  47.514  1.00  0.00     0.239 C 
HETATM   21  H   UNL     1      16.269  51.629  47.015  1.00  0.00     0.279 HD
HETATM   22  C   UNL     1      16.303  51.523  49.054  1.00  0.00     0.270 C 
HETATM   23  C   UNL     1      19.357  51.808  48.425  1.00  0.00     0.068 C 
HETATM   24  H   UNL     1      21.469  46.412  48.729  1.00  0.00     0.162 HD
ENDBRANCH   5   7
BRANCH   1  25
HETATM   25  O   UNL     1      24.670  43.343  50.064  1.00  0.00    -0.349 OA
BRANCH  25  26
HETATM   26  C   UNL     1      23.402  42.695  50.106  1.00  0.00     0.171 C 
HETATM   27  C   UNL     1      23.237  41.914  48.814  1.00  0.00     0.034 C 
ENDBRANCH  25  26
ENDBRANCH   1  25
BRANCH   2  28
HETATM   28  O   UNL     1      26.404  44.358  51.781  1.00  0.00    -0.272 OA
BRANCH  28  29
HETATM   29  C   UNL     1      26.149  44.153  53.126  1.00  0.00     0.298 C 
HETATM   30  O   UNL     1      25.060  44.008  53.658  1.00  0.00    -0.259 OA
BRANCH  29  31
HETATM   31  C   UNL     1      27.446  44.035  53.847  1.00  0.00     0.040 A 
HETATM   32  C   UNL     1      27.908  45.149  54.562  1.00  0.00     0.019 A 
HETATM   33  C   UNL     1      29.095  45.071  55.297  1.00  0.00     0.020 A 
HETATM   34  C   UNL     1      29.823  43.882  55.309  1.00  0.00     0.011 A 
HETATM   35 BR   UNL     1      31.419  43.770  56.316  1.00  0.00    -0.051 Br
HETATM   36  C   UNL     1      29.381  42.772  54.590  1.00  0.00     0.020 A 
HETATM   37  C   UNL     1      28.192  42.847  53.857  1.00  0.00     0.019 A 
ENDBRANCH  29  31
ENDBRANCH  28  29
ENDBRANCH   2  28
TORSDOF 6
ENDMDL
MODEL 4
REMARK VINA RESULT:      -9.6      5.237     10.661
REMARK  6 active torsions:
REMARK  status: ('A' for Active; 'I' for Inactive)
REMARK    1  A    between atoms: C_2  and  O_3 
REMARK    2  A    between atoms: O_3  and  C_4 
REMARK    3  A    between atoms: C_5  and  O_6 
REMARK    4  A    between atoms: O_6  and  C_7 
REMARK    5  A    between atoms: C_7  and  C_8 
REMARK    6  A    between atoms: C_18  and  C_19 
ROOT
HETATM    1  C   UNL     1      25.511  47.278  49.719  1.00  0.00     0.103 A 
HETATM    2  C   UNL     1      24.195  47.635  49.389  1.00  0.00     0.112 A 
HETATM    3  C   UNL     1      23.248  46.672  49.046  1.00  0.00     0.041 A 
HETATM    4  C   UNL     1      23.611  45.328  49.032  1.00  0.00     0.014 A 
HETATM    5  C   UNL     1      24.914  44.933  49.377  1.00  0.00    -0.013 A 
HETATM    6  C   UNL     1      25.863  45.924  49.708  1.00  0.00     0.050 A 
ENDROOT
BRANCH   5   7
HETATM    7  C   UNL     1      25.233  43.461  49.492  1.00  0.00     0.219 C 
HETATM    8  N   UNL     1      26.556  43.271  50.028  1.00  0.00    -0.332 N 
HETATM    9  C   UNL     1      27.143  42.034  50.050  1.00  0.00     0.256 C 
HETATM   10  H   UNL     1      26.870  43.902  50.752  1.00  0.00     0.165 HD
HETATM   11  O   UNL     1      28.065  41.760  50.810  1.00  0.00    -0.267 OA
HETATM   12  C   UNL     1      26.599  41.083  49.093  1.00  0.00     0.073 A 
HETATM   13  C   UNL     1      25.638  41.511  48.204  1.00  0.00     0.088 A 
HETATM   14  C   UNL     1      26.919  39.702  48.912  1.00  0.00    -0.023 A 
HETATM   15  S   UNL     1      25.145  40.283  47.138  1.00  0.00    -0.074 SA
HETATM   16  N   UNL     1      25.149  42.776  48.213  1.00  0.00    -0.358 N 
HETATM   17  C   UNL     1      26.189  39.154  47.873  1.00  0.00     0.018 A 
HETATM   18  C   UNL     1      26.256  37.729  47.439  1.00  0.00     0.281 C 
HETATM   19  N   UNL     1      27.480  37.025  48.018  1.00  0.00    -0.070 N 
HETATM   20  C   UNL     1      27.697  37.384  49.487  1.00  0.00     0.239 C 
HETATM   21  H   UNL     1      27.267  36.021  47.993  1.00  0.00     0.279 HD
HETATM   22  C   UNL     1      28.708  37.212  47.173  1.00  0.00     0.270 C 
HETATM   23  C   UNL     1      27.913  38.894  49.691  1.00  0.00     0.068 C 
HETATM   24  H   UNL     1      24.292  42.969  47.700  1.00  0.00     0.162 HD
ENDBRANCH   5   7
BRANCH   1  25
HETATM   25  O   UNL     1      26.342  48.311  50.063  1.00  0.00    -0.349 OA
BRANCH  25  26
HETATM   26  C   UNL     1      27.433  48.605  49.195  1.00  0.00     0.171 C 
HETATM   27  C   UNL     1      27.274  50.038  48.718  1.00  0.00     0.034 C 
ENDBRANCH  25  26
ENDBRANCH   1  25
BRANCH   2  28
HETATM   28  O   UNL     1      23.838  48.994  49.565  1.00  0.00    -0.272 OA
BRANCH  28  29
HETATM   29  C   UNL     1      23.463  49.807  48.510  1.00  0.00     0.298 C 
HETATM   30  O   UNL     1      24.053  49.965  47.452  1.00  0.00    -0.259 OA
BRANCH  29  31
HETATM   31  C   UNL     1      22.140  50.413  48.820  1.00  0.00     0.040 A 
HETATM   32  C   UNL     1      21.273  50.691  47.753  1.00  0.00     0.019 A 
HETATM   33  C   UNL     1      19.999  51.212  47.998  1.00  0.00     0.020 A 
HETATM   34  C   UNL     1      19.596  51.463  49.309  1.00  0.00     0.011 A 
HETATM   35 BR   UNL     1      17.868  52.153  49.642  1.00  0.00    -0.051 Br
HETATM   36  C   UNL     1      20.454  51.205  50.376  1.00  0.00     0.020 A 
HETATM   37  C   UNL     1      21.727  50.681  50.134  1.00  0.00     0.019 A 
ENDBRANCH  29  31
ENDBRANCH  28  29
ENDBRANCH   2  28
TORSDOF 6
ENDMDL
MODEL 5
REMARK VINA RESULT:      -9.2      2.167      3.370
REMARK  6 active torsions:
REMARK  status: ('A' for Active; 'I' for Inactive)
REMARK    1  A    between atoms: C_2  and  O_3 
REMARK    2  A    between atoms: O_3  and  C_4 
REMARK    3  A    between atoms: C_5  and  O_6 
REMARK    4  A    between atoms: O_6  and  C_7 
REMARK    5  A    between atoms: C_7  and  C_8 
REMARK    6  A    between atoms: C_18  and  C_19 
ROOT
HETATM    1  C   UNL     1      26.423  44.227  49.734  1.00  0.00     0.103 A 
HETATM    2  C   UNL     1      26.863  44.790  50.942  1.00  0.00     0.112 A 
HETATM    3  C   UNL     1      26.136  45.794  51.579  1.00  0.00     0.041 A 
HETATM    4  C   UNL     1      24.949  46.248  51.011  1.00  0.00     0.014 A 
HETATM    5  C   UNL     1      24.469  45.692  49.814  1.00  0.00    -0.013 A 
HETATM    6  C   UNL     1      25.225  44.686  49.175  1.00  0.00     0.050 A 
ENDROOT
BRANCH   5   7
HETATM    7  C   UNL     1      23.108  46.104  49.302  1.00  0.00     0.219 C 
HETATM    8  N   UNL     1      22.958  45.742  47.917  1.00  0.00    -0.332 N 
HETATM    9  C   UNL     1      21.889  46.177  47.181  1.00  0.00     0.256 C 
HETATM   10  H   UNL     1      23.355  44.866  47.609  1.00  0.00     0.165 HD
HETATM   11  O   UNL     1      21.525  45.611  46.156  1.00  0.00    -0.267 OA
HETATM   12  C   UNL     1      21.234  47.368  47.700  1.00  0.00     0.073 A 
HETATM   13  C   UNL     1      21.778  48.001  48.796  1.00  0.00     0.088 A 
HETATM   14  C   UNL     1      20.056  48.027  47.231  1.00  0.00    -0.023 A 
HETATM   15  S   UNL     1      20.909  49.392  49.241  1.00  0.00    -0.074 SA
HETATM   16  N   UNL     1      22.878  47.533  49.435  1.00  0.00    -0.358 N 
HETATM   17  C   UNL     1      19.775  49.147  47.992  1.00  0.00     0.018 A 
HETATM   18  C   UNL     1      18.601  50.044  47.794  1.00  0.00     0.281 C 
HETATM   19  N   UNL     1      17.942  49.812  46.436  1.00  0.00    -0.070 N 
HETATM   20  C   UNL     1      17.826  48.324  46.111  1.00  0.00     0.239 C 
HETATM   21  H   UNL     1      16.982  50.165  46.524  1.00  0.00     0.279 HD
HETATM   22  C   UNL     1      18.583  50.611  45.338  1.00  0.00     0.270 C 
HETATM   23  C   UNL     1      19.199  47.629  46.066  1.00  0.00     0.068 C 
HETATM   24  H   UNL     1      23.094  47.899  50.360  1.00  0.00     0.162 HD
ENDBRANCH   5   7
BRANCH   1  25
HETATM   25  O   UNL     1      27.208  43.231  49.219  1.00  0.00    -0.349 OA
BRANCH  25  26
HETATM   26  C   UNL     1      26.632  41.936  49.073  1.00  0.00     0.171 C 
HETATM   27  C   UNL     1      27.764  40.923  49.053  1.00  0.00     0.034 C 
ENDBRANCH  25  26
ENDBRANCH   1  25
BRANCH   2  28
HETATM   28  O   UNL     1      27.991  44.191  51.553  1.00  0.00    -0.272 OA
BRANCH  28  29
HETATM   29  C   UNL     1      27.879  43.284  52.593  1.00  0.00     0.298 C 
HETATM   30  O   UNL     1      27.461  42.138  52.532  1.00  0.00    -0.259 OA
BRANCH  29  31
HETATM   31  C   UNL     1      28.449  43.894  53.824  1.00  0.00     0.040 A 
HETATM   32  C   UNL     1      29.657  43.382  54.318  1.00  0.00     0.019 A 
HETATM   33  C   UNL     1      30.258  43.956  55.442  1.00  0.00     0.020 A 
HETATM   34  C   UNL     1      29.647  45.037  56.076  1.00  0.00     0.011 A 
HETATM   35 BR   UNL     1      30.467  45.824  57.586  1.00  0.00    -0.051 Br
HETATM   36  C   UNL     1      28.439  45.546  55.603  1.00  0.00     0.020 A 
HETATM   37  C   UNL     1      27.837  44.975  54.477  1.00  0.00     0.019 A 
ENDBRANCH  29  31
ENDBRANCH  28  29
ENDBRANCH   2  28
TORSDOF 6
ENDMDL
MODEL 6
REMARK VINA RESULT:      -9.1      4.526     10.120
REMARK  6 active torsions:
REMARK  status: ('A' for Active; 'I' for Inactive)
REMARK    1  A    between atoms: C_2  and  O_3 
REMARK    2  A    between atoms: O_3  and  C_4 
REMARK    3  A    between atoms: C_5  and  O_6 
REMARK    4  A    between atoms: O_6  and  C_7 
REMARK    5  A    between atoms: C_7  and  C_8 
REMARK    6  A    between atoms: C_18  and  C_19 
ROOT
HETATM    1  C   UNL     1      23.524  47.773  48.551  1.00  0.00     0.103 A 
HETATM    2  C   UNL     1      22.723  46.753  48.016  1.00  0.00     0.112 A 
HETATM    3  C   UNL     1      22.679  45.487  48.599  1.00  0.00     0.041 A 
HETATM    4  C   UNL     1      23.442  45.228  49.735  1.00  0.00     0.014 A 
HETATM    5  C   UNL     1      24.239  46.232  50.307  1.00  0.00    -0.013 A 
HETATM    6  C   UNL     1      24.282  47.503  49.695  1.00  0.00     0.050 A 
ENDROOT
BRANCH   5   7
HETATM    7  C   UNL     1      24.939  45.961  51.618  1.00  0.00     0.219 C 
HETATM    8  N   UNL     1      25.185  47.191  52.324  1.00  0.00    -0.332 N 
HETATM    9  C   UNL     1      25.972  47.223  53.444  1.00  0.00     0.256 C 
HETATM   10  H   UNL     1      24.479  47.912  52.282  1.00  0.00     0.165 HD
HETATM   11  O   UNL     1      25.904  48.129  54.267  1.00  0.00    -0.267 OA
HETATM   12  C   UNL     1      26.901  46.110  53.570  1.00  0.00     0.073 A 
HETATM   13  C   UNL     1      26.984  45.195  52.543  1.00  0.00     0.088 A 
HETATM   14  C   UNL     1      27.792  45.795  54.641  1.00  0.00    -0.023 A 
HETATM   15  S   UNL     1      28.144  43.989  52.840  1.00  0.00    -0.074 SA
HETATM   16  N   UNL     1      26.205  45.270  51.436  1.00  0.00    -0.358 N 
HETATM   17  C   UNL     1      28.525  44.656  54.361  1.00  0.00     0.018 A 
HETATM   18  C   UNL     1      29.523  44.034  55.277  1.00  0.00     0.281 C 
HETATM   19  N   UNL     1      29.920  44.986  56.402  1.00  0.00    -0.070 N 
HETATM   20  C   UNL     1      28.708  45.716  56.979  1.00  0.00     0.239 C 
HETATM   21  H   UNL     1      30.288  44.394  57.156  1.00  0.00     0.279 HD
HETATM   22  C   UNL     1      31.038  45.909  56.011  1.00  0.00     0.270 C 
HETATM   23  C   UNL     1      27.977  46.558  55.919  1.00  0.00     0.068 C 
HETATM   24  H   UNL     1      26.143  44.455  50.830  1.00  0.00     0.162 HD
ENDBRANCH   5   7
BRANCH   1  25
HETATM   25  O   UNL     1      23.464  48.979  47.906  1.00  0.00    -0.349 OA
BRANCH  25  26
HETATM   26  C   UNL     1      23.900  50.136  48.614  1.00  0.00     0.171 C 
HETATM   27  C   UNL     1      22.670  50.949  48.978  1.00  0.00     0.034 C 
ENDBRANCH  25  26
ENDBRANCH   1  25
BRANCH   2  28
HETATM   28  O   UNL     1      21.855  47.110  46.957  1.00  0.00    -0.272 OA
BRANCH  28  29
HETATM   29  C   UNL     1      20.477  47.026  47.063  1.00  0.00     0.298 C 
HETATM   30  O   UNL     1      19.766  46.089  46.735  1.00  0.00    -0.259 OA
BRANCH  29  31
HETATM   31  C   UNL     1      19.975  48.249  47.748  1.00  0.00     0.040 A 
HETATM   32  C   UNL     1      19.724  49.387  46.969  1.00  0.00     0.019 A 
HETATM   33  C   UNL     1      19.203  50.542  47.558  1.00  0.00     0.020 A 
HETATM   34  C   UNL     1      18.940  50.562  48.927  1.00  0.00     0.011 A 
HETATM   35 BR   UNL     1      18.219  52.118  49.721  1.00  0.00    -0.051 Br
HETATM   36  C   UNL     1      19.197  49.441  49.714  1.00  0.00     0.020 A 
HETATM   37  C   UNL     1      19.717  48.283  49.126  1.00  0.00     0.019 A 
ENDBRANCH  29  31
ENDBRANCH  28  29
ENDBRANCH   2  28
TORSDOF 6
ENDMDL
MODEL 7
REMARK VINA RESULT:      -8.7      2.298      2.874
REMARK  6 active torsions:
REMARK  status: ('A' for Active; 'I' for Inactive)
REMARK    1  A    between atoms: C_2  and  O_3 
REMARK    2  A    between atoms: O_3  and  C_4 
REMARK    3  A    between atoms: C_5  and  O_6 
REMARK    4  A    between atoms: O_6  and  C_7 
REMARK    5  A    between atoms: C_7  and  C_8 
REMARK    6  A    between atoms: C_18  and  C_19 
ROOT
HETATM    1  C   UNL     1      25.692  46.081  50.862  1.00  0.00     0.103 A 
HETATM    2  C   UNL     1      25.814  44.885  50.139  1.00  0.00     0.112 A 
HETATM    3  C   UNL     1      24.953  44.585  49.085  1.00  0.00     0.041 A 
HETATM    4  C   UNL     1      23.952  45.489  48.739  1.00  0.00     0.014 A 
HETATM    5  C   UNL     1      23.814  46.705  49.429  1.00  0.00    -0.013 A 
HETATM    6  C   UNL     1      24.686  46.984  50.502  1.00  0.00     0.050 A 
ENDROOT
BRANCH   5   7
HETATM    7  C   UNL     1      22.814  47.723  48.935  1.00  0.00     0.219 C 
HETATM    8  N   UNL     1      23.039  48.998  49.565  1.00  0.00    -0.332 N 
HETATM    9  C   UNL     1      22.147  50.028  49.424  1.00  0.00     0.256 C 
HETATM   10  H   UNL     1      23.993  49.285  49.730  1.00  0.00     0.165 HD
HETATM   11  O   UNL     1      22.462  51.198  49.608  1.00  0.00    -0.267 OA
HETATM   12  C   UNL     1      20.799  49.622  49.056  1.00  0.00     0.073 A 
HETATM   13  C   UNL     1      20.508  48.278  48.977  1.00  0.00     0.088 A 
HETATM   14  C   UNL     1      19.664  50.434  48.751  1.00  0.00    -0.023 A 
HETATM   15  S   UNL     1      18.883  47.987  48.575  1.00  0.00    -0.074 SA
HETATM   16  N   UNL     1      21.441  47.318  49.189  1.00  0.00    -0.358 N 
HETATM   17  C   UNL     1      18.555  49.656  48.470  1.00  0.00     0.018 A 
HETATM   18  C   UNL     1      17.216  50.184  48.083  1.00  0.00     0.281 C 
HETATM   19  N   UNL     1      17.093  51.675  48.383  1.00  0.00    -0.070 N 
HETATM   20  C   UNL     1      18.355  52.438  47.986  1.00  0.00     0.239 C 
HETATM   21  H   UNL     1      16.340  52.024  47.778  1.00  0.00     0.279 HD
HETATM   22  C   UNL     1      16.655  51.947  49.794  1.00  0.00     0.270 C 
HETATM   23  C   UNL     1      19.601  51.933  48.735  1.00  0.00     0.068 C 
HETATM   24  H   UNL     1      21.234  46.366  48.894  1.00  0.00     0.162 HD
ENDBRANCH   5   7
BRANCH   1  25
HETATM   25  O   UNL     1      26.613  46.273  51.857  1.00  0.00    -0.349 OA
BRANCH  25  26
HETATM   26  C   UNL     1      26.162  46.857  53.077  1.00  0.00     0.171 C 
HETATM   27  C   UNL     1      26.468  45.880  54.199  1.00  0.00     0.034 C 
ENDBRANCH  25  26
ENDBRANCH   1  25
BRANCH   2  28
HETATM   28  O   UNL     1      26.938  44.073  50.430  1.00  0.00    -0.272 OA
BRANCH  28  29
HETATM   29  C   UNL     1      26.847  42.926  51.198  1.00  0.00     0.298 C 
HETATM   30  O   UNL     1      26.356  42.818  52.311  1.00  0.00    -0.259 OA
BRANCH  29  31
HETATM   31  C   UNL     1      27.369  41.778  50.408  1.00  0.00     0.040 A 
HETATM   32  C   UNL     1      28.014  40.740  51.095  1.00  0.00     0.019 A 
HETATM   33  C   UNL     1      28.475  39.617  50.403  1.00  0.00     0.020 A 
HETATM   34  C   UNL     1      28.299  39.536  49.022  1.00  0.00     0.011 A 
HETATM   35 BR   UNL     1      28.908  38.010  48.088  1.00  0.00    -0.051 Br
HETATM   36  C   UNL     1      27.672  40.567  48.326  1.00  0.00     0.020 A 
HETATM   37  C   UNL     1      27.208  41.691  49.017  1.00  0.00     0.019 A 
ENDBRANCH  29  31
ENDBRANCH  28  29
ENDBRANCH   2  28
TORSDOF 6
ENDMDL
MODEL 8
REMARK VINA RESULT:      -8.4      4.985     11.530
REMARK  6 active torsions:
REMARK  status: ('A' for Active; 'I' for Inactive)
REMARK    1  A    between atoms: C_2  and  O_3 
REMARK    2  A    between atoms: O_3  and  C_4 
REMARK    3  A    between atoms: C_5  and  O_6 
REMARK    4  A    between atoms: O_6  and  C_7 
REMARK    5  A    between atoms: C_7  and  C_8 
REMARK    6  A    between atoms: C_18  and  C_19 
ROOT
HETATM    1  C   UNL     1      19.492  49.783  49.419  1.00  0.00     0.103 A 
HETATM    2  C   UNL     1      19.906  51.087  49.107  1.00  0.00     0.112 A 
HETATM    3  C   UNL     1      21.234  51.369  48.794  1.00  0.00     0.041 A 
HETATM    4  C   UNL     1      22.171  50.338  48.786  1.00  0.00     0.014 A 
HETATM    5  C   UNL     1      21.787  49.018  49.073  1.00  0.00    -0.013 A 
HETATM    6  C   UNL     1      20.440  48.754  49.403  1.00  0.00     0.050 A 
ENDROOT
BRANCH   5   7
HETATM    7  C   UNL     1      22.796  47.905  48.915  1.00  0.00     0.219 C 
HETATM    8  N   UNL     1      22.131  46.633  48.799  1.00  0.00    -0.332 N 
HETATM    9  C   UNL     1      22.833  45.458  48.835  1.00  0.00     0.256 C 
HETATM   10  H   UNL     1      21.268  46.594  48.275  1.00  0.00     0.165 HD
HETATM   11  O   UNL     1      22.387  44.414  48.374  1.00  0.00    -0.267 OA
HETATM   12  C   UNL     1      24.137  45.546  49.475  1.00  0.00     0.073 A 
HETATM   13  C   UNL     1      24.511  46.735  50.061  1.00  0.00     0.088 A 
HETATM   14  C   UNL     1      25.147  44.544  49.606  1.00  0.00    -0.023 A 
HETATM   15  S   UNL     1      26.042  46.646  50.792  1.00  0.00    -0.074 SA
HETATM   16  N   UNL     1      23.727  47.841  50.028  1.00  0.00    -0.358 N 
HETATM   17  C   UNL     1      26.239  45.025  50.306  1.00  0.00     0.018 A 
HETATM   18  C   UNL     1      27.479  44.250  50.594  1.00  0.00     0.281 C 
HETATM   19  N   UNL     1      27.275  42.756  50.355  1.00  0.00    -0.070 N 
HETATM   20  C   UNL     1      26.493  42.491  49.070  1.00  0.00     0.239 C 
HETATM   21  H   UNL     1      28.212  42.363  50.211  1.00  0.00     0.279 HD
HETATM   22  C   UNL     1      26.705  42.052  51.553  1.00  0.00     0.270 C 
HETATM   23  C   UNL     1      25.095  43.134  49.096  1.00  0.00     0.068 C 
HETATM   24  H   UNL     1      24.143  48.738  50.267  1.00  0.00     0.162 HD
ENDBRANCH   5   7
BRANCH   1  25
HETATM   25  O   UNL     1      18.157  49.627  49.685  1.00  0.00    -0.349 OA
BRANCH  25  26
HETATM   26  C   UNL     1      17.529  48.423  49.254  1.00  0.00     0.171 C 
HETATM   27  C   UNL     1      16.369  48.803  48.349  1.00  0.00     0.034 C 
ENDBRANCH  25  26
ENDBRANCH   1  25
BRANCH   2  28
HETATM   28  O   UNL     1      18.891  52.066  48.981  1.00  0.00    -0.272 OA
BRANCH  28  29
HETATM   29  C   UNL     1      17.984  52.067  47.936  1.00  0.00     0.298 C 
HETATM   30  O   UNL     1      18.167  51.662  46.798  1.00  0.00    -0.259 OA
BRANCH  29  31
HETATM   31  C   UNL     1      16.675  52.564  48.439  1.00  0.00     0.040 A 
HETATM   32  C   UNL     1      16.557  52.851  49.806  1.00  0.00     0.019 A 
HETATM   33  C   UNL     1      15.363  53.369  50.316  1.00  0.00     0.020 A 
HETATM   34  C   UNL     1      14.285  53.592  49.461  1.00  0.00     0.011 A 
HETATM   35 BR   UNL     1      12.676  54.308  50.147  1.00  0.00    -0.051 Br
HETATM   36  C   UNL     1      14.385  53.297  48.102  1.00  0.00     0.020 A 
HETATM   37  C   UNL     1      15.580  52.782  47.589  1.00  0.00     0.019 A 
ENDBRANCH  29  31
ENDBRANCH  28  29
ENDBRANCH   2  28
TORSDOF 6
ENDMDL
MODEL 9
REMARK VINA RESULT:      -8.4      4.558     10.419
REMARK  6 active torsions:
REMARK  status: ('A' for Active; 'I' for Inactive)
REMARK    1  A    between atoms: C_2  and  O_3 
REMARK    2  A    between atoms: O_3  and  C_4 
REMARK    3  A    between atoms: C_5  and  O_6 
REMARK    4  A    between atoms: O_6  and  C_7 
REMARK    5  A    between atoms: C_7  and  C_8 
REMARK    6  A    between atoms: C_18  and  C_19 
ROOT
HETATM    1  C   UNL     1      22.142  47.168  47.751  1.00  0.00     0.103 A 
HETATM    2  C   UNL     1      21.219  46.272  47.192  1.00  0.00     0.112 A 
HETATM    3  C   UNL     1      21.181  44.934  47.582  1.00  0.00     0.041 A 
HETATM    4  C   UNL     1      22.074  44.476  48.547  1.00  0.00     0.014 A 
HETATM    5  C   UNL     1      22.998  45.351  49.142  1.00  0.00    -0.013 A 
HETATM    6  C   UNL     1      23.031  46.698  48.724  1.00  0.00     0.050 A 
ENDROOT
BRANCH   5   7
HETATM    7  C   UNL     1      23.852  44.855  50.286  1.00  0.00     0.219 C 
HETATM    8  N   UNL     1      24.632  45.932  50.837  1.00  0.00    -0.332 N 
HETATM    9  C   UNL     1      25.620  45.696  51.756  1.00  0.00     0.256 C 
HETATM   10  H   UNL     1      24.204  46.844  50.901  1.00  0.00     0.165 HD
HETATM   11  O   UNL     1      26.034  46.568  52.512  1.00  0.00    -0.267 OA
HETATM   12  C   UNL     1      26.146  44.339  51.752  1.00  0.00     0.073 A 
HETATM   13  C   UNL     1      25.698  43.456  50.795  1.00  0.00     0.088 A 
HETATM   14  C   UNL     1      27.108  43.742  52.623  1.00  0.00    -0.023 A 
HETATM   15  S   UNL     1      26.445  41.934  50.914  1.00  0.00    -0.074 SA
HETATM   16  N   UNL     1      24.754  43.790  49.881  1.00  0.00    -0.358 N 
HETATM   17  C   UNL     1      27.354  42.428  52.268  1.00  0.00     0.018 A 
HETATM   18  C   UNL     1      28.281  41.507  52.986  1.00  0.00     0.281 C 
HETATM   19  N   UNL     1      29.205  42.269  53.933  1.00  0.00    -0.070 N 
HETATM   20  C   UNL     1      28.455  43.350  54.708  1.00  0.00     0.239 C 
HETATM   21  H   UNL     1      29.525  41.583  54.627  1.00  0.00     0.279 HD
HETATM   22  C   UNL     1      30.441  42.778  53.248  1.00  0.00     0.270 C 
HETATM   23  C   UNL     1      27.811  44.393  53.777  1.00  0.00     0.068 C 
HETATM   24  H   UNL     1      24.299  43.044  49.358  1.00  0.00     0.162 HD
ENDBRANCH   5   7
BRANCH   1  25
HETATM   25  O   UNL     1      22.065  48.461  47.306  1.00  0.00    -0.349 OA
BRANCH  25  26
HETATM   26  C   UNL     1      22.069  49.502  48.280  1.00  0.00     0.171 C 
HETATM   27  C   UNL     1      23.109  50.526  47.860  1.00  0.00     0.034 C 
ENDBRANCH  25  26
ENDBRANCH   1  25
BRANCH   2  28
HETATM   28  O   UNL     1      20.238  46.820  46.331  1.00  0.00    -0.272 OA
BRANCH  28  29
HETATM   29  C   UNL     1      18.902  46.905  46.684  1.00  0.00     0.298 C 
HETATM   30  O   UNL     1      18.050  46.038  46.567  1.00  0.00    -0.259 OA
BRANCH  29  31
HETATM   31  C   UNL     1      18.662  48.220  47.338  1.00  0.00     0.040 A 
HETATM   32  C   UNL     1      18.429  48.239  48.720  1.00  0.00     0.019 A 
HETATM   33  C   UNL     1      18.249  49.454  49.388  1.00  0.00     0.020 A 
HETATM   34  C   UNL     1      18.296  50.649  48.671  1.00  0.00     0.011 A 
HETATM   35 BR   UNL     1      18.070  52.293  49.575  1.00  0.00    -0.051 Br
HETATM   36  C   UNL     1      18.513  50.642  47.294  1.00  0.00     0.020 A 
HETATM   37  C   UNL     1      18.696  49.428  46.625  1.00  0.00     0.019 A 
ENDBRANCH  29  31
ENDBRANCH  28  29
ENDBRANCH   2  28
TORSDOF 6
ENDMDL
MODEL 10
REMARK VINA RESULT:      -8.3     14.711     17.703
REMARK  6 active torsions:
REMARK  status: ('A' for Active; 'I' for Inactive)
REMARK    1  A    between atoms: C_2  and  O_3 
REMARK    2  A    between atoms: O_3  and  C_4 
REMARK    3  A    between atoms: C_5  and  O_6 
REMARK    4  A    between atoms: O_6  and  C_7 
REMARK    5  A    between atoms: C_7  and  C_8 
REMARK    6  A    between atoms: C_18  and  C_19 
ROOT
HETATM    1  C   UNL     1      33.488  51.093  41.571  1.00  0.00     0.103 A 
HETATM    2  C   UNL     1      32.505  51.287  42.552  1.00  0.00     0.112 A 
HETATM    3  C   UNL     1      32.835  51.742  43.828  1.00  0.00     0.041 A 
HETATM    4  C   UNL     1      34.165  52.015  44.136  1.00  0.00     0.014 A 
HETATM    5  C   UNL     1      35.173  51.851  43.170  1.00  0.00    -0.013 A 
HETATM    6  C   UNL     1      34.821  51.375  41.889  1.00  0.00     0.050 A 
ENDROOT
BRANCH   5   7
HETATM    7  C   UNL     1      36.581  52.293  43.492  1.00  0.00     0.219 C 
HETATM    8  N   UNL     1      37.344  51.195  44.027  1.00  0.00    -0.332 N 
HETATM    9  C   UNL     1      38.587  51.391  44.569  1.00  0.00     0.256 C 
HETATM   10  H   UNL     1      37.193  50.276  43.637  1.00  0.00     0.165 HD
HETATM   11  O   UNL     1      39.403  50.484  44.681  1.00  0.00    -0.267 OA
HETATM   12  C   UNL     1      38.852  52.751  45.013  1.00  0.00     0.073 A 
HETATM   13  C   UNL     1      37.837  53.681  44.948  1.00  0.00     0.088 A 
HETATM   14  C   UNL     1      40.057  53.310  45.538  1.00  0.00    -0.023 A 
HETATM   15  S   UNL     1      38.310  55.201  45.542  1.00  0.00    -0.074 SA
HETATM   16  N   UNL     1      36.612  53.388  44.447  1.00  0.00    -0.358 N 
HETATM   17  C   UNL     1      39.888  54.644  45.863  1.00  0.00     0.018 A 
HETATM   18  C   UNL     1      40.954  55.534  46.405  1.00  0.00     0.281 C 
HETATM   19  N   UNL     1      42.151  54.731  46.909  1.00  0.00    -0.070 N 
HETATM   20  C   UNL     1      42.519  53.602  45.948  1.00  0.00     0.239 C 
HETATM   21  H   UNL     1      42.946  55.382  46.910  1.00  0.00     0.279 HD
HETATM   22  C   UNL     1      41.984  54.273  48.329  1.00  0.00     0.270 C 
HETATM   23  C   UNL     1      41.363  52.604  45.753  1.00  0.00     0.068 C 
HETATM   24  H   UNL     1      35.988  54.156  44.211  1.00  0.00     0.162 HD
ENDBRANCH   5   7
BRANCH   1  25
HETATM   25  O   UNL     1      33.037  50.667  40.350  1.00  0.00    -0.349 OA
BRANCH  25  26
HETATM   26  C   UNL     1      33.333  51.474  39.213  1.00  0.00     0.171 C 
HETATM   27  C   UNL     1      32.265  51.208  38.165  1.00  0.00     0.034 C 
ENDBRANCH  25  26
ENDBRANCH   1  25
BRANCH   2  28
HETATM   28  O   UNL     1      31.157  51.142  42.144  1.00  0.00    -0.272 OA
BRANCH  28  29
HETATM   29  C   UNL     1      30.469  52.143  41.481  1.00  0.00     0.298 C 
HETATM   30  O   UNL     1      30.708  53.340  41.498  1.00  0.00    -0.259 OA
BRANCH  29  31
HETATM   31  C   UNL     1      29.413  51.521  40.637  1.00  0.00     0.040 A 
HETATM   32  C   UNL     1      28.937  52.243  39.534  1.00  0.00     0.019 A 
HETATM   33  C   UNL     1      27.983  51.679  38.682  1.00  0.00     0.020 A 
HETATM   34  C   UNL     1      27.499  50.397  38.938  1.00  0.00     0.011 A 
HETATM   35 BR   UNL     1      26.221  49.628  37.777  1.00  0.00    -0.051 Br
HETATM   36  C   UNL     1      27.954  49.675  40.040  1.00  0.00     0.020 A 
HETATM   37  C   UNL     1      28.911  50.236  40.892  1.00  0.00     0.019 A 
ENDBRANCH  29  31
ENDBRANCH  28  29
ENDBRANCH   2  28
TORSDOF 6
ENDMDL
