MODEL 1
REMARK VINA RESULT:      -9.3      0.000      0.000
REMARK  6 active torsions:
REMARK  status: ('A' for Active; 'I' for Inactive)
REMARK    1  A    between atoms: C_4  and  C_5 
REMARK    2  A    between atoms: C_5  and  N_6 
REMARK    3  A    between atoms: C_5  and  C_22 
REMARK    4  A    between atoms: N_6  and  C_9 
REMARK    5  A    between atoms: C_9  and  C_10 
REMARK    6  A    between atoms: C_13  and  C_14 
REMARK       I    between atoms: C_22  and  N_23 
ROOT
HETATM    1  N   UNL     1      26.330  43.046  54.465  1.00  0.00    -0.054 N 
HETATM    2  H   UNL     1      25.885  42.186  54.132  1.00  0.00     0.278 HD
HETATM    3  H   UNL     1      26.635  42.871  55.431  1.00  0.00     0.278 HD
ENDROOT
BRANCH   1   4
HETATM    4  C   UNL     1      27.582  43.334  53.667  1.00  0.00     0.310 C 
BRANCH   4   5
HETATM    5  C   UNL     1      28.753  43.733  54.539  1.00  0.00    -0.019 A 
HETATM    6  C   UNL     1      29.817  42.863  54.833  1.00  0.00     0.010 A 
HETATM    7  C   UNL     1      30.863  43.274  55.662  1.00  0.00     0.001 A 
HETATM    8  C   UNL     1      30.854  44.547  56.226  1.00  0.00     0.000 A 
HETATM    9  C   UNL     1      29.802  45.416  55.960  1.00  0.00     0.001 A 
HETATM   10  C   UNL     1      28.762  45.018  55.121  1.00  0.00     0.010 A 
ENDBRANCH   4   5
BRANCH   4  11
HETATM   11  C   UNL     1      27.839  42.196  52.649  1.00  0.00     0.251 C 
HETATM   12  N   UNL     1      27.416  40.940  52.972  1.00  0.00    -0.368 N 
HETATM   13  H   UNL     1      26.839  40.710  53.773  1.00  0.00     0.159 HD
HETATM   14  H   UNL     1      27.591  40.191  52.308  1.00  0.00     0.159 HD
HETATM   15  O   UNL     1      28.482  42.399  51.620  1.00  0.00    -0.271 OA
ENDBRANCH   4  11
ENDBRANCH   1   4
BRANCH   1  16
HETATM   16  C   UNL     1      25.297  44.119  54.546  1.00  0.00     0.272 C 
BRANCH  16  17
HETATM   17  C   UNL     1      25.485  45.064  53.389  1.00  0.00    -0.033 A 
HETATM   18  C   UNL     1      26.017  46.342  53.599  1.00  0.00     0.010 A 
HETATM   19  C   UNL     1      26.087  47.264  52.549  1.00  0.00     0.013 A 
HETATM   20  C   UNL     1      25.634  46.939  51.260  1.00  0.00    -0.025 A 
HETATM   21  C   UNL     1      25.122  45.646  51.059  1.00  0.00     0.013 A 
HETATM   22  C   UNL     1      25.041  44.721  52.106  1.00  0.00     0.010 A 
BRANCH  20  23
HETATM   23  C   UNL     1      25.687  47.920  50.160  1.00  0.00    -0.008 A 
HETATM   24  C   UNL     1      24.537  48.350  49.494  1.00  0.00     0.128 A 
HETATM   25  N   UNL     1      24.517  49.232  48.466  1.00  0.00    -0.272 NA
HETATM   26  C   UNL     1      25.706  49.732  48.073  1.00  0.00     0.116 A 
HETATM   27  C   UNL     1      26.909  49.385  48.659  1.00  0.00     0.020 A 
HETATM   28  C   UNL     1      26.895  48.469  49.712  1.00  0.00     0.015 A 
ENDBRANCH  20  23
ENDBRANCH  16  17
ENDBRANCH   1  16
TORSDOF 6
ENDMDL
MODEL 2
REMARK VINA RESULT:      -9.2      2.558      7.749
REMARK  6 active torsions:
REMARK  status: ('A' for Active; 'I' for Inactive)
REMARK    1  A    between atoms: C_4  and  C_5 
REMARK    2  A    between atoms: C_5  and  N_6 
REMARK    3  A    between atoms: C_5  and  C_22 
REMARK    4  A    between atoms: N_6  and  C_9 
REMARK    5  A    between atoms: C_9  and  C_10 
REMARK    6  A    between atoms: C_13  and  C_14 
REMARK       I    between atoms: C_22  and  N_23 
ROOT
HETATM    1  N   UNL     1      25.436  46.124  51.450  1.00  0.00    -0.054 N 
HETATM    2  H   UNL     1      25.140  45.162  51.634  1.00  0.00     0.278 HD
HETATM    3  H   UNL     1      26.414  46.082  51.134  1.00  0.00     0.278 HD
ENDROOT
BRANCH   1   4
HETATM    4  C   UNL     1      24.641  46.711  50.305  1.00  0.00     0.310 C 
BRANCH   4   5
HETATM    5  C   UNL     1      25.344  47.877  49.642  1.00  0.00    -0.019 A 
HETATM    6  C   UNL     1      24.655  48.890  48.955  1.00  0.00     0.010 A 
HETATM    7  C   UNL     1      25.352  49.933  48.340  1.00  0.00     0.001 A 
HETATM    8  C   UNL     1      26.744  49.969  48.383  1.00  0.00     0.000 A 
HETATM    9  C   UNL     1      27.444  48.966  49.045  1.00  0.00     0.001 A 
HETATM   10  C   UNL     1      26.752  47.930  49.673  1.00  0.00     0.010 A 
ENDBRANCH   4   5
BRANCH   4  11
HETATM   11  C   UNL     1      24.144  45.584  49.368  1.00  0.00     0.251 C 
HETATM   12  N   UNL     1      25.055  44.671  48.925  1.00  0.00    -0.368 N 
HETATM   13  H   UNL     1      26.011  44.597  49.255  1.00  0.00     0.159 HD
HETATM   14  H   UNL     1      24.731  43.935  48.304  1.00  0.00     0.159 HD
HETATM   15  O   UNL     1      22.983  45.562  48.964  1.00  0.00    -0.271 OA
ENDBRANCH   4  11
ENDBRANCH   1   4
BRANCH   1  16
HETATM   16  C   UNL     1      25.452  46.873  52.740  1.00  0.00     0.272 C 
BRANCH  16  17
HETATM   17  C   UNL     1      26.633  46.416  53.554  1.00  0.00    -0.033 A 
HETATM   18  C   UNL     1      27.058  45.083  53.496  1.00  0.00     0.010 A 
HETATM   19  C   UNL     1      28.080  44.627  54.336  1.00  0.00     0.013 A 
HETATM   20  C   UNL     1      28.712  45.484  55.252  1.00  0.00    -0.025 A 
HETATM   21  C   UNL     1      28.290  46.824  55.284  1.00  0.00     0.013 A 
HETATM   22  C   UNL     1      27.262  47.286  54.454  1.00  0.00     0.010 A 
BRANCH  20  23
HETATM   23  C   UNL     1      29.773  44.995  56.152  1.00  0.00    -0.008 A 
HETATM   24  C   UNL     1      30.049  45.610  57.375  1.00  0.00     0.128 A 
HETATM   25  N   UNL     1      31.020  45.225  58.238  1.00  0.00    -0.272 NA
HETATM   26  C   UNL     1      31.763  44.159  57.878  1.00  0.00     0.116 A 
HETATM   27  C   UNL     1      31.580  43.467  56.695  1.00  0.00     0.020 A 
HETATM   28  C   UNL     1      30.574  43.894  55.825  1.00  0.00     0.015 A 
ENDBRANCH  20  23
ENDBRANCH  16  17
ENDBRANCH   1  16
TORSDOF 6
ENDMDL
MODEL 3
REMARK VINA RESULT:      -8.6      2.470      7.817
REMARK  6 active torsions:
REMARK  status: ('A' for Active; 'I' for Inactive)
REMARK    1  A    between atoms: C_4  and  C_5 
REMARK    2  A    between atoms: C_5  and  N_6 
REMARK    3  A    between atoms: C_5  and  C_22 
REMARK    4  A    between atoms: N_6  and  C_9 
REMARK    5  A    between atoms: C_9  and  C_10 
REMARK    6  A    between atoms: C_13  and  C_14 
REMARK       I    between atoms: C_22  and  N_23 
ROOT
HETATM    1  N   UNL     1      26.528  45.304  50.498  1.00  0.00    -0.054 N 
HETATM    2  H   UNL     1      26.957  45.292  49.568  1.00  0.00     0.278 HD
HETATM    3  H   UNL     1      27.062  45.974  51.066  1.00  0.00     0.278 HD
ENDROOT
BRANCH   1   4
HETATM    4  C   UNL     1      25.116  45.840  50.420  1.00  0.00     0.310 C 
BRANCH   4   5
HETATM    5  C   UNL     1      25.048  47.224  49.811  1.00  0.00    -0.019 A 
HETATM    6  C   UNL     1      23.837  47.850  49.472  1.00  0.00     0.010 A 
HETATM    7  C   UNL     1      23.830  49.120  48.891  1.00  0.00     0.001 A 
HETATM    8  C   UNL     1      25.029  49.774  48.619  1.00  0.00     0.000 A 
HETATM    9  C   UNL     1      26.239  49.164  48.933  1.00  0.00     0.001 A 
HETATM   10  C   UNL     1      26.252  47.902  49.527  1.00  0.00     0.010 A 
ENDBRANCH   4   5
BRANCH   4  11
HETATM   11  C   UNL     1      24.173  44.773  49.811  1.00  0.00     0.251 C 
HETATM   12  N   UNL     1      24.324  44.464  48.492  1.00  0.00    -0.368 N 
HETATM   13  H   UNL     1      25.083  44.788  47.902  1.00  0.00     0.159 HD
HETATM   14  H   UNL     1      23.701  43.770  48.089  1.00  0.00     0.159 HD
HETATM   15  O   UNL     1      23.259  44.284  50.473  1.00  0.00    -0.271 OA
ENDBRANCH   4  11
ENDBRANCH   1   4
BRANCH   1  16
HETATM   16  C   UNL     1      26.729  43.970  51.134  1.00  0.00     0.272 C 
BRANCH  16  17
HETATM   17  C   UNL     1      27.658  44.125  52.309  1.00  0.00    -0.033 A 
HETATM   18  C   UNL     1      28.795  43.315  52.423  1.00  0.00     0.010 A 
HETATM   19  C   UNL     1      29.597  43.376  53.567  1.00  0.00     0.013 A 
HETATM   20  C   UNL     1      29.295  44.247  54.627  1.00  0.00    -0.025 A 
HETATM   21  C   UNL     1      28.165  45.068  54.490  1.00  0.00     0.013 A 
HETATM   22  C   UNL     1      27.351  45.008  53.352  1.00  0.00     0.010 A 
BRANCH  20  23
HETATM   23  C   UNL     1      30.130  44.292  55.843  1.00  0.00    -0.008 A 
HETATM   24  C   UNL     1      30.010  45.314  56.787  1.00  0.00     0.128 A 
HETATM   25  N   UNL     1      30.756  45.425  57.912  1.00  0.00    -0.272 NA
HETATM   26  C   UNL     1      31.676  44.463  58.128  1.00  0.00     0.116 A 
HETATM   27  C   UNL     1      31.882  43.400  57.267  1.00  0.00     0.020 A 
HETATM   28  C   UNL     1      31.100  43.319  56.114  1.00  0.00     0.015 A 
ENDBRANCH  20  23
ENDBRANCH  16  17
ENDBRANCH   1  16
TORSDOF 6
ENDMDL
MODEL 4
REMARK VINA RESULT:      -8.5     12.398     14.437
REMARK  6 active torsions:
REMARK  status: ('A' for Active; 'I' for Inactive)
REMARK    1  A    between atoms: C_4  and  C_5 
REMARK    2  A    between atoms: C_5  and  N_6 
REMARK    3  A    between atoms: C_5  and  C_22 
REMARK    4  A    between atoms: N_6  and  C_9 
REMARK    5  A    between atoms: C_9  and  C_10 
REMARK    6  A    between atoms: C_13  and  C_14 
REMARK       I    between atoms: C_22  and  N_23 
ROOT
HETATM    1  N   UNL     1      27.841  48.574  38.724  1.00  0.00    -0.054 N 
HETATM    2  H   UNL     1      27.303  48.082  38.005  1.00  0.00     0.278 HD
HETATM    3  H   UNL     1      28.572  49.110  38.239  1.00  0.00     0.278 HD
ENDROOT
BRANCH   1   4
HETATM    4  C   UNL     1      26.969  49.585  39.435  1.00  0.00     0.310 C 
BRANCH   4   5
HETATM    5  C   UNL     1      27.689  50.888  39.710  1.00  0.00    -0.019 A 
HETATM    6  C   UNL     1      28.343  51.623  38.707  1.00  0.00     0.010 A 
HETATM    7  C   UNL     1      29.012  52.810  39.017  1.00  0.00     0.001 A 
HETATM    8  C   UNL     1      29.057  53.268  40.332  1.00  0.00     0.000 A 
HETATM    9  C   UNL     1      28.429  52.545  41.340  1.00  0.00     0.001 A 
HETATM   10  C   UNL     1      27.746  51.368  41.034  1.00  0.00     0.010 A 
ENDBRANCH   4   5
BRANCH   4  11
HETATM   11  C   UNL     1      25.595  49.693  38.730  1.00  0.00     0.251 C 
HETATM   12  N   UNL     1      24.498  49.944  39.499  1.00  0.00    -0.368 N 
HETATM   13  H   UNL     1      24.522  50.187  40.484  1.00  0.00     0.159 HD
HETATM   14  H   UNL     1      23.595  50.008  39.038  1.00  0.00     0.159 HD
HETATM   15  O   UNL     1      25.482  49.472  37.525  1.00  0.00    -0.271 OA
ENDBRANCH   4  11
ENDBRANCH   1   4
BRANCH   1  16
HETATM   16  C   UNL     1      28.555  47.565  39.559  1.00  0.00     0.272 C 
BRANCH  16  17
HETATM   17  C   UNL     1      29.646  48.257  40.332  1.00  0.00    -0.033 A 
HETATM   18  C   UNL     1      29.588  48.326  41.730  1.00  0.00     0.010 A 
HETATM   19  C   UNL     1      30.537  49.065  42.444  1.00  0.00     0.013 A 
HETATM   20  C   UNL     1      31.572  49.752  41.790  1.00  0.00    -0.025 A 
HETATM   21  C   UNL     1      31.631  49.657  40.390  1.00  0.00     0.013 A 
HETATM   22  C   UNL     1      30.681  48.927  39.667  1.00  0.00     0.010 A 
BRANCH  20  23
HETATM   23  C   UNL     1      32.558  50.550  42.544  1.00  0.00    -0.008 A 
HETATM   24  C   UNL     1      33.888  50.664  42.134  1.00  0.00     0.128 A 
HETATM   25  N   UNL     1      34.846  51.363  42.788  1.00  0.00    -0.272 NA
HETATM   26  C   UNL     1      34.470  52.000  43.916  1.00  0.00     0.116 A 
HETATM   27  C   UNL     1      33.181  51.963  44.417  1.00  0.00     0.020 A 
HETATM   28  C   UNL     1      32.219  51.229  43.721  1.00  0.00     0.015 A 
ENDBRANCH  20  23
ENDBRANCH  16  17
ENDBRANCH   1  16
TORSDOF 6
ENDMDL
MODEL 5
REMARK VINA RESULT:      -8.4      1.472      2.316
REMARK  6 active torsions:
REMARK  status: ('A' for Active; 'I' for Inactive)
REMARK    1  A    between atoms: C_4  and  C_5 
REMARK    2  A    between atoms: C_5  and  N_6 
REMARK    3  A    between atoms: C_5  and  C_22 
REMARK    4  A    between atoms: N_6  and  C_9 
REMARK    5  A    between atoms: C_9  and  C_10 
REMARK    6  A    between atoms: C_13  and  C_14 
REMARK       I    between atoms: C_22  and  N_23 
ROOT
HETATM    1  N   UNL     1      26.648  43.792  52.899  1.00  0.00    -0.054 N 
HETATM    2  H   UNL     1      26.181  43.566  53.782  1.00  0.00     0.278 HD
HETATM    3  H   UNL     1      26.740  44.815  52.861  1.00  0.00     0.278 HD
ENDROOT
BRANCH   1   4
HETATM    4  C   UNL     1      28.054  43.234  52.890  1.00  0.00     0.310 C 
BRANCH   4   5
HETATM    5  C   UNL     1      28.889  43.733  54.051  1.00  0.00    -0.019 A 
HETATM    6  C   UNL     1      28.610  44.930  54.730  1.00  0.00     0.010 A 
HETATM    7  C   UNL     1      29.425  45.357  55.782  1.00  0.00     0.001 A 
HETATM    8  C   UNL     1      30.539  44.610  56.156  1.00  0.00     0.000 A 
HETATM    9  C   UNL     1      30.839  43.429  55.484  1.00  0.00     0.001 A 
HETATM   10  C   UNL     1      30.021  42.990  54.443  1.00  0.00     0.010 A 
ENDBRANCH   4   5
BRANCH   4  11
HETATM   11  C   UNL     1      28.019  41.702  52.676  1.00  0.00     0.251 C 
HETATM   12  N   UNL     1      27.355  40.942  53.592  1.00  0.00    -0.368 N 
HETATM   13  H   UNL     1      26.778  41.308  54.341  1.00  0.00     0.159 HD
HETATM   14  H   UNL     1      27.338  39.935  53.457  1.00  0.00     0.159 HD
HETATM   15  O   UNL     1      28.645  41.176  51.757  1.00  0.00    -0.271 OA
ENDBRANCH   4  11
ENDBRANCH   1   4
BRANCH   1  16
HETATM   16  C   UNL     1      25.746  43.416  51.772  1.00  0.00     0.272 C 
BRANCH  16  17
HETATM   17  C   UNL     1      25.161  44.669  51.178  1.00  0.00    -0.033 A 
HETATM   18  C   UNL     1      24.157  44.589  50.205  1.00  0.00     0.010 A 
HETATM   19  C   UNL     1      23.692  45.744  49.567  1.00  0.00     0.013 A 
HETATM   20  C   UNL     1      24.208  47.011  49.883  1.00  0.00    -0.025 A 
HETATM   21  C   UNL     1      25.198  47.080  50.876  1.00  0.00     0.013 A 
HETATM   22  C   UNL     1      25.676  45.928  51.512  1.00  0.00     0.010 A 
BRANCH  20  23
HETATM   23  C   UNL     1      23.732  48.225  49.193  1.00  0.00    -0.008 A 
HETATM   24  C   UNL     1      22.375  48.459  48.956  1.00  0.00     0.128 A 
HETATM   25  N   UNL     1      21.873  49.540  48.313  1.00  0.00    -0.272 NA
HETATM   26  C   UNL     1      22.763  50.457  47.882  1.00  0.00     0.116 A 
HETATM   27  C   UNL     1      24.129  50.337  48.063  1.00  0.00     0.020 A 
HETATM   28  C   UNL     1      24.613  49.207  48.724  1.00  0.00     0.015 A 
ENDBRANCH  20  23
ENDBRANCH  16  17
ENDBRANCH   1  16
TORSDOF 6
ENDMDL
MODEL 6
REMARK VINA RESULT:      -8.0      4.041      9.372
REMARK  6 active torsions:
REMARK  status: ('A' for Active; 'I' for Inactive)
REMARK    1  A    between atoms: C_4  and  C_5 
REMARK    2  A    between atoms: C_5  and  N_6 
REMARK    3  A    between atoms: C_5  and  C_22 
REMARK    4  A    between atoms: N_6  and  C_9 
REMARK    5  A    between atoms: C_9  and  C_10 
REMARK    6  A    between atoms: C_13  and  C_14 
REMARK       I    between atoms: C_22  and  N_23 
ROOT
HETATM    1  N   UNL     1      21.890  48.386  49.370  1.00  0.00    -0.054 N 
HETATM    2  H   UNL     1      22.393  48.538  50.249  1.00  0.00     0.278 HD
HETATM    3  H   UNL     1      20.935  48.097  49.617  1.00  0.00     0.278 HD
ENDROOT
BRANCH   1   4
HETATM    4  C   UNL     1      21.759  49.685  48.606  1.00  0.00     0.310 C 
BRANCH   4   5
HETATM    5  C   UNL     1      20.477  50.425  48.924  1.00  0.00    -0.019 A 
HETATM    6  C   UNL     1      20.186  51.701  48.413  1.00  0.00     0.010 A 
HETATM    7  C   UNL     1      18.998  52.350  48.755  1.00  0.00     0.001 A 
HETATM    8  C   UNL     1      18.094  51.748  49.627  1.00  0.00     0.000 A 
HETATM    9  C   UNL     1      18.372  50.492  50.156  1.00  0.00     0.001 A 
HETATM   10  C   UNL     1      19.550  49.832  49.806  1.00  0.00     0.010 A 
ENDBRANCH   4   5
BRANCH   4  11
HETATM   11  C   UNL     1      23.070  50.502  48.715  1.00  0.00     0.251 C 
HETATM   12  N   UNL     1      23.964  50.418  47.689  1.00  0.00    -0.368 N 
HETATM   13  H   UNL     1      23.788  49.958  46.802  1.00  0.00     0.159 HD
HETATM   14  H   UNL     1      24.828  50.948  47.763  1.00  0.00     0.159 HD
HETATM   15  O   UNL     1      23.338  51.137  49.734  1.00  0.00    -0.271 OA
ENDBRANCH   4  11
ENDBRANCH   1   4
BRANCH   1  16
HETATM   16  C   UNL     1      22.503  47.225  48.664  1.00  0.00     0.272 C 
BRANCH  16  17
HETATM   17  C   UNL     1      23.642  46.695  49.495  1.00  0.00    -0.033 A 
HETATM   18  C   UNL     1      23.848  45.316  49.614  1.00  0.00     0.010 A 
HETATM   19  C   UNL     1      24.831  44.816  50.476  1.00  0.00     0.013 A 
HETATM   20  C   UNL     1      25.639  45.675  51.239  1.00  0.00    -0.025 A 
HETATM   21  C   UNL     1      25.435  47.057  51.094  1.00  0.00     0.013 A 
HETATM   22  C   UNL     1      24.448  47.565  50.241  1.00  0.00     0.010 A 
BRANCH  20  23
HETATM   23  C   UNL     1      26.658  45.146  52.164  1.00  0.00    -0.008 A 
HETATM   24  C   UNL     1      27.495  44.083  51.815  1.00  0.00     0.128 A 
HETATM   25  N   UNL     1      28.437  43.538  52.622  1.00  0.00    -0.272 NA
HETATM   26  C   UNL     1      28.571  44.078  53.850  1.00  0.00     0.116 A 
HETATM   27  C   UNL     1      27.804  45.134  54.305  1.00  0.00     0.020 A 
HETATM   28  C   UNL     1      26.838  45.669  53.451  1.00  0.00     0.015 A 
ENDBRANCH  20  23
ENDBRANCH  16  17
ENDBRANCH   1  16
TORSDOF 6
ENDMDL
MODEL 7
REMARK VINA RESULT:      -8.0      2.202      3.101
REMARK  6 active torsions:
REMARK  status: ('A' for Active; 'I' for Inactive)
REMARK    1  A    between atoms: C_4  and  C_5 
REMARK    2  A    between atoms: C_5  and  N_6 
REMARK    3  A    between atoms: C_5  and  C_22 
REMARK    4  A    between atoms: N_6  and  C_9 
REMARK    5  A    between atoms: C_9  and  C_10 
REMARK    6  A    between atoms: C_13  and  C_14 
REMARK       I    between atoms: C_22  and  N_23 
ROOT
HETATM    1  N   UNL     1      26.962  44.324  51.142  1.00  0.00    -0.054 N 
HETATM    2  H   UNL     1      26.055  43.952  50.847  1.00  0.00     0.278 HD
HETATM    3  H   UNL     1      26.796  44.889  51.985  1.00  0.00     0.278 HD
ENDROOT
BRANCH   1   4
HETATM    4  C   UNL     1      27.883  43.198  51.556  1.00  0.00     0.310 C 
BRANCH   4   5
HETATM    5  C   UNL     1      28.640  43.500  52.832  1.00  0.00    -0.019 A 
HETATM    6  C   UNL     1      29.844  42.862  53.174  1.00  0.00     0.010 A 
HETATM    7  C   UNL     1      30.492  43.161  54.374  1.00  0.00     0.001 A 
HETATM    8  C   UNL     1      29.939  44.082  55.261  1.00  0.00     0.000 A 
HETATM    9  C   UNL     1      28.739  44.712  54.948  1.00  0.00     0.001 A 
HETATM   10  C   UNL     1      28.095  44.429  53.743  1.00  0.00     0.010 A 
ENDBRANCH   4   5
BRANCH   4  11
HETATM   11  C   UNL     1      27.130  41.847  51.507  1.00  0.00     0.251 C 
HETATM   12  N   UNL     1      25.773  41.875  51.375  1.00  0.00    -0.368 N 
HETATM   13  H   UNL     1      25.225  42.707  51.185  1.00  0.00     0.159 HD
HETATM   14  H   UNL     1      25.276  40.989  51.350  1.00  0.00     0.159 HD
HETATM   15  O   UNL     1      27.725  40.783  51.670  1.00  0.00    -0.271 OA
ENDBRANCH   4  11
ENDBRANCH   1   4
BRANCH   1  16
HETATM   16  C   UNL     1      27.451  45.272  50.099  1.00  0.00     0.272 C 
BRANCH  16  17
HETATM   17  C   UNL     1      26.339  46.226  49.749  1.00  0.00    -0.033 A 
HETATM   18  C   UNL     1      26.600  47.595  49.610  1.00  0.00     0.010 A 
HETATM   19  C   UNL     1      25.553  48.499  49.400  1.00  0.00     0.013 A 
HETATM   20  C   UNL     1      24.219  48.067  49.316  1.00  0.00    -0.025 A 
HETATM   21  C   UNL     1      23.975  46.689  49.436  1.00  0.00     0.013 A 
HETATM   22  C   UNL     1      25.015  45.779  49.656  1.00  0.00     0.010 A 
BRANCH  20  23
HETATM   23  C   UNL     1      23.116  49.025  49.117  1.00  0.00    -0.008 A 
HETATM   24  C   UNL     1      21.776  48.647  49.237  1.00  0.00     0.128 A 
HETATM   25  N   UNL     1      20.717  49.470  49.049  1.00  0.00    -0.272 NA
HETATM   26  C   UNL     1      20.992  50.751  48.730  1.00  0.00     0.116 A 
HETATM   27  C   UNL     1      22.277  51.241  48.589  1.00  0.00     0.020 A 
HETATM   28  C   UNL     1      23.346  50.365  48.783  1.00  0.00     0.015 A 
ENDBRANCH  20  23
ENDBRANCH  16  17
ENDBRANCH   1  16
TORSDOF 6
ENDMDL
MODEL 8
REMARK VINA RESULT:      -7.9     13.062     14.852
REMARK  6 active torsions:
REMARK  status: ('A' for Active; 'I' for Inactive)
REMARK    1  A    between atoms: C_4  and  C_5 
REMARK    2  A    between atoms: C_5  and  N_6 
REMARK    3  A    between atoms: C_5  and  C_22 
REMARK    4  A    between atoms: N_6  and  C_9 
REMARK    5  A    between atoms: C_9  and  C_10 
REMARK    6  A    between atoms: C_13  and  C_14 
REMARK       I    between atoms: C_22  and  N_23 
ROOT
HETATM    1  N   UNL     1      27.213  51.223  40.729  1.00  0.00    -0.054 N 
HETATM    2  H   UNL     1      26.196  51.335  40.768  1.00  0.00     0.278 HD
HETATM    3  H   UNL     1      27.465  50.525  41.441  1.00  0.00     0.278 HD
ENDROOT
BRANCH   1   4
HETATM    4  C   UNL     1      27.629  50.643  39.396  1.00  0.00     0.310 C 
BRANCH   4   5
HETATM    5  C   UNL     1      28.719  49.600  39.525  1.00  0.00    -0.019 A 
HETATM    6  C   UNL     1      29.909  49.646  38.781  1.00  0.00     0.010 A 
HETATM    7  C   UNL     1      30.874  48.646  38.921  1.00  0.00     0.001 A 
HETATM    8  C   UNL     1      30.658  47.577  39.787  1.00  0.00     0.000 A 
HETATM    9  C   UNL     1      29.478  47.507  40.521  1.00  0.00     0.001 A 
HETATM   10  C   UNL     1      28.517  48.510  40.396  1.00  0.00     0.010 A 
ENDBRANCH   4   5
BRANCH   4  11
HETATM   11  C   UNL     1      26.379  50.234  38.579  1.00  0.00     0.251 C 
HETATM   12  N   UNL     1      25.179  50.189  39.224  1.00  0.00    -0.368 N 
HETATM   13  H   UNL     1      25.015  50.518  40.169  1.00  0.00     0.159 HD
HETATM   14  H   UNL     1      24.359  49.914  38.691  1.00  0.00     0.159 HD
HETATM   15  O   UNL     1      26.478  49.876  37.406  1.00  0.00    -0.271 OA
ENDBRANCH   4  11
ENDBRANCH   1   4
BRANCH   1  16
HETATM   16  C   UNL     1      27.850  52.501  41.159  1.00  0.00     0.272 C 
BRANCH  16  17
HETATM   17  C   UNL     1      29.341  52.304  41.224  1.00  0.00    -0.033 A 
HETATM   18  C   UNL     1      30.180  52.948  40.306  1.00  0.00     0.010 A 
HETATM   19  C   UNL     1      31.553  52.679  40.288  1.00  0.00     0.013 A 
HETATM   20  C   UNL     1      32.131  51.767  41.185  1.00  0.00    -0.025 A 
HETATM   21  C   UNL     1      31.281  51.144  42.115  1.00  0.00     0.013 A 
HETATM   22  C   UNL     1      29.906  51.401  42.133  1.00  0.00     0.010 A 
BRANCH  20  23
HETATM   23  C   UNL     1      33.575  51.468  41.149  1.00  0.00    -0.008 A 
HETATM   24  C   UNL     1      34.228  50.837  42.211  1.00  0.00     0.128 A 
HETATM   25  N   UNL     1      35.551  50.551  42.250  1.00  0.00    -0.272 NA
HETATM   26  C   UNL     1      36.280  50.900  41.170  1.00  0.00     0.116 A 
HETATM   27  C   UNL     1      35.743  51.524  40.059  1.00  0.00     0.020 A 
HETATM   28  C   UNL     1      34.377  51.810  40.053  1.00  0.00     0.015 A 
ENDBRANCH  20  23
ENDBRANCH  16  17
ENDBRANCH   1  16
TORSDOF 6
ENDMDL
MODEL 9
REMARK VINA RESULT:      -7.8      9.701     14.080
REMARK  6 active torsions:
REMARK  status: ('A' for Active; 'I' for Inactive)
REMARK    1  A    between atoms: C_4  and  C_5 
REMARK    2  A    between atoms: C_5  and  N_6 
REMARK    3  A    between atoms: C_5  and  C_22 
REMARK    4  A    between atoms: N_6  and  C_9 
REMARK    5  A    between atoms: C_9  and  C_10 
REMARK    6  A    between atoms: C_13  and  C_14 
REMARK       I    between atoms: C_22  and  N_23 
ROOT
HETATM    1  N   UNL     1      16.123  53.603  49.541  1.00  0.00    -0.054 N 
HETATM    2  H   UNL     1      16.385  53.812  48.574  1.00  0.00     0.278 HD
HETATM    3  H   UNL     1      16.835  54.033  50.145  1.00  0.00     0.278 HD
ENDROOT
BRANCH   1   4
HETATM    4  C   UNL     1      14.810  54.268  49.887  1.00  0.00     0.310 C 
BRANCH   4   5
HETATM    5  C   UNL     1      14.985  55.484  50.772  1.00  0.00    -0.019 A 
HETATM    6  C   UNL     1      14.920  55.423  52.173  1.00  0.00     0.010 A 
HETATM    7  C   UNL     1      15.066  56.579  52.944  1.00  0.00     0.001 A 
HETATM    8  C   UNL     1      15.257  57.813  52.329  1.00  0.00     0.000 A 
HETATM    9  C   UNL     1      15.308  57.897  50.941  1.00  0.00     0.001 A 
HETATM   10  C   UNL     1      15.178  56.744  50.167  1.00  0.00     0.010 A 
ENDBRANCH   4   5
BRANCH   4  11
HETATM   11  C   UNL     1      13.958  54.464  48.609  1.00  0.00     0.251 C 
HETATM   12  N   UNL     1      14.587  54.380  47.402  1.00  0.00    -0.368 N 
HETATM   13  H   UNL     1      15.546  54.080  47.266  1.00  0.00     0.159 HD
HETATM   14  H   UNL     1      14.030  54.516  46.563  1.00  0.00     0.159 HD
HETATM   15  O   UNL     1      12.770  54.773  48.680  1.00  0.00    -0.271 OA
ENDBRANCH   4  11
ENDBRANCH   1   4
BRANCH   1  16
HETATM   16  C   UNL     1      16.233  52.131  49.757  1.00  0.00     0.272 C 
BRANCH  16  17
HETATM   17  C   UNL     1      17.674  51.723  49.604  1.00  0.00    -0.033 A 
HETATM   18  C   UNL     1      18.537  52.466  48.789  1.00  0.00     0.010 A 
HETATM   19  C   UNL     1      19.844  52.027  48.553  1.00  0.00     0.013 A 
HETATM   20  C   UNL     1      20.331  50.840  49.124  1.00  0.00    -0.025 A 
HETATM   21  C   UNL     1      19.462  50.116  49.957  1.00  0.00     0.013 A 
HETATM   22  C   UNL     1      18.150  50.543  50.191  1.00  0.00     0.010 A 
BRANCH  20  23
HETATM   23  C   UNL     1      21.702  50.367  48.855  1.00  0.00    -0.008 A 
HETATM   24  C   UNL     1      22.115  49.071  49.173  1.00  0.00     0.128 A 
HETATM   25  N   UNL     1      23.361  48.581  48.970  1.00  0.00    -0.272 NA
HETATM   26  C   UNL     1      24.259  49.416  48.410  1.00  0.00     0.116 A 
HETATM   27  C   UNL     1      23.965  50.719  48.048  1.00  0.00     0.020 A 
HETATM   28  C   UNL     1      22.673  51.195  48.277  1.00  0.00     0.015 A 
ENDBRANCH  20  23
ENDBRANCH  16  17
ENDBRANCH   1  16
TORSDOF 6
ENDMDL
MODEL 10
REMARK VINA RESULT:      -7.8      2.017      2.828
REMARK  6 active torsions:
REMARK  status: ('A' for Active; 'I' for Inactive)
REMARK    1  A    between atoms: C_4  and  C_5 
REMARK    2  A    between atoms: C_5  and  N_6 
REMARK    3  A    between atoms: C_5  and  C_22 
REMARK    4  A    between atoms: N_6  and  C_9 
REMARK    5  A    between atoms: C_9  and  C_10 
REMARK    6  A    between atoms: C_13  and  C_14 
REMARK       I    between atoms: C_22  and  N_23 
ROOT
HETATM    1  N   UNL     1      26.944  44.508  53.859  1.00  0.00    -0.054 N 
HETATM    2  H   UNL     1      26.238  43.911  53.419  1.00  0.00     0.278 HD
HETATM    3  H   UNL     1      26.808  44.433  54.876  1.00  0.00     0.278 HD
ENDROOT
BRANCH   1   4
HETATM    4  C   UNL     1      28.332  43.982  53.572  1.00  0.00     0.310 C 
BRANCH   4   5
HETATM    5  C   UNL     1      29.273  44.141  54.747  1.00  0.00    -0.019 A 
HETATM    6  C   UNL     1      29.284  45.283  55.565  1.00  0.00     0.010 A 
HETATM    7  C   UNL     1      30.189  45.391  56.624  1.00  0.00     0.001 A 
HETATM    8  C   UNL     1      31.107  44.374  56.869  1.00  0.00     0.000 A 
HETATM    9  C   UNL     1      31.122  43.242  56.060  1.00  0.00     0.001 A 
HETATM   10  C   UNL     1      30.212  43.122  55.011  1.00  0.00     0.010 A 
ENDBRANCH   4   5
BRANCH   4  11
HETATM   11  C   UNL     1      28.247  42.569  52.945  1.00  0.00     0.251 C 
HETATM   12  N   UNL     1      27.309  41.708  53.431  1.00  0.00    -0.368 N 
HETATM   13  H   UNL     1      26.578  41.956  54.090  1.00  0.00     0.159 HD
HETATM   14  H   UNL     1      27.257  40.778  53.025  1.00  0.00     0.159 HD
HETATM   15  O   UNL     1      29.058  42.203  52.096  1.00  0.00    -0.271 OA
ENDBRANCH   4  11
ENDBRANCH   1   4
BRANCH   1  16
HETATM   16  C   UNL     1      26.654  45.929  53.508  1.00  0.00     0.272 C 
BRANCH  16  17
HETATM   17  C   UNL     1      25.839  45.960  52.242  1.00  0.00    -0.033 A 
HETATM   18  C   UNL     1      25.746  47.139  51.491  1.00  0.00     0.010 A 
HETATM   19  C   UNL     1      24.900  47.207  50.379  1.00  0.00     0.013 A 
HETATM   20  C   UNL     1      24.128  46.104  49.979  1.00  0.00    -0.025 A 
HETATM   21  C   UNL     1      24.248  44.922  50.728  1.00  0.00     0.013 A 
HETATM   22  C   UNL     1      25.085  44.848  51.848  1.00  0.00     0.010 A 
BRANCH  20  23
HETATM   23  C   UNL     1      23.220  46.185  48.820  1.00  0.00    -0.008 A 
HETATM   24  C   UNL     1      22.731  47.405  48.346  1.00  0.00     0.128 A 
HETATM   25  N   UNL     1      21.881  47.549  47.301  1.00  0.00    -0.272 NA
HETATM   26  C   UNL     1      21.492  46.419  46.675  1.00  0.00     0.116 A 
HETATM   27  C   UNL     1      21.913  45.157  47.050  1.00  0.00     0.020 A 
HETATM   28  C   UNL     1      22.784  45.043  48.135  1.00  0.00     0.015 A 
ENDBRANCH  20  23
ENDBRANCH  16  17
ENDBRANCH   1  16
TORSDOF 6
ENDMDL
