MODEL 1
REMARK VINA RESULT:      -8.4      0.000      0.000
REMARK  7 active torsions:
REMARK  status: ('A' for Active; 'I' for Inactive)
REMARK    1  A    between atoms: C_5  and  C_6 
REMARK    2  A    between atoms: C_6  and  C_7 
REMARK    3  A    between atoms: C_7  and  N_8 
REMARK       I    between atoms: N_8  and  C_9 
REMARK       I    between atoms: C_9  and  N_10 
REMARK    4  A    between atoms: N_10  and  N_11 
REMARK       I    between atoms: N_11  and  C_12 
REMARK    5  A    between atoms: C_12  and  C_13 
REMARK    6  A    between atoms: C_13  and  O_14 
REMARK    7  A    between atoms: O_14  and  C_15 
ROOT
HETATM    1  N   UNL     1      25.328  44.435  50.844  1.00  0.00    -0.341 N 
HETATM    2  C   UNL     1      24.635  43.270  51.019  1.00  0.00     0.334 C 
HETATM    3  N   UNL     1      25.377  42.202  51.469  1.00  0.00    -0.249 N 
HETATM    4  O   UNL     1      23.436  43.140  50.794  1.00  0.00    -0.246 OA
HETATM    5  H   UNL     1      26.285  44.244  50.560  1.00  0.00     0.164 HD
HETATM    6  H   UNL     1      24.842  41.355  51.626  1.00  0.00     0.192 HD
ENDROOT
BRANCH   3   7
HETATM    7  N   UNL     1      26.620  42.316  52.132  1.00  0.00    -0.264 N 
HETATM    8  C   UNL     1      27.614  41.372  51.924  1.00  0.00     0.260 C 
HETATM    9  O   UNL     1      27.614  40.574  50.986  1.00  0.00    -0.269 OA
HETATM   10  H   UNL     1      26.604  42.818  53.016  1.00  0.00     0.190 HD
BRANCH   8  11
HETATM   11  C   UNL     1      28.772  41.476  52.905  1.00  0.00     0.280 C 
BRANCH  11  12
HETATM   12  O   UNL     1      29.407  42.738  52.715  1.00  0.00    -0.342 OA
BRANCH  12  13
HETATM   13  C   UNL     1      29.635  43.410  53.887  1.00  0.00     0.069 A 
HETATM   14  C   UNL     1      30.690  43.116  54.753  1.00  0.00     0.038 A 
HETATM   15  C   UNL     1      30.854  43.856  55.927  1.00  0.00     0.022 A 
HETATM   16  C   UNL     1      29.970  44.892  56.223  1.00  0.00     0.011 A 
HETATM   17 BR   UNL     1      30.189  45.886  57.815  1.00  0.00    -0.051 Br
HETATM   18  C   UNL     1      28.930  45.204  55.349  1.00  0.00     0.022 A 
HETATM   19  C   UNL     1      28.770  44.466  54.174  1.00  0.00     0.038 A 
ENDBRANCH  12  13
ENDBRANCH  11  12
ENDBRANCH   8  11
ENDBRANCH   3   7
BRANCH   1  20
HETATM   20  C   UNL     1      24.719  45.570  50.171  1.00  0.00     0.130 C 
BRANCH  20  21
HETATM   21  C   UNL     1      24.934  46.903  50.886  1.00  0.00     0.079 C 
BRANCH  21  22
HETATM   22  C   UNL     1      25.208  48.001  49.909  1.00  0.00     0.043 A 
HETATM   23  C   UNL     1      26.444  48.382  49.424  1.00  0.00     0.078 A 
HETATM   24  S   UNL     1      26.272  49.699  48.343  1.00  0.00    -0.085 SA
HETATM   25  C   UNL     1      24.574  49.676  48.605  1.00  0.00     0.071 A 
HETATM   26  C   UNL     1      23.692  50.651  47.908  1.00  0.00     0.078 C 
HETATM   27  N   UNL     1      24.143  48.750  49.434  1.00  0.00    -0.251 NA
ENDBRANCH  21  22
ENDBRANCH  20  21
ENDBRANCH   1  20
TORSDOF 7
ENDMDL
MODEL 2
REMARK VINA RESULT:      -7.7      3.506      5.190
REMARK  7 active torsions:
REMARK  status: ('A' for Active; 'I' for Inactive)
REMARK    1  A    between atoms: C_5  and  C_6 
REMARK    2  A    between atoms: C_6  and  C_7 
REMARK    3  A    between atoms: C_7  and  N_8 
REMARK       I    between atoms: N_8  and  C_9 
REMARK       I    between atoms: C_9  and  N_10 
REMARK    4  A    between atoms: N_10  and  N_11 
REMARK       I    between atoms: N_11  and  C_12 
REMARK    5  A    between atoms: C_12  and  C_13 
REMARK    6  A    between atoms: C_13  and  O_14 
REMARK    7  A    between atoms: O_14  and  C_15 
ROOT
HETATM    1  N   UNL     1      24.791  49.119  48.815  1.00  0.00    -0.341 N 
HETATM    2  C   UNL     1      26.137  49.285  48.645  1.00  0.00     0.334 C 
HETATM    3  N   UNL     1      26.932  48.347  49.263  1.00  0.00    -0.249 N 
HETATM    4  O   UNL     1      26.643  50.199  48.002  1.00  0.00    -0.246 OA
HETATM    5  H   UNL     1      24.592  48.710  49.723  1.00  0.00     0.164 HD
HETATM    6  H   UNL     1      27.926  48.465  49.099  1.00  0.00     0.192 HD
ENDROOT
BRANCH   3   7
HETATM    7  N   UNL     1      26.489  47.068  49.668  1.00  0.00    -0.264 N 
HETATM    8  C   UNL     1      25.962  46.879  50.938  1.00  0.00     0.260 C 
HETATM    9  O   UNL     1      25.585  47.798  51.665  1.00  0.00    -0.269 OA
HETATM   10  H   UNL     1      26.932  46.279  49.205  1.00  0.00     0.190 HD
BRANCH   8  11
HETATM   11  C   UNL     1      25.791  45.417  51.318  1.00  0.00     0.280 C 
BRANCH  11  12
HETATM   12  O   UNL     1      25.620  45.338  52.731  1.00  0.00    -0.342 OA
BRANCH  12  13
HETATM   13  C   UNL     1      26.761  44.973  53.394  1.00  0.00     0.069 A 
HETATM   14  C   UNL     1      27.365  45.756  54.381  1.00  0.00     0.038 A 
HETATM   15  C   UNL     1      28.527  45.305  55.013  1.00  0.00     0.022 A 
HETATM   16  C   UNL     1      29.072  44.070  54.664  1.00  0.00     0.011 A 
HETATM   17 BR   UNL     1      30.648  43.466  55.514  1.00  0.00    -0.051 Br
HETATM   18  C   UNL     1      28.460  43.277  53.696  1.00  0.00     0.022 A 
HETATM   19  C   UNL     1      27.296  43.727  53.068  1.00  0.00     0.038 A 
ENDBRANCH  12  13
ENDBRANCH  11  12
ENDBRANCH   8  11
ENDBRANCH   3   7
BRANCH   1  20
HETATM   20  C   UNL     1      23.856  50.152  48.405  1.00  0.00     0.130 C 
BRANCH  20  21
HETATM   21  C   UNL     1      22.562  49.611  47.796  1.00  0.00     0.079 C 
BRANCH  21  22
HETATM   22  C   UNL     1      21.373  50.022  48.604  1.00  0.00     0.043 A 
HETATM   23  C   UNL     1      20.850  51.296  48.710  1.00  0.00     0.078 A 
HETATM   24  S   UNL     1      19.498  51.292  49.762  1.00  0.00    -0.085 SA
HETATM   25  C   UNL     1      19.711  49.606  50.009  1.00  0.00     0.071 A 
HETATM   26  C   UNL     1      18.791  48.854  50.905  1.00  0.00     0.078 C 
HETATM   27  N   UNL     1      20.714  49.061  49.355  1.00  0.00    -0.251 NA
ENDBRANCH  21  22
ENDBRANCH  20  21
ENDBRANCH   1  20
TORSDOF 7
ENDMDL
MODEL 3
REMARK VINA RESULT:      -7.6      4.306      5.764
REMARK  7 active torsions:
REMARK  status: ('A' for Active; 'I' for Inactive)
REMARK    1  A    between atoms: C_5  and  C_6 
REMARK    2  A    between atoms: C_6  and  C_7 
REMARK    3  A    between atoms: C_7  and  N_8 
REMARK       I    between atoms: N_8  and  C_9 
REMARK       I    between atoms: C_9  and  N_10 
REMARK    4  A    between atoms: N_10  and  N_11 
REMARK       I    between atoms: N_11  and  C_12 
REMARK    5  A    between atoms: C_12  and  C_13 
REMARK    6  A    between atoms: C_13  and  O_14 
REMARK    7  A    between atoms: O_14  and  C_15 
ROOT
HETATM    1  N   UNL     1      21.887  48.151  49.461  1.00  0.00    -0.341 N 
HETATM    2  C   UNL     1      23.052  48.368  48.779  1.00  0.00     0.334 C 
HETATM    3  N   UNL     1      24.185  47.849  49.363  1.00  0.00    -0.249 N 
HETATM    4  O   UNL     1      23.127  48.986  47.722  1.00  0.00    -0.246 OA
HETATM    5  H   UNL     1      22.057  48.131  50.463  1.00  0.00     0.164 HD
HETATM    6  H   UNL     1      25.035  47.990  48.827  1.00  0.00     0.192 HD
ENDROOT
BRANCH   3   7
HETATM    7  N   UNL     1      24.185  46.810  50.320  1.00  0.00    -0.264 N 
HETATM    8  C   UNL     1      25.197  46.728  51.265  1.00  0.00     0.260 C 
HETATM    9  O   UNL     1      25.966  47.654  51.525  1.00  0.00    -0.269 OA
HETATM   10  H   UNL     1      23.709  45.955  50.044  1.00  0.00     0.190 HD
BRANCH   8  11
HETATM   11  C   UNL     1      25.210  45.417  52.036  1.00  0.00     0.280 C 
BRANCH  11  12
HETATM   12  O   UNL     1      26.298  44.629  51.561  1.00  0.00    -0.342 OA
BRANCH  12  13
HETATM   13  C   UNL     1      27.264  44.415  52.508  1.00  0.00     0.069 A 
HETATM   14  C   UNL     1      27.279  45.047  53.753  1.00  0.00     0.038 A 
HETATM   15  C   UNL     1      28.301  44.766  54.664  1.00  0.00     0.022 A 
HETATM   16  C   UNL     1      29.295  43.847  54.330  1.00  0.00     0.011 A 
HETATM   17 BR   UNL     1      30.680  43.476  55.561  1.00  0.00    -0.051 Br
HETATM   18  C   UNL     1      29.271  43.198  53.098  1.00  0.00     0.022 A 
HETATM   19  C   UNL     1      28.246  43.476  52.190  1.00  0.00     0.038 A 
ENDBRANCH  12  13
ENDBRANCH  11  12
ENDBRANCH   8  11
ENDBRANCH   3   7
BRANCH   1  20
HETATM   20  C   UNL     1      20.661  48.827  49.074  1.00  0.00     0.130 C 
BRANCH  20  21
HETATM   21  C   UNL     1      20.532  50.244  49.630  1.00  0.00     0.079 C 
BRANCH  21  22
HETATM   22  C   UNL     1      19.142  50.768  49.455  1.00  0.00     0.043 A 
HETATM   23  C   UNL     1      18.663  51.991  49.883  1.00  0.00     0.078 A 
HETATM   24  S   UNL     1      17.006  52.148  49.478  1.00  0.00    -0.085 SA
HETATM   25  C   UNL     1      17.042  50.582  48.775  1.00  0.00     0.071 A 
HETATM   26  C   UNL     1      15.817  50.006  48.157  1.00  0.00     0.078 C 
HETATM   27  N   UNL     1      18.204  49.967  48.822  1.00  0.00    -0.251 NA
ENDBRANCH  21  22
ENDBRANCH  20  21
ENDBRANCH   1  20
TORSDOF 7
ENDMDL
MODEL 4
REMARK VINA RESULT:      -7.6      5.639      9.095
REMARK  7 active torsions:
REMARK  status: ('A' for Active; 'I' for Inactive)
REMARK    1  A    between atoms: C_5  and  C_6 
REMARK    2  A    between atoms: C_6  and  C_7 
REMARK    3  A    between atoms: C_7  and  N_8 
REMARK       I    between atoms: N_8  and  C_9 
REMARK       I    between atoms: C_9  and  N_10 
REMARK    4  A    between atoms: N_10  and  N_11 
REMARK       I    between atoms: N_11  and  C_12 
REMARK    5  A    between atoms: C_12  and  C_13 
REMARK    6  A    between atoms: C_13  and  O_14 
REMARK    7  A    between atoms: O_14  and  C_15 
ROOT
HETATM    1  N   UNL     1      23.534  45.752  49.882  1.00  0.00    -0.341 N 
HETATM    2  C   UNL     1      22.803  44.679  49.455  1.00  0.00     0.334 C 
HETATM    3  N   UNL     1      21.501  44.952  49.102  1.00  0.00    -0.249 N 
HETATM    4  O   UNL     1      23.237  43.534  49.385  1.00  0.00    -0.246 OA
HETATM    5  H   UNL     1      22.940  46.422  50.362  1.00  0.00     0.164 HD
HETATM    6  H   UNL     1      20.983  44.151  48.755  1.00  0.00     0.192 HD
ENDROOT
BRANCH   3   7
HETATM    7  N   UNL     1      21.020  46.235  48.757  1.00  0.00    -0.264 N 
HETATM    8  C   UNL     1      21.536  46.904  47.658  1.00  0.00     0.260 C 
HETATM    9  O   UNL     1      22.197  46.359  46.773  1.00  0.00    -0.269 OA
HETATM   10  H   UNL     1      20.636  46.783  49.523  1.00  0.00     0.190 HD
BRANCH   8  11
HETATM   11  C   UNL     1      21.123  48.366  47.582  1.00  0.00     0.280 C 
BRANCH  11  12
HETATM   12  O   UNL     1      21.107  48.896  48.905  1.00  0.00    -0.342 OA
BRANCH  12  13
HETATM   13  C   UNL     1      20.170  49.879  49.082  1.00  0.00     0.069 A 
HETATM   14  C   UNL     1      20.289  51.165  48.551  1.00  0.00     0.038 A 
HETATM   15  C   UNL     1      19.281  52.107  48.775  1.00  0.00     0.022 A 
HETATM   16  C   UNL     1      18.156  51.755  49.519  1.00  0.00     0.011 A 
HETATM   17 BR   UNL     1      16.798  53.034  49.828  1.00  0.00    -0.051 Br
HETATM   18  C   UNL     1      18.023  50.466  50.032  1.00  0.00     0.022 A 
HETATM   19  C   UNL     1      19.029  49.524  49.803  1.00  0.00     0.038 A 
ENDBRANCH  12  13
ENDBRANCH  11  12
ENDBRANCH   8  11
ENDBRANCH   3   7
BRANCH   1  20
HETATM   20  C   UNL     1      24.842  45.569  50.487  1.00  0.00     0.130 C 
BRANCH  20  21
HETATM   21  C   UNL     1      25.410  46.834  51.131  1.00  0.00     0.079 C 
BRANCH  21  22
HETATM   22  C   UNL     1      25.639  47.902  50.110  1.00  0.00     0.043 A 
HETATM   23  C   UNL     1      26.859  48.325  49.620  1.00  0.00     0.078 A 
HETATM   24  S   UNL     1      26.632  49.585  48.481  1.00  0.00    -0.085 SA
HETATM   25  C   UNL     1      24.935  49.486  48.729  1.00  0.00     0.071 A 
HETATM   26  C   UNL     1      24.013  50.383  47.983  1.00  0.00     0.078 C 
HETATM   27  N   UNL     1      24.542  48.575  49.593  1.00  0.00    -0.251 NA
ENDBRANCH  21  22
ENDBRANCH  20  21
ENDBRANCH   1  20
TORSDOF 7
ENDMDL
MODEL 5
REMARK VINA RESULT:      -7.4      5.323     10.100
REMARK  7 active torsions:
REMARK  status: ('A' for Active; 'I' for Inactive)
REMARK    1  A    between atoms: C_5  and  C_6 
REMARK    2  A    between atoms: C_6  and  C_7 
REMARK    3  A    between atoms: C_7  and  N_8 
REMARK       I    between atoms: N_8  and  C_9 
REMARK       I    between atoms: C_9  and  N_10 
REMARK    4  A    between atoms: N_10  and  N_11 
REMARK       I    between atoms: N_11  and  C_12 
REMARK    5  A    between atoms: C_12  and  C_13 
REMARK    6  A    between atoms: C_13  and  O_14 
REMARK    7  A    between atoms: O_14  and  C_15 
ROOT
HETATM    1  N   UNL     1      24.774  46.269  50.885  1.00  0.00    -0.341 N 
HETATM    2  C   UNL     1      24.098  45.787  49.799  1.00  0.00     0.334 C 
HETATM    3  N   UNL     1      23.064  46.576  49.347  1.00  0.00    -0.249 N 
HETATM    4  O   UNL     1      24.355  44.725  49.242  1.00  0.00    -0.246 OA
HETATM    5  H   UNL     1      24.152  46.797  51.489  1.00  0.00     0.164 HD
HETATM    6  H   UNL     1      22.595  46.221  48.521  1.00  0.00     0.192 HD
ENDROOT
BRANCH   3   7
HETATM    7  N   UNL     1      22.933  47.955  49.626  1.00  0.00    -0.264 N 
HETATM    8  C   UNL     1      22.618  48.847  48.612  1.00  0.00     0.260 C 
HETATM    9  O   UNL     1      22.164  48.509  47.519  1.00  0.00    -0.269 OA
HETATM   10  H   UNL     1      23.459  48.295  50.427  1.00  0.00     0.190 HD
BRANCH   8  11
HETATM   11  C   UNL     1      22.784  50.306  49.009  1.00  0.00     0.280 C 
BRANCH  11  12
HETATM   12  O   UNL     1      21.901  50.579  50.094  1.00  0.00    -0.342 OA
BRANCH  12  13
HETATM   13  C   UNL     1      20.638  50.922  49.690  1.00  0.00     0.069 A 
HETATM   14  C   UNL     1      20.375  51.780  48.620  1.00  0.00     0.038 A 
HETATM   15  C   UNL     1      19.054  52.072  48.270  1.00  0.00     0.022 A 
HETATM   16  C   UNL     1      18.004  51.497  48.985  1.00  0.00     0.011 A 
HETATM   17 BR   UNL     1      16.218  51.901  48.515  1.00  0.00    -0.051 Br
HETATM   18  C   UNL     1      18.262  50.623  50.038  1.00  0.00     0.022 A 
HETATM   19  C   UNL     1      19.583  50.328  50.384  1.00  0.00     0.038 A 
ENDBRANCH  12  13
ENDBRANCH  11  12
ENDBRANCH   8  11
ENDBRANCH   3   7
BRANCH   1  20
HETATM   20  C   UNL     1      25.735  45.439  51.591  1.00  0.00     0.130 C 
BRANCH  20  21
HETATM   21  C   UNL     1      25.464  45.317  53.090  1.00  0.00     0.079 C 
BRANCH  21  22
HETATM   22  C   UNL     1      26.737  45.368  53.874  1.00  0.00     0.043 A 
HETATM   23  C   UNL     1      27.164  46.402  54.684  1.00  0.00     0.078 A 
HETATM   24  S   UNL     1      28.691  46.025  55.363  1.00  0.00    -0.085 SA
HETATM   25  C   UNL     1      28.679  44.525  54.527  1.00  0.00     0.071 A 
HETATM   26  C   UNL     1      29.816  43.575  54.668  1.00  0.00     0.078 C 
HETATM   27  N   UNL     1      27.613  44.297  53.790  1.00  0.00    -0.251 NA
ENDBRANCH  21  22
ENDBRANCH  20  21
ENDBRANCH   1  20
TORSDOF 7
ENDMDL
MODEL 6
REMARK VINA RESULT:      -7.3     12.509     14.409
REMARK  7 active torsions:
REMARK  status: ('A' for Active; 'I' for Inactive)
REMARK    1  A    between atoms: C_5  and  C_6 
REMARK    2  A    between atoms: C_6  and  C_7 
REMARK    3  A    between atoms: C_7  and  N_8 
REMARK       I    between atoms: N_8  and  C_9 
REMARK       I    between atoms: C_9  and  N_10 
REMARK    4  A    between atoms: N_10  and  N_11 
REMARK       I    between atoms: N_11  and  C_12 
REMARK    5  A    between atoms: C_12  and  C_13 
REMARK    6  A    between atoms: C_13  and  O_14 
REMARK    7  A    between atoms: O_14  and  C_15 
ROOT
HETATM    1  N   UNL     1      27.674  48.629  39.209  1.00  0.00    -0.341 N 
HETATM    2  C   UNL     1      26.327  48.857  39.248  1.00  0.00     0.334 C 
HETATM    3  N   UNL     1      25.943  50.042  39.833  1.00  0.00    -0.249 N 
HETATM    4  O   UNL     1      25.484  48.079  38.812  1.00  0.00    -0.246 OA
HETATM    5  H   UNL     1      28.131  49.042  40.016  1.00  0.00     0.164 HD
HETATM    6  H   UNL     1      24.943  50.210  39.823  1.00  0.00     0.192 HD
ENDROOT
BRANCH   3   7
HETATM    7  N   UNL     1      26.789  51.162  39.994  1.00  0.00    -0.264 N 
HETATM    8  C   UNL     1      27.496  51.341  41.174  1.00  0.00     0.260 C 
HETATM    9  O   UNL     1      27.671  50.453  42.008  1.00  0.00    -0.269 OA
HETATM   10  H   UNL     1      26.545  51.983  39.445  1.00  0.00     0.190 HD
BRANCH   8  11
HETATM   11  C   UNL     1      28.135  52.716  41.301  1.00  0.00     0.280 C 
BRANCH  11  12
HETATM   12  O   UNL     1      28.640  53.095  40.024  1.00  0.00    -0.342 OA
BRANCH  12  13
HETATM   13  C   UNL     1      29.943  52.722  39.825  1.00  0.00     0.069 A 
HETATM   14  C   UNL     1      30.342  51.788  38.867  1.00  0.00     0.038 A 
HETATM   15  C   UNL     1      31.695  51.468  38.727  1.00  0.00     0.022 A 
HETATM   16  C   UNL     1      32.642  52.092  39.537  1.00  0.00     0.011 A 
HETATM   17 BR   UNL     1      34.471  51.652  39.350  1.00  0.00    -0.051 Br
HETATM   18  C   UNL     1      32.251  53.042  40.478  1.00  0.00     0.022 A 
HETATM   19  C   UNL     1      30.899  53.363  40.615  1.00  0.00     0.038 A 
ENDBRANCH  12  13
ENDBRANCH  11  12
ENDBRANCH   8  11
ENDBRANCH   3   7
BRANCH   1  20
HETATM   20  C   UNL     1      28.199  47.331  38.821  1.00  0.00     0.130 C 
BRANCH  20  21
HETATM   21  C   UNL     1      28.951  46.608  39.939  1.00  0.00     0.079 C 
BRANCH  21  22
HETATM   22  C   UNL     1      30.110  47.419  40.422  1.00  0.00     0.043 A 
HETATM   23  C   UNL     1      31.437  47.246  40.077  1.00  0.00     0.078 A 
HETATM   24  S   UNL     1      32.411  48.396  40.891  1.00  0.00    -0.085 SA
HETATM   25  C   UNL     1      31.007  49.032  41.648  1.00  0.00     0.071 A 
HETATM   26  C   UNL     1      31.114  50.178  42.591  1.00  0.00     0.078 C 
HETATM   27  N   UNL     1      29.874  48.445  41.324  1.00  0.00    -0.251 NA
ENDBRANCH  21  22
ENDBRANCH  20  21
ENDBRANCH   1  20
TORSDOF 7
ENDMDL
MODEL 7
REMARK VINA RESULT:      -7.3      3.099      4.292
REMARK  7 active torsions:
REMARK  status: ('A' for Active; 'I' for Inactive)
REMARK    1  A    between atoms: C_5  and  C_6 
REMARK    2  A    between atoms: C_6  and  C_7 
REMARK    3  A    between atoms: C_7  and  N_8 
REMARK       I    between atoms: N_8  and  C_9 
REMARK       I    between atoms: C_9  and  N_10 
REMARK    4  A    between atoms: N_10  and  N_11 
REMARK       I    between atoms: N_11  and  C_12 
REMARK    5  A    between atoms: C_12  and  C_13 
REMARK    6  A    between atoms: C_13  and  O_14 
REMARK    7  A    between atoms: O_14  and  C_15 
ROOT
HETATM    1  N   UNL     1      21.648  46.272  48.684  1.00  0.00    -0.341 N 
HETATM    2  C   UNL     1      22.115  45.015  48.950  1.00  0.00     0.334 C 
HETATM    3  N   UNL     1      23.340  44.958  49.575  1.00  0.00    -0.249 N 
HETATM    4  O   UNL     1      21.519  43.983  48.660  1.00  0.00    -0.246 OA
HETATM    5  H   UNL     1      22.418  46.907  48.492  1.00  0.00     0.164 HD
HETATM    6  H   UNL     1      23.656  44.019  49.795  1.00  0.00     0.192 HD
ENDROOT
BRANCH   3   7
HETATM    7  N   UNL     1      23.915  46.024  50.302  1.00  0.00    -0.264 N 
HETATM    8  C   UNL     1      25.271  46.294  50.196  1.00  0.00     0.260 C 
HETATM    9  O   UNL     1      25.987  45.853  49.297  1.00  0.00    -0.269 OA
HETATM   10  H   UNL     1      23.434  46.282  51.161  1.00  0.00     0.190 HD
BRANCH   8  11
HETATM   11  C   UNL     1      25.783  47.277  51.237  1.00  0.00     0.280 C 
BRANCH  11  12
HETATM   12  O   UNL     1      25.354  46.834  52.522  1.00  0.00    -0.342 OA
BRANCH  12  13
HETATM   13  C   UNL     1      26.391  46.491  53.349  1.00  0.00     0.069 A 
HETATM   14  C   UNL     1      26.953  45.214  53.396  1.00  0.00     0.038 A 
HETATM   15  C   UNL     1      28.014  44.951  54.267  1.00  0.00     0.022 A 
HETATM   16  C   UNL     1      28.514  45.969  55.077  1.00  0.00     0.011 A 
HETATM   17 BR   UNL     1      29.944  45.609  56.260  1.00  0.00    -0.051 Br
HETATM   18  C   UNL     1      27.971  47.251  55.017  1.00  0.00     0.022 A 
HETATM   19  C   UNL     1      26.913  47.513  54.143  1.00  0.00     0.038 A 
ENDBRANCH  12  13
ENDBRANCH  11  12
ENDBRANCH   8  11
ENDBRANCH   3   7
BRANCH   1  20
HETATM   20  C   UNL     1      20.483  46.471  47.840  1.00  0.00     0.130 C 
BRANCH  20  21
HETATM   21  C   UNL     1      20.266  47.922  47.414  1.00  0.00     0.079 C 
BRANCH  21  22
HETATM   22  C   UNL     1      21.269  48.828  48.055  1.00  0.00     0.043 A 
HETATM   23  C   UNL     1      21.027  49.745  49.059  1.00  0.00     0.078 A 
HETATM   24  S   UNL     1      22.473  50.570  49.464  1.00  0.00    -0.085 SA
HETATM   25  C   UNL     1      23.311  49.660  48.273  1.00  0.00     0.071 A 
HETATM   26  C   UNL     1      24.766  49.872  48.050  1.00  0.00     0.078 C 
HETATM   27  N   UNL     1      22.582  48.788  47.610  1.00  0.00    -0.251 NA
ENDBRANCH  21  22
ENDBRANCH  20  21
ENDBRANCH   1  20
TORSDOF 7
ENDMDL
MODEL 8
REMARK VINA RESULT:      -7.3      5.309      7.695
REMARK  7 active torsions:
REMARK  status: ('A' for Active; 'I' for Inactive)
REMARK    1  A    between atoms: C_5  and  C_6 
REMARK    2  A    between atoms: C_6  and  C_7 
REMARK    3  A    between atoms: C_7  and  N_8 
REMARK       I    between atoms: N_8  and  C_9 
REMARK       I    between atoms: C_9  and  N_10 
REMARK    4  A    between atoms: N_10  and  N_11 
REMARK       I    between atoms: N_11  and  C_12 
REMARK    5  A    between atoms: C_12  and  C_13 
REMARK    6  A    between atoms: C_13  and  O_14 
REMARK    7  A    between atoms: O_14  and  C_15 
ROOT
HETATM    1  N   UNL     1      21.420  49.228  49.323  1.00  0.00    -0.341 N 
HETATM    2  C   UNL     1      21.749  50.042  48.276  1.00  0.00     0.334 C 
HETATM    3  N   UNL     1      23.047  50.499  48.265  1.00  0.00    -0.249 N 
HETATM    4  O   UNL     1      20.968  50.375  47.390  1.00  0.00    -0.246 OA
HETATM    5  H   UNL     1      21.942  49.487  50.156  1.00  0.00     0.164 HD
HETATM    6  H   UNL     1      23.284  51.074  47.464  1.00  0.00     0.192 HD
ENDROOT
BRANCH   3   7
HETATM    7  N   UNL     1      24.113  49.890  48.964  1.00  0.00    -0.264 N 
HETATM    8  C   UNL     1      25.341  49.704  48.346  1.00  0.00     0.260 C 
HETATM    9  O   UNL     1      25.680  50.281  47.312  1.00  0.00    -0.269 OA
HETATM   10  H   UNL     1      23.845  49.254  49.711  1.00  0.00     0.190 HD
BRANCH   8  11
HETATM   11  C   UNL     1      26.285  48.798  49.120  1.00  0.00     0.280 C 
BRANCH  11  12
HETATM   12  O   UNL     1      25.568  48.235  50.216  1.00  0.00    -0.342 OA
BRANCH  12  13
HETATM   13  C   UNL     1      26.043  47.010  50.601  1.00  0.00     0.069 A 
HETATM   14  C   UNL     1      26.637  46.101  49.723  1.00  0.00     0.038 A 
HETATM   15  C   UNL     1      27.100  44.872  50.201  1.00  0.00     0.022 A 
HETATM   16  C   UNL     1      26.978  44.564  51.555  1.00  0.00     0.011 A 
HETATM   17 BR   UNL     1      27.598  42.898  52.198  1.00  0.00    -0.051 Br
HETATM   18  C   UNL     1      26.406  45.478  52.438  1.00  0.00     0.022 A 
HETATM   19  C   UNL     1      25.947  46.707  51.960  1.00  0.00     0.038 A 
ENDBRANCH  12  13
ENDBRANCH  11  12
ENDBRANCH   8  11
ENDBRANCH   3   7
BRANCH   1  20
HETATM   20  C   UNL     1      20.038  48.857  49.573  1.00  0.00     0.130 C 
BRANCH  20  21
HETATM   21  C   UNL     1      19.275  49.857  50.442  1.00  0.00     0.079 C 
BRANCH  21  22
HETATM   22  C   UNL     1      18.044  50.344  49.748  1.00  0.00     0.043 A 
HETATM   23  C   UNL     1      17.411  49.746  48.676  1.00  0.00     0.078 A 
HETATM   24  S   UNL     1      16.050  50.672  48.204  1.00  0.00    -0.085 SA
HETATM   25  C   UNL     1      16.404  51.804  49.446  1.00  0.00     0.071 A 
HETATM   26  C   UNL     1      15.539  52.998  49.646  1.00  0.00     0.078 C 
HETATM   27  N   UNL     1      17.459  51.525  50.181  1.00  0.00    -0.251 NA
ENDBRANCH  21  22
ENDBRANCH  20  21
ENDBRANCH   1  20
TORSDOF 7
ENDMDL
MODEL 9
REMARK VINA RESULT:      -7.3      2.818      3.855
REMARK  7 active torsions:
REMARK  status: ('A' for Active; 'I' for Inactive)
REMARK    1  A    between atoms: C_5  and  C_6 
REMARK    2  A    between atoms: C_6  and  C_7 
REMARK    3  A    between atoms: C_7  and  N_8 
REMARK       I    between atoms: N_8  and  C_9 
REMARK       I    between atoms: C_9  and  N_10 
REMARK    4  A    between atoms: N_10  and  N_11 
REMARK       I    between atoms: N_11  and  C_12 
REMARK    5  A    between atoms: C_12  and  C_13 
REMARK    6  A    between atoms: C_13  and  O_14 
REMARK    7  A    between atoms: O_14  and  C_15 
ROOT
HETATM    1  N   UNL     1      27.000  40.875  49.341  1.00  0.00    -0.341 N 
HETATM    2  C   UNL     1      27.110  39.713  50.052  1.00  0.00     0.334 C 
HETATM    3  N   UNL     1      28.236  39.602  50.836  1.00  0.00    -0.249 N 
HETATM    4  O   UNL     1      26.290  38.801  50.013  1.00  0.00    -0.246 OA
HETATM    5  H   UNL     1      27.918  41.222  49.076  1.00  0.00     0.164 HD
HETATM    6  H   UNL     1      28.286  38.748  51.382  1.00  0.00     0.192 HD
ENDROOT
BRANCH   3   7
HETATM    7  N   UNL     1      29.016  40.697  51.271  1.00  0.00    -0.264 N 
HETATM    8  C   UNL     1      28.680  41.378  52.431  1.00  0.00     0.260 C 
HETATM    9  O   UNL     1      27.908  40.939  53.284  1.00  0.00    -0.269 OA
HETATM   10  H   UNL     1      29.520  41.197  50.543  1.00  0.00     0.190 HD
BRANCH   8  11
HETATM   11  C   UNL     1      29.437  42.685  52.614  1.00  0.00     0.280 C 
BRANCH  11  12
HETATM   12  O   UNL     1      28.533  43.657  53.133  1.00  0.00    -0.342 OA
BRANCH  12  13
HETATM   13  C   UNL     1      28.974  44.242  54.291  1.00  0.00     0.069 A 
HETATM   14  C   UNL     1      28.337  45.325  54.901  1.00  0.00     0.038 A 
HETATM   15  C   UNL     1      28.852  45.858  56.086  1.00  0.00     0.022 A 
HETATM   16  C   UNL     1      29.993  45.300  56.659  1.00  0.00     0.011 A 
HETATM   17 BR   UNL     1      30.692  46.029  58.257  1.00  0.00    -0.051 Br
HETATM   18  C   UNL     1      30.618  44.206  56.065  1.00  0.00     0.022 A 
HETATM   19  C   UNL     1      30.100  43.671  54.883  1.00  0.00     0.038 A 
ENDBRANCH  12  13
ENDBRANCH  11  12
ENDBRANCH   8  11
ENDBRANCH   3   7
BRANCH   1  20
HETATM   20  C   UNL     1      25.983  41.027  48.316  1.00  0.00     0.130 C 
BRANCH  20  21
HETATM   21  C   UNL     1      24.625  41.480  48.852  1.00  0.00     0.079 C 
BRANCH  21  22
HETATM   22  C   UNL     1      24.594  42.960  49.060  1.00  0.00     0.043 A 
HETATM   23  C   UNL     1      23.479  43.775  49.010  1.00  0.00     0.078 A 
HETATM   24  S   UNL     1      23.929  45.405  49.291  1.00  0.00    -0.085 SA
HETATM   25  C   UNL     1      25.567  44.913  49.446  1.00  0.00     0.071 A 
HETATM   26  C   UNL     1      26.630  45.915  49.729  1.00  0.00     0.078 C 
HETATM   27  N   UNL     1      25.786  43.623  49.309  1.00  0.00    -0.251 NA
ENDBRANCH  21  22
ENDBRANCH  20  21
ENDBRANCH   1  20
TORSDOF 7
ENDMDL
MODEL 10
REMARK VINA RESULT:      -7.3      1.971      3.070
REMARK  7 active torsions:
REMARK  status: ('A' for Active; 'I' for Inactive)
REMARK    1  A    between atoms: C_5  and  C_6 
REMARK    2  A    between atoms: C_6  and  C_7 
REMARK    3  A    between atoms: C_7  and  N_8 
REMARK       I    between atoms: N_8  and  C_9 
REMARK       I    between atoms: C_9  and  N_10 
REMARK    4  A    between atoms: N_10  and  N_11 
REMARK       I    between atoms: N_11  and  C_12 
REMARK    5  A    between atoms: C_12  and  C_13 
REMARK    6  A    between atoms: C_13  and  O_14 
REMARK    7  A    between atoms: O_14  and  C_15 
ROOT
HETATM    1  N   UNL     1      22.551  46.453  49.177  1.00  0.00    -0.341 N 
HETATM    2  C   UNL     1      22.382  45.127  48.895  1.00  0.00     0.334 C 
HETATM    3  N   UNL     1      23.455  44.317  49.189  1.00  0.00    -0.249 N 
HETATM    4  O   UNL     1      21.364  44.651  48.403  1.00  0.00    -0.246 OA
HETATM    5  H   UNL     1      23.523  46.725  49.055  1.00  0.00     0.164 HD
HETATM    6  H   UNL     1      23.301  43.331  49.005  1.00  0.00     0.192 HD
ENDROOT
BRANCH   3   7
HETATM    7  N   UNL     1      24.483  44.654  50.097  1.00  0.00    -0.264 N 
HETATM    8  C   UNL     1      25.430  43.710  50.466  1.00  0.00     0.260 C 
HETATM    9  O   UNL     1      25.623  42.660  49.853  1.00  0.00    -0.269 OA
HETATM   10  H   UNL     1      24.269  45.406  50.748  1.00  0.00     0.190 HD
BRANCH   8  11
HETATM   11  C   UNL     1      26.291  44.135  51.645  1.00  0.00     0.280 C 
BRANCH  11  12
HETATM   12  O   UNL     1      27.593  43.579  51.473  1.00  0.00    -0.342 OA
BRANCH  12  13
HETATM   13  C   UNL     1      28.360  43.638  52.606  1.00  0.00     0.069 A 
HETATM   14  C   UNL     1      28.024  44.399  53.728  1.00  0.00     0.038 A 
HETATM   15  C   UNL     1      28.862  44.398  54.846  1.00  0.00     0.022 A 
HETATM   16  C   UNL     1      30.025  43.629  54.841  1.00  0.00     0.011 A 
HETATM   17 BR   UNL     1      31.160  43.636  56.352  1.00  0.00    -0.051 Br
HETATM   18  C   UNL     1      30.351  42.850  53.733  1.00  0.00     0.022 A 
HETATM   19  C   UNL     1      29.511  42.849  52.617  1.00  0.00     0.038 A 
ENDBRANCH  12  13
ENDBRANCH  11  12
ENDBRANCH   8  11
ENDBRANCH   3   7
BRANCH   1  20
HETATM   20  C   UNL     1      21.591  47.441  48.717  1.00  0.00     0.130 C 
BRANCH  20  21
HETATM   21  C   UNL     1      21.960  48.880  49.078  1.00  0.00     0.079 C 
BRANCH  21  22
HETATM   22  C   UNL     1      23.415  49.136  48.850  1.00  0.00     0.043 A 
HETATM   23  C   UNL     1      23.963  50.012  47.934  1.00  0.00     0.078 A 
HETATM   24  S   UNL     1      25.674  49.957  48.016  1.00  0.00    -0.085 SA
HETATM   25  C   UNL     1      25.563  48.769  49.252  1.00  0.00     0.071 A 
HETATM   26  C   UNL     1      26.795  48.203  49.864  1.00  0.00     0.078 C 
HETATM   27  N   UNL     1      24.341  48.427  49.600  1.00  0.00    -0.251 NA
ENDBRANCH  21  22
ENDBRANCH  20  21
ENDBRANCH   1  20
TORSDOF 7
ENDMDL
