MODEL 1
REMARK VINA RESULT:     -10.7      0.000      0.000
REMARK  5 active torsions:
REMARK  status: ('A' for Active; 'I' for Inactive)
REMARK    1  A    between atoms: C_7  and  C_8 
REMARK    2  A    between atoms: C_16  and  C_17 
REMARK    3  A    between atoms: C_19  and  O_20 
REMARK    4  A    between atoms: C_24  and  C_25 
REMARK       I    between atoms: C_25  and  N_26 
REMARK    5  A    between atoms: N_26  and  C_27 
ROOT
HETATM    1  C   UNL     1      23.510  43.661  47.851  1.00  0.00     0.070 C 
HETATM    2  C   UNL     1      24.042  44.669  48.842  1.00  0.00     0.037 C 
HETATM    3  N   UNL     1      25.104  44.234  49.635  1.00  0.00    -0.192 N 
HETATM    4  C   UNL     1      25.530  44.916  50.717  1.00  0.00     0.726 A 
HETATM    5  N   UNL     1      25.050  46.174  50.938  1.00  0.00    -0.083 N 
HETATM    6  N   UNL     1      25.519  46.692  52.087  1.00  0.00    -0.135 NA
HETATM    7  C   UNL     1      26.334  45.707  52.507  1.00  0.00     0.199 A 
HETATM    8  N   UNL     1      26.349  44.592  51.682  1.00  0.00    -0.041 NA
HETATM    9  C   UNL     1      24.147  46.878  50.027  1.00  0.00     0.202 C 
HETATM   10  C   UNL     1      23.545  45.923  49.000  1.00  0.00     0.062 C 
HETATM   11  H   UNL     1      25.364  43.253  49.557  1.00  0.00     0.184 HD
ENDROOT
BRANCH  10  12
HETATM   12  C   UNL     1      22.263  46.319  48.346  1.00  0.00     0.256 C 
HETATM   13  N   UNL     1      21.139  46.089  49.108  1.00  0.00    -0.323 N 
HETATM   14  H   UNL     1      21.254  45.717  50.041  1.00  0.00     0.169 HD
HETATM   15  O   UNL     1      22.293  46.770  47.207  1.00  0.00    -0.267 OA
BRANCH  13  16
HETATM   16  C   UNL     1      19.794  46.306  48.735  1.00  0.00     0.035 A 
HETATM   17  C   UNL     1      19.027  45.401  48.000  1.00  0.00     0.029 A 
HETATM   18  C   UNL     1      17.700  45.698  47.674  1.00  0.00     0.002 A 
HETATM   19  C   UNL     1      17.126  46.897  48.089  1.00  0.00     0.000 A 
HETATM   20  C   UNL     1      17.880  47.806  48.823  1.00  0.00     0.002 A 
HETATM   21  C   UNL     1      19.211  47.515  49.139  1.00  0.00     0.029 A 
ENDBRANCH  13  16
ENDBRANCH  10  12
BRANCH   9  22
HETATM   22  C   UNL     1      24.908  48.046  49.396  1.00  0.00    -0.025 A 
HETATM   23  C   UNL     1      26.313  48.129  49.449  1.00  0.00     0.046 A 
HETATM   24  C   UNL     1      26.971  49.198  48.848  1.00  0.00     0.066 A 
HETATM   25  C   UNL     1      26.260  50.201  48.202  1.00  0.00     0.036 A 
HETATM   26  C   UNL     1      24.868  50.144  48.163  1.00  0.00     0.003 A 
HETATM   27  C   UNL     1      24.195  49.075  48.756  1.00  0.00     0.010 A 
BRANCH  24  28
HETATM   28  O   UNL     1      28.330  49.298  48.868  1.00  0.00    -0.361 OA
HETATM   29  H   UNL     1      28.713  48.546  48.388  1.00  0.00     0.217 HD
ENDBRANCH  24  28
ENDBRANCH   9  22
BRANCH   7  30
HETATM   30  C   UNL     1      27.142  45.793  53.721  1.00  0.00     0.014 A 
HETATM   31  C   UNL     1      27.095  46.935  54.535  1.00  0.00     0.017 A 
HETATM   32  C   UNL     1      27.877  47.020  55.691  1.00  0.00     0.025 A 
HETATM   33  C   UNL     1      28.709  45.960  56.042  1.00  0.00     0.034 A 
HETATM   34 CL   UNL     1      29.673  46.064  57.463  1.00  0.00    -0.084 Cl
HETATM   35  C   UNL     1      28.767  44.817  55.247  1.00  0.00     0.025 A 
HETATM   36  C   UNL     1      27.987  44.734  54.088  1.00  0.00     0.017 A 
ENDBRANCH   7  30
TORSDOF 5
ENDMDL
MODEL 2
REMARK VINA RESULT:     -10.4      2.265      3.320
REMARK  5 active torsions:
REMARK  status: ('A' for Active; 'I' for Inactive)
REMARK    1  A    between atoms: C_7  and  C_8 
REMARK    2  A    between atoms: C_16  and  C_17 
REMARK    3  A    between atoms: C_19  and  O_20 
REMARK    4  A    between atoms: C_24  and  C_25 
REMARK       I    between atoms: C_25  and  N_26 
REMARK    5  A    between atoms: N_26  and  C_27 
ROOT
HETATM    1  C   UNL     1      25.370  41.056  49.023  1.00  0.00     0.070 C 
HETATM    2  C   UNL     1      25.725  42.142  50.009  1.00  0.00     0.037 C 
HETATM    3  N   UNL     1      26.965  42.010  50.635  1.00  0.00    -0.192 N 
HETATM    4  C   UNL     1      27.324  42.752  51.701  1.00  0.00     0.726 A 
HETATM    5  N   UNL     1      26.543  43.808  52.067  1.00  0.00    -0.083 N 
HETATM    6  N   UNL     1      26.998  44.404  53.183  1.00  0.00    -0.135 NA
HETATM    7  C   UNL     1      28.108  43.685  53.430  1.00  0.00     0.199 A 
HETATM    8  N   UNL     1      28.326  42.649  52.534  1.00  0.00    -0.041 NA
HETATM    9  C   UNL     1      25.361  44.249  51.324  1.00  0.00     0.202 C 
HETATM   10  C   UNL     1      24.920  43.193  50.314  1.00  0.00     0.062 C 
HETATM   11  H   UNL     1      27.478  41.149  50.458  1.00  0.00     0.184 HD
ENDROOT
BRANCH  10  12
HETATM   12  C   UNL     1      23.501  43.221  49.851  1.00  0.00     0.256 C 
HETATM   13  N   UNL     1      23.299  43.902  48.671  1.00  0.00    -0.323 N 
HETATM   14  H   UNL     1      24.100  44.291  48.193  1.00  0.00     0.169 HD
HETATM   15  O   UNL     1      22.641  42.689  50.543  1.00  0.00    -0.267 OA
BRANCH  13  16
HETATM   16  C   UNL     1      22.067  44.144  48.024  1.00  0.00     0.035 A 
HETATM   17  C   UNL     1      21.130  45.088  48.447  1.00  0.00     0.029 A 
HETATM   18  C   UNL     1      19.933  45.262  47.744  1.00  0.00     0.002 A 
HETATM   19  C   UNL     1      19.669  44.502  46.607  1.00  0.00     0.000 A 
HETATM   20  C   UNL     1      20.597  43.560  46.175  1.00  0.00     0.002 A 
HETATM   21  C   UNL     1      21.788  43.377  46.884  1.00  0.00     0.029 A 
ENDBRANCH  13  16
ENDBRANCH  10  12
BRANCH   9  22
HETATM   22  C   UNL     1      25.667  45.607  50.688  1.00  0.00    -0.025 A 
HETATM   23  C   UNL     1      26.855  45.836  49.968  1.00  0.00     0.046 A 
HETATM   24  C   UNL     1      27.089  47.081  49.388  1.00  0.00     0.066 A 
HETATM   25  C   UNL     1      26.169  48.112  49.519  1.00  0.00     0.036 A 
HETATM   26  C   UNL     1      25.001  47.906  50.249  1.00  0.00     0.003 A 
HETATM   27  C   UNL     1      24.749  46.663  50.830  1.00  0.00     0.010 A 
BRANCH  24  28
HETATM   28  O   UNL     1      28.221  47.329  48.672  1.00  0.00    -0.361 OA
HETATM   29  H   UNL     1      28.241  46.750  47.893  1.00  0.00     0.217 HD
ENDBRANCH  24  28
ENDBRANCH   9  22
BRANCH   7  30
HETATM   30  C   UNL     1      29.017  43.962  54.540  1.00  0.00     0.014 A 
HETATM   31  C   UNL     1      30.044  43.064  54.869  1.00  0.00     0.017 A 
HETATM   32  C   UNL     1      30.907  43.325  55.937  1.00  0.00     0.025 A 
HETATM   33  C   UNL     1      30.750  44.492  56.681  1.00  0.00     0.034 A 
HETATM   34 CL   UNL     1      31.810  44.815  57.998  1.00  0.00    -0.084 Cl
HETATM   35  C   UNL     1      29.738  45.397  56.369  1.00  0.00     0.025 A 
HETATM   36  C   UNL     1      28.873  45.132  55.301  1.00  0.00     0.017 A 
ENDBRANCH   7  30
TORSDOF 5
ENDMDL
MODEL 3
REMARK VINA RESULT:     -10.3      1.824      2.454
REMARK  5 active torsions:
REMARK  status: ('A' for Active; 'I' for Inactive)
REMARK    1  A    between atoms: C_7  and  C_8 
REMARK    2  A    between atoms: C_16  and  C_17 
REMARK    3  A    between atoms: C_19  and  O_20 
REMARK    4  A    between atoms: C_24  and  C_25 
REMARK       I    between atoms: C_25  and  N_26 
REMARK    5  A    between atoms: N_26  and  C_27 
ROOT
HETATM    1  C   UNL     1      22.196  44.932  47.368  1.00  0.00     0.070 C 
HETATM    2  C   UNL     1      23.172  45.501  48.368  1.00  0.00     0.037 C 
HETATM    3  N   UNL     1      24.175  44.631  48.798  1.00  0.00    -0.192 N 
HETATM    4  C   UNL     1      24.969  44.902  49.852  1.00  0.00     0.726 A 
HETATM    5  N   UNL     1      24.939  46.150  50.402  1.00  0.00    -0.083 N 
HETATM    6  N   UNL     1      25.736  46.241  51.481  1.00  0.00    -0.135 NA
HETATM    7  C   UNL     1      26.275  45.008  51.514  1.00  0.00     0.199 A 
HETATM    8  N   UNL     1      25.808  44.157  50.523  1.00  0.00    -0.041 NA
HETATM    9  C   UNL     1      24.147  47.260  49.870  1.00  0.00     0.202 C 
HETATM   10  C   UNL     1      23.115  46.766  48.860  1.00  0.00     0.062 C 
HETATM   11  H   UNL     1      24.107  43.664  48.488  1.00  0.00     0.184 HD
ENDROOT
BRANCH  10  12
HETATM   12  C   UNL     1      21.919  47.624  48.609  1.00  0.00     0.256 C 
HETATM   13  N   UNL     1      21.629  48.510  49.622  1.00  0.00    -0.323 N 
HETATM   14  H   UNL     1      22.244  48.548  50.423  1.00  0.00     0.169 HD
HETATM   15  O   UNL     1      21.280  47.462  47.576  1.00  0.00    -0.267 OA
BRANCH  13  16
HETATM   16  C   UNL     1      20.535  49.400  49.693  1.00  0.00     0.035 A 
HETATM   17  C   UNL     1      19.273  49.057  50.181  1.00  0.00     0.029 A 
HETATM   18  C   UNL     1      18.244  50.004  50.214  1.00  0.00     0.002 A 
HETATM   19  C   UNL     1      18.471  51.304  49.770  1.00  0.00     0.000 A 
HETATM   20  C   UNL     1      19.726  51.658  49.284  1.00  0.00     0.002 A 
HETATM   21  C   UNL     1      20.751  50.709  49.238  1.00  0.00     0.029 A 
ENDBRANCH  13  16
ENDBRANCH  10  12
BRANCH   9  22
HETATM   22  C   UNL     1      25.104  48.308  49.296  1.00  0.00    -0.025 A 
HETATM   23  C   UNL     1      26.488  48.267  49.555  1.00  0.00     0.046 A 
HETATM   24  C   UNL     1      27.328  49.229  49.001  1.00  0.00     0.066 A 
HETATM   25  C   UNL     1      26.821  50.243  48.200  1.00  0.00     0.036 A 
HETATM   26  C   UNL     1      25.451  50.309  47.955  1.00  0.00     0.003 A 
HETATM   27  C   UNL     1      24.596  49.349  48.499  1.00  0.00     0.010 A 
BRANCH  24  28
HETATM   28  O   UNL     1      28.673  49.207  49.220  1.00  0.00    -0.361 OA
HETATM   29  H   UNL     1      29.029  48.348  48.940  1.00  0.00     0.217 HD
ENDBRANCH  24  28
ENDBRANCH   9  22
BRANCH   7  30
HETATM   30  C   UNL     1      27.270  44.590  52.498  1.00  0.00     0.014 A 
HETATM   31  C   UNL     1      28.242  43.632  52.174  1.00  0.00     0.017 A 
HETATM   32  C   UNL     1      29.188  43.224  53.120  1.00  0.00     0.025 A 
HETATM   33  C   UNL     1      29.169  43.778  54.397  1.00  0.00     0.034 A 
HETATM   34 CL   UNL     1      30.330  43.277  55.563  1.00  0.00    -0.084 Cl
HETATM   35  C   UNL     1      28.212  44.732  54.738  1.00  0.00     0.025 A 
HETATM   36  C   UNL     1      27.264  45.137  53.791  1.00  0.00     0.017 A 
ENDBRANCH   7  30
TORSDOF 5
ENDMDL
MODEL 4
REMARK VINA RESULT:      -9.9      4.126      8.781
REMARK  5 active torsions:
REMARK  status: ('A' for Active; 'I' for Inactive)
REMARK    1  A    between atoms: C_7  and  C_8 
REMARK    2  A    between atoms: C_16  and  C_17 
REMARK    3  A    between atoms: C_19  and  O_20 
REMARK    4  A    between atoms: C_24  and  C_25 
REMARK       I    between atoms: C_25  and  N_26 
REMARK    5  A    between atoms: N_26  and  C_27 
ROOT
HETATM    1  C   UNL     1      26.671  49.680  48.433  1.00  0.00     0.070 C 
HETATM    2  C   UNL     1      25.218  49.354  48.684  1.00  0.00     0.037 C 
HETATM    3  N   UNL     1      24.298  50.297  48.223  1.00  0.00    -0.192 N 
HETATM    4  C   UNL     1      22.998  50.276  48.575  1.00  0.00     0.726 A 
HETATM    5  N   UNL     1      22.508  49.188  49.237  1.00  0.00    -0.083 N 
HETATM    6  N   UNL     1      21.216  49.348  49.573  1.00  0.00    -0.135 NA
HETATM    7  C   UNL     1      20.952  50.553  49.037  1.00  0.00     0.199 A 
HETATM    8  N   UNL     1      22.041  51.153  48.423  1.00  0.00    -0.041 NA
HETATM    9  C   UNL     1      23.291  47.988  49.532  1.00  0.00     0.202 C 
HETATM   10  C   UNL     1      24.782  48.238  49.323  1.00  0.00     0.062 C 
HETATM   11  H   UNL     1      24.678  51.166  47.854  1.00  0.00     0.184 HD
ENDROOT
BRANCH  10  12
HETATM   12  C   UNL     1      25.746  47.349  50.037  1.00  0.00     0.256 C 
HETATM   13  N   UNL     1      25.442  47.124  51.362  1.00  0.00    -0.323 N 
HETATM   14  H   UNL     1      24.597  47.530  51.739  1.00  0.00     0.169 HD
HETATM   15  O   UNL     1      26.723  46.925  49.431  1.00  0.00    -0.267 OA
BRANCH  13  16
HETATM   16  C   UNL     1      26.193  46.380  52.297  1.00  0.00     0.035 A 
HETATM   17  C   UNL     1      26.523  45.032  52.145  1.00  0.00     0.029 A 
HETATM   18  C   UNL     1      27.272  44.371  53.124  1.00  0.00     0.002 A 
HETATM   19  C   UNL     1      27.706  45.054  54.257  1.00  0.00     0.000 A 
HETATM   20  C   UNL     1      27.385  46.398  54.419  1.00  0.00     0.002 A 
HETATM   21  C   UNL     1      26.626  47.056  53.447  1.00  0.00     0.029 A 
ENDBRANCH  13  16
ENDBRANCH  10  12
BRANCH   9  22
HETATM   22  C   UNL     1      22.746  46.833  48.689  1.00  0.00    -0.025 A 
HETATM   23  C   UNL     1      22.793  45.500  49.142  1.00  0.00     0.046 A 
HETATM   24  C   UNL     1      22.270  44.479  48.353  1.00  0.00     0.066 A 
HETATM   25  C   UNL     1      21.710  44.751  47.113  1.00  0.00     0.036 A 
HETATM   26  C   UNL     1      21.678  46.062  46.643  1.00  0.00     0.003 A 
HETATM   27  C   UNL     1      22.193  47.098  47.424  1.00  0.00     0.010 A 
BRANCH  24  28
HETATM   28  O   UNL     1      22.286  43.181  48.770  1.00  0.00    -0.361 OA
HETATM   29  H   UNL     1      22.514  42.608  48.020  1.00  0.00     0.217 HD
ENDBRANCH  24  28
ENDBRANCH   9  22
BRANCH   7  30
HETATM   30  C   UNL     1      19.635  51.185  49.084  1.00  0.00     0.014 A 
HETATM   31  C   UNL     1      19.372  52.351  48.349  1.00  0.00     0.017 A 
HETATM   32  C   UNL     1      18.115  52.961  48.403  1.00  0.00     0.025 A 
HETATM   33  C   UNL     1      17.111  52.403  49.191  1.00  0.00     0.034 A 
HETATM   34 CL   UNL     1      15.564  53.153  49.260  1.00  0.00    -0.084 Cl
HETATM   35  C   UNL     1      17.353  51.245  49.926  1.00  0.00     0.025 A 
HETATM   36  C   UNL     1      18.612  50.638  49.873  1.00  0.00     0.017 A 
ENDBRANCH   7  30
TORSDOF 5
ENDMDL
MODEL 5
REMARK VINA RESULT:      -9.8      1.956      2.676
REMARK  5 active torsions:
REMARK  status: ('A' for Active; 'I' for Inactive)
REMARK    1  A    between atoms: C_7  and  C_8 
REMARK    2  A    between atoms: C_16  and  C_17 
REMARK    3  A    between atoms: C_19  and  O_20 
REMARK    4  A    between atoms: C_24  and  C_25 
REMARK       I    between atoms: C_25  and  N_26 
REMARK    5  A    between atoms: N_26  and  C_27 
ROOT
HETATM    1  C   UNL     1      24.209  42.498  47.779  1.00  0.00     0.070 C 
HETATM    2  C   UNL     1      24.818  43.378  48.844  1.00  0.00     0.037 C 
HETATM    3  N   UNL     1      26.012  42.918  49.399  1.00  0.00    -0.192 N 
HETATM    4  C   UNL     1      26.550  43.454  50.512  1.00  0.00     0.726 A 
HETATM    5  N   UNL     1      26.030  44.614  51.008  1.00  0.00    -0.083 N 
HETATM    6  N   UNL     1      26.630  44.983  52.153  1.00  0.00    -0.135 NA
HETATM    7  C   UNL     1      27.560  44.018  52.284  1.00  0.00     0.199 A 
HETATM    8  N   UNL     1      27.523  43.054  51.287  1.00  0.00    -0.041 NA
HETATM    9  C   UNL     1      24.958  45.372  50.361  1.00  0.00     0.202 C 
HETATM   10  C   UNL     1      24.272  44.543  49.279  1.00  0.00     0.062 C 
HETATM   11  H   UNL     1      26.319  41.988  49.121  1.00  0.00     0.184 HD
ENDROOT
BRANCH  10  12
HETATM   12  C   UNL     1      22.883  44.924  48.883  1.00  0.00     0.256 C 
HETATM   13  N   UNL     1      22.812  45.818  47.839  1.00  0.00    -0.323 N 
HETATM   14  H   UNL     1      23.672  46.117  47.398  1.00  0.00     0.169 HD
HETATM   15  O   UNL     1      21.940  44.463  49.514  1.00  0.00    -0.267 OA
BRANCH  13  16
HETATM   16  C   UNL     1      21.649  46.400  47.288  1.00  0.00     0.035 A 
HETATM   17  C   UNL     1      20.966  47.477  47.856  1.00  0.00     0.029 A 
HETATM   18  C   UNL     1      19.820  47.992  47.242  1.00  0.00     0.002 A 
HETATM   19  C   UNL     1      19.353  47.441  46.051  1.00  0.00     0.000 A 
HETATM   20  C   UNL     1      20.027  46.369  45.475  1.00  0.00     0.002 A 
HETATM   21  C   UNL     1      21.166  45.846  46.094  1.00  0.00     0.029 A 
ENDBRANCH  13  16
ENDBRANCH  10  12
BRANCH   9  22
HETATM   22  C   UNL     1      25.540  46.688  49.840  1.00  0.00    -0.025 A 
HETATM   23  C   UNL     1      24.732  47.822  49.627  1.00  0.00     0.046 A 
HETATM   24  C   UNL     1      25.302  49.006  49.169  1.00  0.00     0.066 A 
HETATM   25  C   UNL     1      26.662  49.087  48.903  1.00  0.00     0.036 A 
HETATM   26  C   UNL     1      27.468  47.966  49.086  1.00  0.00     0.003 A 
HETATM   27  C   UNL     1      26.913  46.773  49.550  1.00  0.00     0.010 A 
BRANCH  24  28
HETATM   28  O   UNL     1      24.550  50.125  48.969  1.00  0.00    -0.361 OA
HETATM   29  H   UNL     1      24.046  50.028  48.144  1.00  0.00     0.217 HD
ENDBRANCH  24  28
ENDBRANCH   9  22
BRANCH   7  30
HETATM   30  C   UNL     1      28.533  43.981  53.373  1.00  0.00     0.014 A 
HETATM   31  C   UNL     1      29.552  43.016  53.392  1.00  0.00     0.017 A 
HETATM   32  C   UNL     1      30.477  42.974  54.440  1.00  0.00     0.025 A 
HETATM   33  C   UNL     1      30.389  43.902  55.475  1.00  0.00     0.034 A 
HETATM   34 CL   UNL     1      31.525  43.851  56.766  1.00  0.00    -0.084 Cl
HETATM   35  C   UNL     1      29.386  44.868  55.472  1.00  0.00     0.025 A 
HETATM   36  C   UNL     1      28.459  44.907  54.424  1.00  0.00     0.017 A 
ENDBRANCH   7  30
TORSDOF 5
ENDMDL
MODEL 6
REMARK VINA RESULT:      -9.3      5.577      8.354
REMARK  5 active torsions:
REMARK  status: ('A' for Active; 'I' for Inactive)
REMARK    1  A    between atoms: C_7  and  C_8 
REMARK    2  A    between atoms: C_16  and  C_17 
REMARK    3  A    between atoms: C_19  and  O_20 
REMARK    4  A    between atoms: C_24  and  C_25 
REMARK       I    between atoms: C_25  and  N_26 
REMARK    5  A    between atoms: N_26  and  C_27 
ROOT
HETATM    1  C   UNL     1      23.985  41.809  47.462  1.00  0.00     0.070 C 
HETATM    2  C   UNL     1      25.212  41.602  48.318  1.00  0.00     0.037 C 
HETATM    3  N   UNL     1      25.159  42.158  49.597  1.00  0.00    -0.192 N 
HETATM    4  C   UNL     1      26.245  42.269  50.386  1.00  0.00     0.726 A 
HETATM    5  N   UNL     1      27.399  41.641  50.019  1.00  0.00    -0.083 N 
HETATM    6  N   UNL     1      28.404  41.902  50.873  1.00  0.00    -0.135 NA
HETATM    7  C   UNL     1      27.780  42.670  51.786  1.00  0.00     0.199 A 
HETATM    8  N   UNL     1      26.446  42.921  51.501  1.00  0.00    -0.041 NA
HETATM    9  C   UNL     1      27.522  40.775  48.846  1.00  0.00     0.202 C 
HETATM   10  C   UNL     1      26.326  40.939  47.912  1.00  0.00     0.062 C 
HETATM   11  H   UNL     1      24.351  42.740  49.811  1.00  0.00     0.184 HD
ENDROOT
BRANCH  10  12
HETATM   12  C   UNL     1      26.502  40.558  46.479  1.00  0.00     0.256 C 
HETATM   13  N   UNL     1      27.318  41.402  45.760  1.00  0.00    -0.323 N 
HETATM   14  H   UNL     1      27.760  42.174  46.241  1.00  0.00     0.169 HD
HETATM   15  O   UNL     1      25.903  39.580  46.048  1.00  0.00    -0.267 OA
BRANCH  13  16
HETATM   16  C   UNL     1      27.621  41.331  44.383  1.00  0.00     0.035 A 
HETATM   17  C   UNL     1      26.823  41.872  43.373  1.00  0.00     0.029 A 
HETATM   18  C   UNL     1      27.201  41.754  42.032  1.00  0.00     0.002 A 
HETATM   19  C   UNL     1      28.383  41.105  41.689  1.00  0.00     0.000 A 
HETATM   20  C   UNL     1      29.188  40.564  42.687  1.00  0.00     0.002 A 
HETATM   21  C   UNL     1      28.805  40.670  44.027  1.00  0.00     0.029 A 
ENDBRANCH  13  16
ENDBRANCH  10  12
BRANCH   9  22
HETATM   22  C   UNL     1      27.726  39.336  49.324  1.00  0.00    -0.025 A 
HETATM   23  C   UNL     1      28.994  38.855  49.705  1.00  0.00     0.046 A 
HETATM   24  C   UNL     1      29.136  37.544  50.151  1.00  0.00     0.066 A 
HETATM   25  C   UNL     1      28.043  36.691  50.216  1.00  0.00     0.036 A 
HETATM   26  C   UNL     1      26.788  37.146  49.820  1.00  0.00     0.003 A 
HETATM   27  C   UNL     1      26.628  38.459  49.376  1.00  0.00     0.010 A 
BRANCH  24  28
HETATM   28  O   UNL     1      30.346  37.055  50.542  1.00  0.00    -0.361 OA
HETATM   29  H   UNL     1      30.272  36.703  51.445  1.00  0.00     0.217 HD
ENDBRANCH  24  28
ENDBRANCH   9  22
BRANCH   7  30
HETATM   30  C   UNL     1      28.437  43.195  52.981  1.00  0.00     0.014 A 
HETATM   31  C   UNL     1      27.865  44.249  53.709  1.00  0.00     0.017 A 
HETATM   32  C   UNL     1      28.499  44.759  54.847  1.00  0.00     0.025 A 
HETATM   33  C   UNL     1      29.710  44.211  55.265  1.00  0.00     0.034 A 
HETATM   34 CL   UNL     1      30.493  44.837  56.663  1.00  0.00    -0.084 Cl
HETATM   35  C   UNL     1      30.292  43.162  54.556  1.00  0.00     0.025 A 
HETATM   36  C   UNL     1      29.657  42.656  53.416  1.00  0.00     0.017 A 
ENDBRANCH   7  30
TORSDOF 5
ENDMDL
MODEL 7
REMARK VINA RESULT:      -9.2      5.089      9.049
REMARK  5 active torsions:
REMARK  status: ('A' for Active; 'I' for Inactive)
REMARK    1  A    between atoms: C_7  and  C_8 
REMARK    2  A    between atoms: C_16  and  C_17 
REMARK    3  A    between atoms: C_19  and  O_20 
REMARK    4  A    between atoms: C_24  and  C_25 
REMARK       I    between atoms: C_25  and  N_26 
REMARK    5  A    between atoms: N_26  and  C_27 
ROOT
HETATM    1  C   UNL     1      28.105  40.848  53.549  1.00  0.00     0.070 C 
HETATM    2  C   UNL     1      27.816  41.265  52.128  1.00  0.00     0.037 C 
HETATM    3  N   UNL     1      27.685  40.225  51.206  1.00  0.00    -0.192 N 
HETATM    4  C   UNL     1      27.666  40.432  49.875  1.00  0.00     0.726 A 
HETATM    5  N   UNL     1      27.568  41.708  49.404  1.00  0.00    -0.083 N 
HETATM    6  N   UNL     1      27.628  41.752  48.061  1.00  0.00    -0.135 NA
HETATM    7  C   UNL     1      27.715  40.443  47.760  1.00  0.00     0.199 A 
HETATM    8  N   UNL     1      27.752  39.606  48.866  1.00  0.00    -0.041 NA
HETATM    9  C   UNL     1      27.402  42.886  50.257  1.00  0.00     0.202 C 
HETATM   10  C   UNL     1      27.697  42.554  51.717  1.00  0.00     0.062 C 
HETATM   11  H   UNL     1      27.895  39.287  51.541  1.00  0.00     0.184 HD
ENDROOT
BRANCH  10  12
HETATM   12  C   UNL     1      28.078  43.677  52.624  1.00  0.00     0.256 C 
HETATM   13  N   UNL     1      27.013  44.387  53.132  1.00  0.00    -0.323 N 
HETATM   14  H   UNL     1      26.076  44.088  52.898  1.00  0.00     0.169 HD
HETATM   15  O   UNL     1      29.266  43.906  52.818  1.00  0.00    -0.267 OA
BRANCH  13  16
HETATM   16  C   UNL     1      27.064  45.528  53.963  1.00  0.00     0.035 A 
HETATM   17  C   UNL     1      27.947  45.681  55.033  1.00  0.00     0.029 A 
HETATM   18  C   UNL     1      27.928  46.847  55.805  1.00  0.00     0.002 A 
HETATM   19  C   UNL     1      27.034  47.872  55.509  1.00  0.00     0.000 A 
HETATM   20  C   UNL     1      26.150  47.731  54.443  1.00  0.00     0.002 A 
HETATM   21  C   UNL     1      26.160  46.561  53.678  1.00  0.00     0.029 A 
ENDBRANCH  13  16
ENDBRANCH  10  12
BRANCH   9  22
HETATM   22  C   UNL     1      25.997  43.452  50.035  1.00  0.00    -0.025 A 
HETATM   23  C   UNL     1      24.843  42.720  50.375  1.00  0.00     0.046 A 
HETATM   24  C   UNL     1      23.582  43.276  50.174  1.00  0.00     0.066 A 
HETATM   25  C   UNL     1      23.441  44.544  49.629  1.00  0.00     0.036 A 
HETATM   26  C   UNL     1      24.574  45.270  49.267  1.00  0.00     0.003 A 
HETATM   27  C   UNL     1      25.844  44.729  49.467  1.00  0.00     0.010 A 
BRANCH  24  28
HETATM   28  O   UNL     1      22.447  42.600  50.507  1.00  0.00    -0.361 OA
HETATM   29  H   UNL     1      22.122  42.923  51.363  1.00  0.00     0.217 HD
ENDBRANCH  24  28
ENDBRANCH   9  22
BRANCH   7  30
HETATM   30  C   UNL     1      27.762  39.933  46.392  1.00  0.00     0.014 A 
HETATM   31  C   UNL     1      28.035  40.790  45.315  1.00  0.00     0.017 A 
HETATM   32  C   UNL     1      28.069  40.303  44.004  1.00  0.00     0.025 A 
HETATM   33  C   UNL     1      27.834  38.952  43.765  1.00  0.00     0.034 A 
HETATM   34 CL   UNL     1      27.873  38.351  42.153  1.00  0.00    -0.084 Cl
HETATM   35  C   UNL     1      27.562  38.085  44.821  1.00  0.00     0.025 A 
HETATM   36  C   UNL     1      27.526  38.574  46.131  1.00  0.00     0.017 A 
ENDBRANCH   7  30
TORSDOF 5
ENDMDL
MODEL 8
REMARK VINA RESULT:      -8.7      4.184      8.799
REMARK  5 active torsions:
REMARK  status: ('A' for Active; 'I' for Inactive)
REMARK    1  A    between atoms: C_7  and  C_8 
REMARK    2  A    between atoms: C_16  and  C_17 
REMARK    3  A    between atoms: C_19  and  O_20 
REMARK    4  A    between atoms: C_24  and  C_25 
REMARK       I    between atoms: C_25  and  N_26 
REMARK    5  A    between atoms: N_26  and  C_27 
ROOT
HETATM    1  C   UNL     1      26.861  48.301  49.597  1.00  0.00     0.070 C 
HETATM    2  C   UNL     1      25.379  48.082  49.408  1.00  0.00     0.037 C 
HETATM    3  N   UNL     1      24.701  49.092  48.724  1.00  0.00    -0.192 N 
HETATM    4  C   UNL     1      23.356  49.165  48.683  1.00  0.00     0.726 A 
HETATM    5  N   UNL     1      22.621  48.114  49.148  1.00  0.00    -0.083 N 
HETATM    6  N   UNL     1      21.301  48.367  49.099  1.00  0.00    -0.135 NA
HETATM    7  C   UNL     1      21.289  49.591  48.539  1.00  0.00     0.199 A 
HETATM    8  N   UNL     1      22.549  50.111  48.282  1.00  0.00    -0.041 NA
HETATM    9  C   UNL     1      23.199  46.858  49.627  1.00  0.00     0.202 C 
HETATM   10  C   UNL     1      24.700  46.999  49.866  1.00  0.00     0.062 C 
HETATM   11  H   UNL     1      25.232  49.932  48.503  1.00  0.00     0.184 HD
ENDROOT
BRANCH  10  12
HETATM   12  C   UNL     1      25.350  46.038  50.806  1.00  0.00     0.256 C 
HETATM   13  N   UNL     1      26.020  45.004  50.193  1.00  0.00    -0.323 N 
HETATM   14  H   UNL     1      26.061  44.984  49.183  1.00  0.00     0.169 HD
HETATM   15  O   UNL     1      25.217  46.208  52.012  1.00  0.00    -0.267 OA
BRANCH  13  16
HETATM   16  C   UNL     1      26.676  43.920  50.818  1.00  0.00     0.035 A 
HETATM   17  C   UNL     1      26.242  42.595  50.750  1.00  0.00     0.029 A 
HETATM   18  C   UNL     1      26.954  41.582  51.401  1.00  0.00     0.002 A 
HETATM   19  C   UNL     1      28.111  41.884  52.115  1.00  0.00     0.000 A 
HETATM   20  C   UNL     1      28.554  43.200  52.187  1.00  0.00     0.002 A 
HETATM   21  C   UNL     1      27.836  44.215  51.547  1.00  0.00     0.029 A 
ENDBRANCH  13  16
ENDBRANCH  10  12
BRANCH   9  22
HETATM   22  C   UNL     1      22.844  45.750  48.634  1.00  0.00    -0.025 A 
HETATM   23  C   UNL     1      22.779  44.398  49.026  1.00  0.00     0.046 A 
HETATM   24  C   UNL     1      22.435  43.420  48.097  1.00  0.00     0.066 A 
HETATM   25  C   UNL     1      22.163  43.755  46.777  1.00  0.00     0.036 A 
HETATM   26  C   UNL     1      22.246  45.085  46.371  1.00  0.00     0.003 A 
HETATM   27  C   UNL     1      22.585  46.077  47.291  1.00  0.00     0.010 A 
BRANCH  24  28
HETATM   28  O   UNL     1      22.349  42.107  48.448  1.00  0.00    -0.361 OA
HETATM   29  H   UNL     1      23.130  41.635  48.115  1.00  0.00     0.217 HD
ENDBRANCH  24  28
ENDBRANCH   9  22
BRANCH   7  30
HETATM   30  C   UNL     1      20.063  50.318  48.218  1.00  0.00     0.014 A 
HETATM   31  C   UNL     1      19.945  51.687  48.501  1.00  0.00     0.017 A 
HETATM   32  C   UNL     1      18.768  52.380  48.203  1.00  0.00     0.025 A 
HETATM   33  C   UNL     1      17.700  51.705  47.616  1.00  0.00     0.034 A 
HETATM   34 CL   UNL     1      16.250  52.555  47.251  1.00  0.00    -0.084 Cl
HETATM   35  C   UNL     1      17.799  50.346  47.327  1.00  0.00     0.025 A 
HETATM   36  C   UNL     1      18.977  49.653  47.628  1.00  0.00     0.017 A 
ENDBRANCH   7  30
TORSDOF 5
ENDMDL
MODEL 9
REMARK VINA RESULT:      -8.4      3.440      4.818
REMARK  5 active torsions:
REMARK  status: ('A' for Active; 'I' for Inactive)
REMARK    1  A    between atoms: C_7  and  C_8 
REMARK    2  A    between atoms: C_16  and  C_17 
REMARK    3  A    between atoms: C_19  and  O_20 
REMARK    4  A    between atoms: C_24  and  C_25 
REMARK       I    between atoms: C_25  and  N_26 
REMARK    5  A    between atoms: N_26  and  C_27 
ROOT
HETATM    1  C   UNL     1      19.487  46.328  45.041  1.00  0.00     0.070 C 
HETATM    2  C   UNL     1      20.400  46.420  46.240  1.00  0.00     0.037 C 
HETATM    3  N   UNL     1      21.554  45.638  46.182  1.00  0.00    -0.192 N 
HETATM    4  C   UNL     1      22.341  45.424  47.255  1.00  0.00     0.726 A 
HETATM    5  N   UNL     1      22.127  46.150  48.389  1.00  0.00    -0.083 N 
HETATM    6  N   UNL     1      22.948  45.774  49.386  1.00  0.00    -0.135 NA
HETATM    7  C   UNL     1      23.688  44.831  48.775  1.00  0.00     0.199 A 
HETATM    8  N   UNL     1      23.324  44.587  47.458  1.00  0.00    -0.041 NA
HETATM    9  C   UNL     1      21.134  47.219  48.502  1.00  0.00     0.202 C 
HETATM   10  C   UNL     1      20.153  47.185  47.334  1.00  0.00     0.062 C 
HETATM   11  H   UNL     1      21.636  44.998  45.394  1.00  0.00     0.184 HD
ENDROOT
BRANCH  10  12
HETATM   12  C   UNL     1      18.819  47.828  47.525  1.00  0.00     0.256 C 
HETATM   13  N   UNL     1      18.767  49.155  47.161  1.00  0.00    -0.323 N 
HETATM   14  H   UNL     1      19.594  49.581  46.767  1.00  0.00     0.169 HD
HETATM   15  O   UNL     1      17.906  47.167  48.007  1.00  0.00    -0.267 OA
BRANCH  13  16
HETATM   16  C   UNL     1      17.667  50.032  47.282  1.00  0.00     0.035 A 
HETATM   17  C   UNL     1      16.780  50.327  46.245  1.00  0.00     0.029 A 
HETATM   18  C   UNL     1      15.716  51.210  46.452  1.00  0.00     0.002 A 
HETATM   19  C   UNL     1      15.522  51.797  47.700  1.00  0.00     0.000 A 
HETATM   20  C   UNL     1      16.398  51.509  48.742  1.00  0.00     0.002 A 
HETATM   21  C   UNL     1      17.470  50.636  48.532  1.00  0.00     0.029 A 
ENDBRANCH  13  16
ENDBRANCH  10  12
BRANCH   9  22
HETATM   22  C   UNL     1      21.871  48.554  48.637  1.00  0.00    -0.025 A 
HETATM   23  C   UNL     1      23.033  48.836  47.892  1.00  0.00     0.046 A 
HETATM   24  C   UNL     1      23.666  50.068  48.029  1.00  0.00     0.066 A 
HETATM   25  C   UNL     1      23.175  51.028  48.904  1.00  0.00     0.036 A 
HETATM   26  C   UNL     1      22.040  50.753  49.665  1.00  0.00     0.003 A 
HETATM   27  C   UNL     1      21.392  49.525  49.534  1.00  0.00     0.010 A 
BRANCH  24  28
HETATM   28  O   UNL     1      24.781  50.377  47.311  1.00  0.00    -0.361 OA
HETATM   29  H   UNL     1      24.928  49.694  46.637  1.00  0.00     0.217 HD
ENDBRANCH  24  28
ENDBRANCH   9  22
BRANCH   7  30
HETATM   30  C   UNL     1      24.785  44.120  49.427  1.00  0.00     0.014 A 
HETATM   31  C   UNL     1      24.608  42.815  49.911  1.00  0.00     0.017 A 
HETATM   32  C   UNL     1      25.656  42.139  50.544  1.00  0.00     0.025 A 
HETATM   33  C   UNL     1      26.891  42.767  50.693  1.00  0.00     0.034 A 
HETATM   34 CL   UNL     1      28.181  41.938  51.474  1.00  0.00    -0.084 Cl
HETATM   35  C   UNL     1      27.086  44.061  50.217  1.00  0.00     0.025 A 
HETATM   36  C   UNL     1      26.036  44.737  49.586  1.00  0.00     0.017 A 
ENDBRANCH   7  30
TORSDOF 5
ENDMDL
MODEL 10
REMARK VINA RESULT:      -8.2     12.194     14.258
REMARK  5 active torsions:
REMARK  status: ('A' for Active; 'I' for Inactive)
REMARK    1  A    between atoms: C_7  and  C_8 
REMARK    2  A    between atoms: C_16  and  C_17 
REMARK    3  A    between atoms: C_19  and  O_20 
REMARK    4  A    between atoms: C_24  and  C_25 
REMARK       I    between atoms: C_25  and  N_26 
REMARK    5  A    between atoms: N_26  and  C_27 
ROOT
HETATM    1  C   UNL     1      27.642  52.688  41.297  1.00  0.00     0.070 C 
HETATM    2  C   UNL     1      28.903  52.210  40.618  1.00  0.00     0.037 C 
HETATM    3  N   UNL     1      30.088  52.802  41.056  1.00  0.00    -0.192 N 
HETATM    4  C   UNL     1      31.256  52.665  40.398  1.00  0.00     0.726 A 
HETATM    5  N   UNL     1      31.342  51.758  39.383  1.00  0.00    -0.083 N 
HETATM    6  N   UNL     1      32.547  51.787  38.786  1.00  0.00    -0.135 NA
HETATM    7  C   UNL     1      33.183  52.715  39.526  1.00  0.00     0.199 A 
HETATM    8  N   UNL     1      32.401  53.281  40.522  1.00  0.00    -0.041 NA
HETATM    9  C   UNL     1      30.258  50.851  39.001  1.00  0.00     0.202 C 
HETATM   10  C   UNL     1      28.935  51.278  39.631  1.00  0.00     0.062 C 
HETATM   11  H   UNL     1      29.999  53.573  41.715  1.00  0.00     0.184 HD
ENDROOT
BRANCH  10  12
HETATM   12  C   UNL     1      27.672  50.819  38.980  1.00  0.00     0.256 C 
HETATM   13  N   UNL     1      27.052  49.767  39.615  1.00  0.00    -0.323 N 
HETATM   14  H   UNL     1      27.456  49.412  40.471  1.00  0.00     0.169 HD
HETATM   15  O   UNL     1      27.308  51.363  37.944  1.00  0.00    -0.267 OA
BRANCH  13  16
HETATM   16  C   UNL     1      25.884  49.087  39.203  1.00  0.00     0.035 A 
HETATM   17  C   UNL     1      24.624  49.680  39.107  1.00  0.00     0.029 A 
HETATM   18  C   UNL     1      23.519  48.931  38.690  1.00  0.00     0.002 A 
HETATM   19  C   UNL     1      23.666  47.587  38.357  1.00  0.00     0.000 A 
HETATM   20  C   UNL     1      24.918  46.987  38.447  1.00  0.00     0.002 A 
HETATM   21  C   UNL     1      26.020  47.731  38.875  1.00  0.00     0.029 A 
ENDBRANCH  13  16
ENDBRANCH  10  12
BRANCH   9  22
HETATM   22  C   UNL     1      30.670  49.422  39.363  1.00  0.00    -0.025 A 
HETATM   23  C   UNL     1      31.683  49.161  40.306  1.00  0.00     0.046 A 
HETATM   24  C   UNL     1      32.017  47.847  40.623  1.00  0.00     0.066 A 
HETATM   25  C   UNL     1      31.373  46.781  40.011  1.00  0.00     0.036 A 
HETATM   26  C   UNL     1      30.386  47.025  39.058  1.00  0.00     0.003 A 
HETATM   27  C   UNL     1      30.036  48.336  38.735  1.00  0.00     0.010 A 
BRANCH  24  28
HETATM   28  O   UNL     1      32.981  47.562  41.542  1.00  0.00    -0.361 OA
HETATM   29  H   UNL     1      32.609  47.654  42.435  1.00  0.00     0.217 HD
ENDBRANCH  24  28
ENDBRANCH   9  22
BRANCH   7  30
HETATM   30  C   UNL     1      34.576  53.098  39.312  1.00  0.00     0.014 A 
HETATM   31  C   UNL     1      34.931  54.444  39.134  1.00  0.00     0.017 A 
HETATM   32  C   UNL     1      36.264  54.809  38.920  1.00  0.00     0.025 A 
HETATM   33  C   UNL     1      37.251  53.827  38.885  1.00  0.00     0.034 A 
HETATM   34 CL   UNL     1      38.891  54.274  38.619  1.00  0.00    -0.084 Cl
HETATM   35  C   UNL     1      36.918  52.486  39.061  1.00  0.00     0.025 A 
HETATM   36  C   UNL     1      35.583  52.122  39.273  1.00  0.00     0.017 A 
ENDBRANCH   7  30
TORSDOF 5
ENDMDL
