MODEL 1
REMARK VINA RESULT:      -8.3      0.000      0.000
REMARK  5 active torsions:
REMARK  status: ('A' for Active; 'I' for Inactive)
REMARK    1  A    between atoms: C_3  and  N_4 
REMARK       I    between atoms: N_4  and  C_5 
REMARK       I    between atoms: C_5  and  N_6 
REMARK    2  A    between atoms: N_6  and  C_7 
REMARK    3  A    between atoms: C_7  and  C_8 
REMARK    4  A    between atoms: C_8  and  O_9 
REMARK    5  A    between atoms: O_9  and  C_10 
ROOT
HETATM    1  N   UNL     1      26.038  47.055  50.633  1.00  0.00    -0.307 N 
HETATM    2  C   UNL     1      26.364  45.770  50.253  1.00  0.00     0.320 C 
HETATM    3  N   UNL     1      26.946  45.089  51.298  1.00  0.00    -0.340 N 
HETATM    4  O   UNL     1      26.141  45.263  49.164  1.00  0.00    -0.247 OA
HETATM    5  H   UNL     1      25.645  47.081  51.565  1.00  0.00     0.170 HD
HETATM    6  H   UNL     1      27.384  45.652  52.013  1.00  0.00     0.164 HD
ENDROOT
BRANCH   3   7
HETATM    7  C   UNL     1      27.346  43.696  51.182  1.00  0.00     0.156 C 
BRANCH   7   8
HETATM    8  C   UNL     1      28.433  43.259  52.186  1.00  0.00     0.142 C 
HETATM    9  C   UNL     1      28.736  41.764  52.104  1.00  0.00     0.042 C 
BRANCH   8  10
HETATM   10  O   UNL     1      27.948  43.487  53.520  1.00  0.00    -0.345 OA
BRANCH  10  11
HETATM   11  C   UNL     1      28.775  44.060  54.443  1.00  0.00     0.070 A 
HETATM   12  C   UNL     1      29.851  43.446  55.082  1.00  0.00     0.060 A 
HETATM   13  C   UNL     1      30.606  44.166  56.012  1.00  0.00     0.036 A 
HETATM   14 CL   UNL     1      31.926  43.400  56.809  1.00  0.00    -0.084 Cl
HETATM   15  C   UNL     1      30.307  45.497  56.302  1.00  0.00     0.024 A 
HETATM   16  C   UNL     1      29.245  46.118  55.649  1.00  0.00     0.004 A 
HETATM   17  C   UNL     1      28.486  45.400  54.724  1.00  0.00     0.037 A 
ENDBRANCH  10  11
ENDBRANCH   8  10
ENDBRANCH   7   8
ENDBRANCH   3   7
BRANCH   1  18
HETATM   18  C   UNL     1      25.563  48.039  49.734  1.00  0.00     0.059 A 
HETATM   19  C   UNL     1      26.381  48.938  49.035  1.00  0.00    -0.032 A 
HETATM   20  C   UNL     1      27.873  49.014  49.193  1.00  0.00     0.050 C 
HETATM   21  C   UNL     1      25.770  49.841  48.151  1.00  0.00     0.028 A 
HETATM   22  C   UNL     1      24.388  49.858  48.040  1.00  0.00     0.117 A 
HETATM   23  N   UNL     1      23.573  49.051  48.746  1.00  0.00    -0.271 NA
HETATM   24  C   UNL     1      24.180  48.168  49.572  1.00  0.00     0.146 A 
ENDBRANCH   1  18
TORSDOF 5
ENDMDL
MODEL 2
REMARK VINA RESULT:      -7.9      3.660      8.254
REMARK  5 active torsions:
REMARK  status: ('A' for Active; 'I' for Inactive)
REMARK    1  A    between atoms: C_3  and  N_4 
REMARK       I    between atoms: N_4  and  C_5 
REMARK       I    between atoms: C_5  and  N_6 
REMARK    2  A    between atoms: N_6  and  C_7 
REMARK    3  A    between atoms: C_7  and  C_8 
REMARK    4  A    between atoms: C_8  and  O_9 
REMARK    5  A    between atoms: O_9  and  C_10 
ROOT
HETATM    1  N   UNL     1      28.583  45.401  54.152  1.00  0.00    -0.307 N 
HETATM    2  C   UNL     1      27.244  45.080  54.081  1.00  0.00     0.320 C 
HETATM    3  N   UNL     1      26.624  45.805  53.090  1.00  0.00    -0.340 N 
HETATM    4  O   UNL     1      26.668  44.242  54.759  1.00  0.00    -0.247 OA
HETATM    5  H   UNL     1      28.994  45.497  53.233  1.00  0.00     0.170 HD
HETATM    6  H   UNL     1      27.066  46.673  52.825  1.00  0.00     0.164 HD
ENDROOT
BRANCH   3   7
HETATM    7  C   UNL     1      25.217  45.627  52.770  1.00  0.00     0.156 C 
BRANCH   7   8
HETATM    8  C   UNL     1      24.824  46.071  51.347  1.00  0.00     0.142 C 
HETATM    9  C   UNL     1      24.267  44.922  50.508  1.00  0.00     0.042 C 
BRANCH   8  10
HETATM   10  O   UNL     1      26.007  46.518  50.660  1.00  0.00    -0.345 OA
BRANCH  10  11
HETATM   11  C   UNL     1      25.944  47.640  49.885  1.00  0.00     0.070 A 
HETATM   12  C   UNL     1      24.787  48.240  49.391  1.00  0.00     0.060 A 
HETATM   13  C   UNL     1      24.886  49.390  48.602  1.00  0.00     0.036 A 
HETATM   14 CL   UNL     1      23.455  50.119  47.983  1.00  0.00    -0.084 Cl
HETATM   15  C   UNL     1      26.127  49.955  48.311  1.00  0.00     0.024 A 
HETATM   16  C   UNL     1      27.283  49.368  48.821  1.00  0.00     0.004 A 
HETATM   17  C   UNL     1      27.188  48.218  49.605  1.00  0.00     0.037 A 
ENDBRANCH  10  11
ENDBRANCH   8  10
ENDBRANCH   7   8
ENDBRANCH   3   7
BRANCH   1  18
HETATM   18  C   UNL     1      29.447  44.929  55.168  1.00  0.00     0.059 A 
HETATM   19  C   UNL     1      30.212  43.756  55.081  1.00  0.00    -0.032 A 
HETATM   20  C   UNL     1      30.169  42.811  53.913  1.00  0.00     0.050 C 
HETATM   21  C   UNL     1      31.050  43.429  56.157  1.00  0.00     0.028 A 
HETATM   22  C   UNL     1      31.054  44.232  57.288  1.00  0.00     0.117 A 
HETATM   23  N   UNL     1      30.284  45.328  57.427  1.00  0.00    -0.271 NA
HETATM   24  C   UNL     1      29.503  45.645  56.368  1.00  0.00     0.146 A 
ENDBRANCH   1  18
TORSDOF 5
ENDMDL
MODEL 3
REMARK VINA RESULT:      -7.9      6.692     10.203
REMARK  5 active torsions:
REMARK  status: ('A' for Active; 'I' for Inactive)
REMARK    1  A    between atoms: C_3  and  N_4 
REMARK       I    between atoms: N_4  and  C_5 
REMARK       I    between atoms: C_5  and  N_6 
REMARK    2  A    between atoms: N_6  and  C_7 
REMARK    3  A    between atoms: C_7  and  C_8 
REMARK    4  A    between atoms: C_8  and  O_9 
REMARK    5  A    between atoms: O_9  and  C_10 
ROOT
HETATM    1  N   UNL     1      22.906  48.186  49.521  1.00  0.00    -0.307 N 
HETATM    2  C   UNL     1      22.050  47.593  48.617  1.00  0.00     0.320 C 
HETATM    3  N   UNL     1      20.877  47.221  49.233  1.00  0.00    -0.340 N 
HETATM    4  O   UNL     1      22.256  47.442  47.423  1.00  0.00    -0.247 OA
HETATM    5  H   UNL     1      22.415  48.814  50.144  1.00  0.00     0.170 HD
HETATM    6  H   UNL     1      20.920  47.074  50.231  1.00  0.00     0.164 HD
ENDROOT
BRANCH   3   7
HETATM    7  C   UNL     1      19.780  46.613  48.499  1.00  0.00     0.156 C 
BRANCH   7   8
HETATM    8  C   UNL     1      18.439  47.366  48.614  1.00  0.00     0.142 C 
HETATM    9  C   UNL     1      17.242  46.490  48.244  1.00  0.00     0.042 C 
BRANCH   8  10
HETATM   10  O   UNL     1      18.435  48.450  47.669  1.00  0.00    -0.345 OA
BRANCH  10  11
HETATM   11  C   UNL     1      18.481  49.735  48.128  1.00  0.00     0.070 A 
HETATM   12  C   UNL     1      17.471  50.403  48.818  1.00  0.00     0.060 A 
HETATM   13  C   UNL     1      17.665  51.728  49.219  1.00  0.00     0.036 A 
HETATM   14 CL   UNL     1      16.409  52.552  50.060  1.00  0.00    -0.084 Cl
HETATM   15  C   UNL     1      18.863  52.389  48.952  1.00  0.00     0.024 A 
HETATM   16  C   UNL     1      19.881  51.717  48.280  1.00  0.00     0.004 A 
HETATM   17  C   UNL     1      19.688  50.396  47.873  1.00  0.00     0.037 A 
ENDBRANCH  10  11
ENDBRANCH   8  10
ENDBRANCH   7   8
ENDBRANCH   3   7
BRANCH   1  18
HETATM   18  C   UNL     1      24.242  48.537  49.218  1.00  0.00     0.059 A 
HETATM   19  C   UNL     1      24.620  49.691  48.516  1.00  0.00    -0.032 A 
HETATM   20  C   UNL     1      23.648  50.682  47.941  1.00  0.00     0.050 C 
HETATM   21  C   UNL     1      25.989  49.926  48.314  1.00  0.00     0.028 A 
HETATM   22  C   UNL     1      26.914  48.992  48.756  1.00  0.00     0.117 A 
HETATM   23  N   UNL     1      26.578  47.845  49.376  1.00  0.00    -0.271 NA
HETATM   24  C   UNL     1      25.256  47.648  49.588  1.00  0.00     0.146 A 
ENDBRANCH   1  18
TORSDOF 5
ENDMDL
MODEL 4
REMARK VINA RESULT:      -7.8      0.951      1.595
REMARK  5 active torsions:
REMARK  status: ('A' for Active; 'I' for Inactive)
REMARK    1  A    between atoms: C_3  and  N_4 
REMARK       I    between atoms: N_4  and  C_5 
REMARK       I    between atoms: C_5  and  N_6 
REMARK    2  A    between atoms: N_6  and  C_7 
REMARK    3  A    between atoms: C_7  and  C_8 
REMARK    4  A    between atoms: C_8  and  O_9 
REMARK    5  A    between atoms: O_9  and  C_10 
ROOT
HETATM    1  N   UNL     1      25.639  46.939  50.696  1.00  0.00    -0.307 N 
HETATM    2  C   UNL     1      26.065  45.661  50.401  1.00  0.00     0.320 C 
HETATM    3  N   UNL     1      26.058  44.876  51.531  1.00  0.00    -0.340 N 
HETATM    4  O   UNL     1      26.371  45.241  49.295  1.00  0.00    -0.247 OA
HETATM    5  H   UNL     1      24.851  46.934  51.330  1.00  0.00     0.170 HD
HETATM    6  H   UNL     1      26.120  45.359  52.415  1.00  0.00     0.164 HD
ENDROOT
BRANCH   3   7
HETATM    7  C   UNL     1      26.419  43.468  51.493  1.00  0.00     0.156 C 
BRANCH   7   8
HETATM    8  C   UNL     1      27.810  43.150  52.077  1.00  0.00     0.142 C 
HETATM    9  C   UNL     1      28.377  41.831  51.554  1.00  0.00     0.042 C 
BRANCH   8  10
HETATM   10  O   UNL     1      27.687  42.984  53.501  1.00  0.00    -0.345 OA
BRANCH  10  11
HETATM   11  C   UNL     1      28.530  43.670  54.327  1.00  0.00     0.070 A 
HETATM   12  C   UNL     1      29.639  43.151  54.992  1.00  0.00     0.060 A 
HETATM   13  C   UNL     1      30.406  43.983  55.814  1.00  0.00     0.036 A 
HETATM   14 CL   UNL     1      31.768  43.333  56.643  1.00  0.00    -0.084 Cl
HETATM   15  C   UNL     1      30.085  45.330  55.969  1.00  0.00     0.024 A 
HETATM   16  C   UNL     1      28.988  45.856  55.289  1.00  0.00     0.004 A 
HETATM   17  C   UNL     1      28.218  45.027  54.473  1.00  0.00     0.037 A 
ENDBRANCH  10  11
ENDBRANCH   8  10
ENDBRANCH   7   8
ENDBRANCH   3   7
BRANCH   1  18
HETATM   18  C   UNL     1      25.681  48.009  49.772  1.00  0.00     0.059 A 
HETATM   19  C   UNL     1      24.556  48.551  49.131  1.00  0.00    -0.032 A 
HETATM   20  C   UNL     1      23.159  48.024  49.300  1.00  0.00     0.050 C 
HETATM   21  C   UNL     1      24.747  49.634  48.260  1.00  0.00     0.028 A 
HETATM   22  C   UNL     1      26.031  50.094  48.014  1.00  0.00     0.117 A 
HETATM   23  N   UNL     1      27.135  49.554  48.564  1.00  0.00    -0.271 NA
HETATM   24  C   UNL     1      26.932  48.529  49.423  1.00  0.00     0.146 A 
ENDBRANCH   1  18
TORSDOF 5
ENDMDL
MODEL 5
REMARK VINA RESULT:      -7.7      1.739      2.420
REMARK  5 active torsions:
REMARK  status: ('A' for Active; 'I' for Inactive)
REMARK    1  A    between atoms: C_3  and  N_4 
REMARK       I    between atoms: N_4  and  C_5 
REMARK       I    between atoms: C_5  and  N_6 
REMARK    2  A    between atoms: N_6  and  C_7 
REMARK    3  A    between atoms: C_7  and  C_8 
REMARK    4  A    between atoms: C_8  and  O_9 
REMARK    5  A    between atoms: O_9  and  C_10 
ROOT
HETATM    1  N   UNL     1      24.330  47.349  49.219  1.00  0.00    -0.307 N 
HETATM    2  C   UNL     1      24.759  47.007  50.484  1.00  0.00     0.320 C 
HETATM    3  N   UNL     1      25.206  45.706  50.509  1.00  0.00    -0.340 N 
HETATM    4  O   UNL     1      24.792  47.744  51.458  1.00  0.00    -0.247 OA
HETATM    5  H   UNL     1      24.950  46.990  48.505  1.00  0.00     0.170 HD
HETATM    6  H   UNL     1      24.846  45.093  49.792  1.00  0.00     0.164 HD
ENDROOT
BRANCH   3   7
HETATM    7  C   UNL     1      25.758  45.102  51.711  1.00  0.00     0.156 C 
BRANCH   7   8
HETATM    8  C   UNL     1      27.108  44.386  51.505  1.00  0.00     0.142 C 
HETATM    9  C   UNL     1      27.139  43.553  50.224  1.00  0.00     0.042 C 
BRANCH   8  10
HETATM   10  O   UNL     1      27.306  43.454  52.582  1.00  0.00    -0.345 OA
BRANCH  10  11
HETATM   11  C   UNL     1      28.271  43.707  53.514  1.00  0.00     0.070 A 
HETATM   12  C   UNL     1      28.226  44.684  54.507  1.00  0.00     0.060 A 
HETATM   13  C   UNL     1      29.301  44.826  55.389  1.00  0.00     0.036 A 
HETATM   14 CL   UNL     1      29.246  46.044  56.604  1.00  0.00    -0.084 Cl
HETATM   15  C   UNL     1      30.415  43.993  55.300  1.00  0.00     0.024 A 
HETATM   16  C   UNL     1      30.454  43.002  54.321  1.00  0.00     0.004 A 
HETATM   17  C   UNL     1      29.384  42.862  53.436  1.00  0.00     0.037 A 
ENDBRANCH  10  11
ENDBRANCH   8  10
ENDBRANCH   7   8
ENDBRANCH   3   7
BRANCH   1  18
HETATM   18  C   UNL     1      23.681  48.569  48.918  1.00  0.00     0.059 A 
HETATM   19  C   UNL     1      24.325  49.708  48.412  1.00  0.00    -0.032 A 
HETATM   20  C   UNL     1      25.806  49.802  48.178  1.00  0.00     0.050 C 
HETATM   21  C   UNL     1      23.545  50.840  48.131  1.00  0.00     0.028 A 
HETATM   22  C   UNL     1      22.187  50.821  48.412  1.00  0.00     0.117 A 
HETATM   23  N   UNL     1      21.553  49.765  48.956  1.00  0.00    -0.271 NA
HETATM   24  C   UNL     1      22.314  48.672  49.195  1.00  0.00     0.146 A 
ENDBRANCH   1  18
TORSDOF 5
ENDMDL
MODEL 6
REMARK VINA RESULT:      -7.7      1.684      2.314
REMARK  5 active torsions:
REMARK  status: ('A' for Active; 'I' for Inactive)
REMARK    1  A    between atoms: C_3  and  N_4 
REMARK       I    between atoms: N_4  and  C_5 
REMARK       I    between atoms: C_5  and  N_6 
REMARK    2  A    between atoms: N_6  and  C_7 
REMARK    3  A    between atoms: C_7  and  C_8 
REMARK    4  A    between atoms: C_8  and  O_9 
REMARK    5  A    between atoms: O_9  and  C_10 
ROOT
HETATM    1  N   UNL     1      25.076  44.658  50.924  1.00  0.00    -0.307 N 
HETATM    2  C   UNL     1      26.290  44.138  50.528  1.00  0.00     0.320 C 
HETATM    3  N   UNL     1      26.680  43.123  51.370  1.00  0.00    -0.340 N 
HETATM    4  O   UNL     1      26.933  44.478  49.546  1.00  0.00    -0.247 OA
HETATM    5  H   UNL     1      24.433  43.931  51.208  1.00  0.00     0.170 HD
HETATM    6  H   UNL     1      26.287  43.134  52.301  1.00  0.00     0.164 HD
ENDROOT
BRANCH   3   7
HETATM    7  C   UNL     1      27.904  42.368  51.154  1.00  0.00     0.156 C 
BRANCH   7   8
HETATM    8  C   UNL     1      28.770  42.181  52.416  1.00  0.00     0.142 C 
HETATM    9  C   UNL     1      28.907  40.714  52.820  1.00  0.00     0.042 C 
BRANCH   8  10
HETATM   10  O   UNL     1      28.121  42.831  53.523  1.00  0.00    -0.345 OA
BRANCH  10  11
HETATM   11  C   UNL     1      28.869  43.568  54.396  1.00  0.00     0.070 A 
HETATM   12  C   UNL     1      29.978  43.124  55.113  1.00  0.00     0.060 A 
HETATM   13  C   UNL     1      30.640  44.000  55.978  1.00  0.00     0.036 A 
HETATM   14 CL   UNL     1      32.002  43.442  56.872  1.00  0.00    -0.084 Cl
HETATM   15  C   UNL     1      30.214  45.319  56.125  1.00  0.00     0.024 A 
HETATM   16  C   UNL     1      29.118  45.771  55.394  1.00  0.00     0.004 A 
HETATM   17  C   UNL     1      28.452  44.897  54.534  1.00  0.00     0.037 A 
ENDBRANCH  10  11
ENDBRANCH   8  10
ENDBRANCH   7   8
ENDBRANCH   3   7
BRANCH   1  18
HETATM   18  C   UNL     1      24.492  45.808  50.343  1.00  0.00     0.059 A 
HETATM   19  C   UNL     1      23.556  45.782  49.298  1.00  0.00    -0.032 A 
HETATM   20  C   UNL     1      23.092  44.526  48.617  1.00  0.00     0.050 C 
HETATM   21  C   UNL     1      23.037  47.004  48.842  1.00  0.00     0.028 A 
HETATM   22  C   UNL     1      23.503  48.190  49.389  1.00  0.00     0.117 A 
HETATM   23  N   UNL     1      24.447  48.249  50.347  1.00  0.00    -0.271 NA
HETATM   24  C   UNL     1      24.916  47.061  50.796  1.00  0.00     0.146 A 
ENDBRANCH   1  18
TORSDOF 5
ENDMDL
MODEL 7
REMARK VINA RESULT:      -7.5      3.764      6.991
REMARK  5 active torsions:
REMARK  status: ('A' for Active; 'I' for Inactive)
REMARK    1  A    between atoms: C_3  and  N_4 
REMARK       I    between atoms: N_4  and  C_5 
REMARK       I    between atoms: C_5  and  N_6 
REMARK    2  A    between atoms: N_6  and  C_7 
REMARK    3  A    between atoms: C_7  and  C_8 
REMARK    4  A    between atoms: C_8  and  O_9 
REMARK    5  A    between atoms: O_9  and  C_10 
ROOT
HETATM    1  N   UNL     1      28.414  42.785  53.965  1.00  0.00    -0.307 N 
HETATM    2  C   UNL     1      28.593  42.689  52.601  1.00  0.00     0.320 C 
HETATM    3  N   UNL     1      27.961  41.571  52.107  1.00  0.00    -0.340 N 
HETATM    4  O   UNL     1      29.187  43.489  51.894  1.00  0.00    -0.247 OA
HETATM    5  H   UNL     1      27.468  42.551  54.235  1.00  0.00     0.170 HD
HETATM    6  H   UNL     1      27.797  40.821  52.763  1.00  0.00     0.164 HD
ENDROOT
BRANCH   3   7
HETATM    7  C   UNL     1      27.953  41.253  50.689  1.00  0.00     0.156 C 
BRANCH   7   8
HETATM    8  C   UNL     1      26.733  41.798  49.919  1.00  0.00     0.142 C 
HETATM    9  C   UNL     1      26.367  40.934  48.714  1.00  0.00     0.042 C 
BRANCH   8  10
HETATM   10  O   UNL     1      27.065  43.092  49.385  1.00  0.00    -0.345 OA
BRANCH  10  11
HETATM   11  C   UNL     1      26.503  44.206  49.939  1.00  0.00     0.070 A 
HETATM   12  C   UNL     1      26.867  45.528  49.687  1.00  0.00     0.060 A 
HETATM   13  C   UNL     1      26.198  46.567  50.340  1.00  0.00     0.036 A 
HETATM   14 CL   UNL     1      26.660  48.197  50.035  1.00  0.00    -0.084 Cl
HETATM   15  C   UNL     1      25.161  46.302  51.233  1.00  0.00     0.024 A 
HETATM   16  C   UNL     1      24.782  44.983  51.471  1.00  0.00     0.004 A 
HETATM   17  C   UNL     1      25.451  43.943  50.825  1.00  0.00     0.037 A 
ENDBRANCH  10  11
ENDBRANCH   8  10
ENDBRANCH   7   8
ENDBRANCH   3   7
BRANCH   1  18
HETATM   18  C   UNL     1      29.068  43.745  54.772  1.00  0.00     0.059 A 
HETATM   19  C   UNL     1      28.568  45.027  55.045  1.00  0.00    -0.032 A 
HETATM   20  C   UNL     1      27.294  45.573  54.465  1.00  0.00     0.050 C 
HETATM   21  C   UNL     1      29.313  45.864  55.891  1.00  0.00     0.028 A 
HETATM   22  C   UNL     1      30.535  45.427  56.379  1.00  0.00     0.117 A 
HETATM   23  N   UNL     1      31.070  44.227  56.083  1.00  0.00    -0.271 NA
HETATM   24  C   UNL     1      30.326  43.422  55.289  1.00  0.00     0.146 A 
ENDBRANCH   1  18
TORSDOF 5
ENDMDL
MODEL 8
REMARK VINA RESULT:      -7.5      4.527      6.642
REMARK  5 active torsions:
REMARK  status: ('A' for Active; 'I' for Inactive)
REMARK    1  A    between atoms: C_3  and  N_4 
REMARK       I    between atoms: N_4  and  C_5 
REMARK       I    between atoms: C_5  and  N_6 
REMARK    2  A    between atoms: N_6  and  C_7 
REMARK    3  A    between atoms: C_7  and  C_8 
REMARK    4  A    between atoms: C_8  and  O_9 
REMARK    5  A    between atoms: O_9  and  C_10 
ROOT
HETATM    1  N   UNL     1      28.471  41.172  49.989  1.00  0.00    -0.307 N 
HETATM    2  C   UNL     1      27.359  41.527  50.722  1.00  0.00     0.320 C 
HETATM    3  N   UNL     1      27.653  42.564  51.577  1.00  0.00    -0.340 N 
HETATM    4  O   UNL     1      26.243  41.038  50.621  1.00  0.00    -0.247 OA
HETATM    5  H   UNL     1      28.987  41.984  49.676  1.00  0.00     0.170 HD
HETATM    6  H   UNL     1      28.623  42.674  51.834  1.00  0.00     0.164 HD
ENDROOT
BRANCH   3   7
HETATM    7  C   UNL     1      26.645  43.165  52.435  1.00  0.00     0.156 C 
BRANCH   7   8
HETATM    8  C   UNL     1      27.107  43.413  53.885  1.00  0.00     0.142 C 
HETATM    9  C   UNL     1      25.992  43.973  54.767  1.00  0.00     0.042 C 
BRANCH   8  10
HETATM   10  O   UNL     1      28.139  44.416  53.877  1.00  0.00    -0.345 OA
BRANCH  10  11
HETATM   11  C   UNL     1      29.102  44.391  54.844  1.00  0.00     0.070 A 
HETATM   12  C   UNL     1      29.260  45.311  55.878  1.00  0.00     0.060 A 
HETATM   13  C   UNL     1      30.305  45.153  56.793  1.00  0.00     0.036 A 
HETATM   14 CL   UNL     1      30.504  46.301  58.060  1.00  0.00    -0.084 Cl
HETATM   15  C   UNL     1      31.186  44.078  56.695  1.00  0.00     0.024 A 
HETATM   16  C   UNL     1      31.018  43.145  55.674  1.00  0.00     0.004 A 
HETATM   17  C   UNL     1      29.979  43.303  54.756  1.00  0.00     0.037 A 
ENDBRANCH  10  11
ENDBRANCH   8  10
ENDBRANCH   7   8
ENDBRANCH   3   7
BRANCH   1  18
HETATM   18  C   UNL     1      28.518  40.044  49.136  1.00  0.00     0.059 A 
HETATM   19  C   UNL     1      29.046  38.796  49.498  1.00  0.00    -0.032 A 
HETATM   20  C   UNL     1      29.688  38.508  50.826  1.00  0.00     0.050 C 
HETATM   21  C   UNL     1      28.997  37.756  48.557  1.00  0.00     0.028 A 
HETATM   22  C   UNL     1      28.488  38.006  47.291  1.00  0.00     0.117 A 
HETATM   23  N   UNL     1      28.033  39.209  46.894  1.00  0.00    -0.271 NA
HETATM   24  C   UNL     1      28.062  40.193  47.823  1.00  0.00     0.146 A 
ENDBRANCH   1  18
TORSDOF 5
ENDMDL
MODEL 9
REMARK VINA RESULT:      -7.3      4.165      7.067
REMARK  5 active torsions:
REMARK  status: ('A' for Active; 'I' for Inactive)
REMARK    1  A    between atoms: C_3  and  N_4 
REMARK       I    between atoms: N_4  and  C_5 
REMARK       I    between atoms: C_5  and  N_6 
REMARK    2  A    between atoms: N_6  and  C_7 
REMARK    3  A    between atoms: C_7  and  C_8 
REMARK    4  A    between atoms: C_8  and  O_9 
REMARK    5  A    between atoms: O_9  and  C_10 
ROOT
HETATM    1  N   UNL     1      30.063  43.393  54.195  1.00  0.00    -0.307 N 
HETATM    2  C   UNL     1      29.132  42.450  53.811  1.00  0.00     0.320 C 
HETATM    3  N   UNL     1      29.528  41.822  52.653  1.00  0.00    -0.340 N 
HETATM    4  O   UNL     1      28.111  42.158  54.416  1.00  0.00    -0.247 OA
HETATM    5  H   UNL     1      31.008  43.055  54.074  1.00  0.00     0.170 HD
HETATM    6  H   UNL     1      30.172  42.330  52.064  1.00  0.00     0.164 HD
ENDROOT
BRANCH   3   7
HETATM    7  C   UNL     1      28.751  40.751  52.052  1.00  0.00     0.156 C 
BRANCH   7   8
HETATM    8  C   UNL     1      27.742  41.215  50.983  1.00  0.00     0.142 C 
HETATM    9  C   UNL     1      28.002  40.581  49.617  1.00  0.00     0.042 C 
BRANCH   8  10
HETATM   10  O   UNL     1      27.893  42.633  50.789  1.00  0.00    -0.345 OA
BRANCH  10  11
HETATM   11  C   UNL     1      26.867  43.466  51.131  1.00  0.00     0.070 A 
HETATM   12  C   UNL     1      26.980  44.690  51.788  1.00  0.00     0.060 A 
HETATM   13  C   UNL     1      25.830  45.431  52.076  1.00  0.00     0.036 A 
HETATM   14 CL   UNL     1      25.975  46.935  52.900  1.00  0.00    -0.084 Cl
HETATM   15  C   UNL     1      24.569  44.970  51.701  1.00  0.00     0.024 A 
HETATM   16  C   UNL     1      24.456  43.757  51.026  1.00  0.00     0.004 A 
HETATM   17  C   UNL     1      25.602  43.012  50.743  1.00  0.00     0.037 A 
ENDBRANCH  10  11
ENDBRANCH   8  10
ENDBRANCH   7   8
ENDBRANCH   3   7
BRANCH   1  18
HETATM   18  C   UNL     1      29.862  44.299  55.262  1.00  0.00     0.059 A 
HETATM   19  C   UNL     1      30.607  44.305  56.450  1.00  0.00    -0.032 A 
HETATM   20  C   UNL     1      31.684  43.308  56.772  1.00  0.00     0.050 C 
HETATM   21  C   UNL     1      30.316  45.286  57.411  1.00  0.00     0.028 A 
HETATM   22  C   UNL     1      29.274  46.172  57.187  1.00  0.00     0.117 A 
HETATM   23  N   UNL     1      28.500  46.150  56.085  1.00  0.00    -0.271 NA
HETATM   24  C   UNL     1      28.812  45.217  55.157  1.00  0.00     0.146 A 
ENDBRANCH   1  18
TORSDOF 5
ENDMDL
MODEL 10
REMARK VINA RESULT:      -7.3      2.710      3.603
REMARK  5 active torsions:
REMARK  status: ('A' for Active; 'I' for Inactive)
REMARK    1  A    between atoms: C_3  and  N_4 
REMARK       I    between atoms: N_4  and  C_5 
REMARK       I    between atoms: C_5  and  N_6 
REMARK    2  A    between atoms: N_6  and  C_7 
REMARK    3  A    between atoms: C_7  and  C_8 
REMARK    4  A    between atoms: C_8  and  O_9 
REMARK    5  A    between atoms: O_9  and  C_10 
ROOT
HETATM    1  N   UNL     1      23.660  47.464  48.727  1.00  0.00    -0.307 N 
HETATM    2  C   UNL     1      24.467  47.019  49.753  1.00  0.00     0.320 C 
HETATM    3  N   UNL     1      24.851  45.716  49.537  1.00  0.00    -0.340 N 
HETATM    4  O   UNL     1      24.842  47.678  50.711  1.00  0.00    -0.247 OA
HETATM    5  H   UNL     1      23.999  47.156  47.825  1.00  0.00     0.170 HD
HETATM    6  H   UNL     1      24.255  45.165  48.937  1.00  0.00     0.164 HD
ENDROOT
BRANCH   3   7
HETATM    7  C   UNL     1      25.744  45.014  50.445  1.00  0.00     0.156 C 
BRANCH   7   8
HETATM    8  C   UNL     1      25.065  43.913  51.284  1.00  0.00     0.142 C 
HETATM    9  C   UNL     1      23.774  43.403  50.645  1.00  0.00     0.042 C 
BRANCH   8  10
HETATM   10  O   UNL     1      24.679  44.471  52.552  1.00  0.00    -0.345 OA
BRANCH  10  11
HETATM   11  C   UNL     1      25.645  44.926  53.403  1.00  0.00     0.070 A 
HETATM   12  C   UNL     1      25.805  46.237  53.846  1.00  0.00     0.060 A 
HETATM   13  C   UNL     1      26.853  46.551  54.717  1.00  0.00     0.036 A 
HETATM   14 CL   UNL     1      27.054  48.176  55.251  1.00  0.00    -0.084 Cl
HETATM   15  C   UNL     1      27.735  45.567  55.161  1.00  0.00     0.024 A 
HETATM   16  C   UNL     1      27.565  44.252  54.735  1.00  0.00     0.004 A 
HETATM   17  C   UNL     1      26.523  43.937  53.861  1.00  0.00     0.037 A 
ENDBRANCH  10  11
ENDBRANCH   8  10
ENDBRANCH   7   8
ENDBRANCH   3   7
BRANCH   1  18
HETATM   18  C   UNL     1      22.991  48.711  48.743  1.00  0.00     0.059 A 
HETATM   19  C   UNL     1      23.580  49.933  48.386  1.00  0.00    -0.032 A 
HETATM   20  C   UNL     1      25.021  50.088  47.992  1.00  0.00     0.050 C 
HETATM   21  C   UNL     1      22.783  51.088  48.421  1.00  0.00     0.028 A 
HETATM   22  C   UNL     1      21.471  50.998  48.859  1.00  0.00     0.117 A 
HETATM   23  N   UNL     1      20.898  49.850  49.269  1.00  0.00    -0.271 NA
HETATM   24  C   UNL     1      21.671  48.742  49.203  1.00  0.00     0.146 A 
ENDBRANCH   1  18
TORSDOF 5
ENDMDL
