MODEL 1
REMARK VINA RESULT:      -9.4      0.000      0.000
REMARK  11 active torsions:
REMARK  status: ('A' for Active; 'I' for Inactive)
REMARK    1  A    between atoms: C_2  and  O_3 
REMARK    2  A    between atoms: C_2  and  C_4 
REMARK    3  A    between atoms: C_8  and  C_9 
REMARK    4  A    between atoms: C_12  and  C_13 
REMARK    5  A    between atoms: C_13  and  C_14 
REMARK    6  A    between atoms: C_14  and  N_15 
REMARK    7  A    between atoms: C_14  and  C_29 
REMARK       I    between atoms: N_15  and  C_16 
REMARK    8  A    between atoms: C_16  and  C_17 
REMARK    9  A    between atoms: C_21  and  O_22 
REMARK   10  A    between atoms: O_22  and  C_23 
REMARK   11  A    between atoms: C_29  and  N_30 
ROOT
HETATM    1  C   UNL     1      27.296  41.182  50.298  1.00  0.00     0.114 C 
ENDROOT
BRANCH   1   2
HETATM    2  C   UNL     1      26.918  42.030  49.054  1.00  0.00     0.065 C 
BRANCH   2   3
HETATM    3  C   UNL     1      26.149  43.326  49.231  1.00  0.00    -0.056 A 
HETATM    4  C   UNL     1      26.706  44.542  49.645  1.00  0.00     0.008 A 
HETATM    5  C   UNL     1      25.938  45.716  49.675  1.00  0.00     0.014 A 
HETATM    6  C   UNL     1      24.590  45.701  49.312  1.00  0.00    -0.006 A 
HETATM    7  C   UNL     1      24.010  44.477  48.964  1.00  0.00     0.014 A 
HETATM    8  C   UNL     1      24.779  43.307  48.922  1.00  0.00     0.008 A 
BRANCH   6   9
HETATM    9  C   UNL     1      23.791  46.913  49.262  1.00  0.00     0.085 A 
HETATM   10  C   UNL     1      24.263  48.205  49.375  1.00  0.00     0.130 A 
HETATM   11  N   UNL     1      23.168  49.014  49.198  1.00  0.00    -0.315 N 
HETATM   12  C   UNL     1      22.078  48.180  48.996  1.00  0.00     0.143 A 
HETATM   13  C   UNL     1      23.088  50.401  49.196  1.00  0.00     0.098 A 
HETATM   14  C   UNL     1      20.779  48.777  48.801  1.00  0.00     0.017 A 
HETATM   15  N   UNL     1      22.435  46.910  49.032  1.00  0.00    -0.228 NA
HETATM   16  C   UNL     1      20.722  50.133  48.807  1.00  0.00     0.015 A 
HETATM   17  C   UNL     1      21.892  50.979  49.001  1.00  0.00     0.018 A 
BRANCH  14  18
HETATM   18  C   UNL     1      19.553  47.890  48.594  1.00  0.00     0.150 C 
HETATM   19  C   UNL     1      18.191  48.574  48.575  1.00  0.00     0.044 C 
BRANCH  18  20
HETATM   20  O   UNL     1      19.513  46.905  49.633  1.00  0.00    -0.391 OA
HETATM   21  H   UNL     1      19.324  47.394  50.458  1.00  0.00     0.210 HD
ENDBRANCH  18  20
ENDBRANCH  14  18
ENDBRANCH   6   9
ENDBRANCH   2   3
ENDBRANCH   1   2
BRANCH   1  22
HETATM   22  N   UNL     1      27.822  42.061  51.360  1.00  0.00    -0.350 N 
HETATM   23  C   UNL     1      28.667  41.702  52.380  1.00  0.00     0.252 C 
HETATM   24  O   UNL     1      29.144  40.573  52.450  1.00  0.00    -0.268 OA
HETATM   25  H   UNL     1      27.665  43.055  51.221  1.00  0.00     0.163 HD
BRANCH  23  26
HETATM   26  C   UNL     1      28.918  42.711  53.452  1.00  0.00     0.033 A 
HETATM   27  C   UNL     1      28.064  43.814  53.535  1.00  0.00     0.043 A 
HETATM   28  C   UNL     1      28.333  44.845  54.442  1.00  0.00     0.068 A 
HETATM   29 CL   UNL     1      27.253  46.195  54.468  1.00  0.00    -0.081 Cl
HETATM   30  C   UNL     1      29.465  44.798  55.270  1.00  0.00     0.091 A 
HETATM   31  C   UNL     1      30.293  43.676  55.212  1.00  0.00     0.039 A 
HETATM   32  C   UNL     1      30.030  42.643  54.301  1.00  0.00     0.020 A 
BRANCH  30  33
HETATM   33  O   UNL     1      29.676  45.867  56.097  1.00  0.00    -0.345 OA
BRANCH  33  34
HETATM   34  C   UNL     1      29.464  45.723  57.507  1.00  0.00     0.121 C 
HETATM   35  C   UNL     1      30.730  46.062  58.292  1.00  0.00     0.040 C 
HETATM   36  C   UNL     1      28.352  46.702  57.881  1.00  0.00     0.040 C 
ENDBRANCH  33  34
ENDBRANCH  30  33
ENDBRANCH  23  26
ENDBRANCH   1  22
BRANCH   1  37
HETATM   37  C   UNL     1      26.106  40.263  50.698  1.00  0.00     0.254 C 
BRANCH  37  38
HETATM   38  N   UNL     1      26.333  38.859  50.261  1.00  0.00    -0.077 N 
HETATM   39  H   UNL     1      25.718  38.557  49.499  1.00  0.00     0.274 HD
HETATM   40  H   UNL     1      27.305  38.778  49.888  1.00  0.00     0.274 HD
HETATM   41  H   UNL     1      26.266  38.185  51.031  1.00  0.00     0.274 HD
ENDBRANCH  37  38
ENDBRANCH   1  37
TORSDOF 11
ENDMDL
MODEL 2
REMARK VINA RESULT:      -9.0      1.973      2.674
REMARK  11 active torsions:
REMARK  status: ('A' for Active; 'I' for Inactive)
REMARK    1  A    between atoms: C_2  and  O_3 
REMARK    2  A    between atoms: C_2  and  C_4 
REMARK    3  A    between atoms: C_8  and  C_9 
REMARK    4  A    between atoms: C_12  and  C_13 
REMARK    5  A    between atoms: C_13  and  C_14 
REMARK    6  A    between atoms: C_14  and  N_15 
REMARK    7  A    between atoms: C_14  and  C_29 
REMARK       I    between atoms: N_15  and  C_16 
REMARK    8  A    between atoms: C_16  and  C_17 
REMARK    9  A    between atoms: C_21  and  O_22 
REMARK   10  A    between atoms: O_22  and  C_23 
REMARK   11  A    between atoms: C_29  and  N_30 
ROOT
HETATM    1  C   UNL     1      27.380  40.983  50.235  1.00  0.00     0.114 C 
ENDROOT
BRANCH   1   2
HETATM    2  C   UNL     1      25.844  40.770  50.312  1.00  0.00     0.065 C 
BRANCH   2   3
HETATM    3  C   UNL     1      24.907  41.915  49.972  1.00  0.00    -0.056 A 
HETATM    4  C   UNL     1      24.349  42.800  50.902  1.00  0.00     0.008 A 
HETATM    5  C   UNL     1      23.579  43.897  50.485  1.00  0.00     0.014 A 
HETATM    6  C   UNL     1      23.331  44.125  49.130  1.00  0.00    -0.006 A 
HETATM    7  C   UNL     1      23.829  43.206  48.201  1.00  0.00     0.014 A 
HETATM    8  C   UNL     1      24.607  42.118  48.615  1.00  0.00     0.008 A 
BRANCH   6   9
HETATM    9  C   UNL     1      22.602  45.292  48.665  1.00  0.00     0.085 A 
HETATM   10  C   UNL     1      21.321  45.301  48.153  1.00  0.00     0.130 A 
HETATM   11  N   UNL     1      21.026  46.621  47.918  1.00  0.00    -0.315 N 
HETATM   12  C   UNL     1      22.144  47.355  48.288  1.00  0.00     0.143 A 
HETATM   13  C   UNL     1      19.861  47.190  47.421  1.00  0.00     0.098 A 
HETATM   14  C   UNL     1      22.114  48.788  48.124  1.00  0.00     0.017 A 
HETATM   15  N   UNL     1      23.104  46.571  48.741  1.00  0.00    -0.228 NA
HETATM   16  C   UNL     1      20.966  49.323  47.634  1.00  0.00     0.015 A 
HETATM   17  C   UNL     1      19.804  48.523  47.275  1.00  0.00     0.018 A 
BRANCH  14  18
HETATM   18  C   UNL     1      23.332  49.628  48.504  1.00  0.00     0.150 C 
HETATM   19  C   UNL     1      23.073  50.959  49.201  1.00  0.00     0.044 C 
BRANCH  18  20
HETATM   20  O   UNL     1      24.084  49.914  47.320  1.00  0.00    -0.391 OA
HETATM   21  H   UNL     1      23.722  49.329  46.625  1.00  0.00     0.210 HD
ENDBRANCH  18  20
ENDBRANCH  14  18
ENDBRANCH   6   9
ENDBRANCH   2   3
ENDBRANCH   1   2
BRANCH   1  22
HETATM   22  N   UNL     1      27.855  41.635  51.470  1.00  0.00    -0.350 N 
HETATM   23  C   UNL     1      27.993  42.983  51.687  1.00  0.00     0.252 C 
HETATM   24  O   UNL     1      27.636  43.807  50.850  1.00  0.00    -0.268 OA
HETATM   25  H   UNL     1      27.935  41.028  52.281  1.00  0.00     0.163 HD
BRANCH  23  26
HETATM   26  C   UNL     1      28.674  43.410  52.946  1.00  0.00     0.033 A 
HETATM   27  C   UNL     1      28.151  44.503  53.643  1.00  0.00     0.043 A 
HETATM   28  C   UNL     1      28.826  45.014  54.757  1.00  0.00     0.068 A 
HETATM   29 CL   UNL     1      28.141  46.387  55.552  1.00  0.00    -0.081 Cl
HETATM   30  C   UNL     1      30.039  44.452  55.184  1.00  0.00     0.091 A 
HETATM   31  C   UNL     1      30.537  43.336  54.509  1.00  0.00     0.039 A 
HETATM   32  C   UNL     1      29.867  42.824  53.389  1.00  0.00     0.020 A 
BRANCH  30  33
HETATM   33  O   UNL     1      30.654  45.039  56.256  1.00  0.00    -0.345 OA
BRANCH  33  34
HETATM   34  C   UNL     1      30.804  44.302  57.476  1.00  0.00     0.121 C 
HETATM   35  C   UNL     1      32.076  43.456  57.456  1.00  0.00     0.040 C 
HETATM   36  C   UNL     1      30.894  45.335  58.598  1.00  0.00     0.040 C 
ENDBRANCH  33  34
ENDBRANCH  30  33
ENDBRANCH  23  26
ENDBRANCH   1  22
BRANCH   1  37
HETATM   37  C   UNL     1      28.084  39.652  49.848  1.00  0.00     0.254 C 
BRANCH  37  38
HETATM   38  N   UNL     1      29.100  39.260  50.861  1.00  0.00    -0.077 N 
HETATM   39  H   UNL     1      29.380  38.276  50.809  1.00  0.00     0.274 HD
HETATM   40  H   UNL     1      29.972  39.810  50.692  1.00  0.00     0.274 HD
HETATM   41  H   UNL     1      28.810  39.474  51.821  1.00  0.00     0.274 HD
ENDBRANCH  37  38
ENDBRANCH   1  37
TORSDOF 11
ENDMDL
MODEL 3
REMARK VINA RESULT:      -8.9      4.860      8.204
REMARK  11 active torsions:
REMARK  status: ('A' for Active; 'I' for Inactive)
REMARK    1  A    between atoms: C_2  and  O_3 
REMARK    2  A    between atoms: C_2  and  C_4 
REMARK    3  A    between atoms: C_8  and  C_9 
REMARK    4  A    between atoms: C_12  and  C_13 
REMARK    5  A    between atoms: C_13  and  C_14 
REMARK    6  A    between atoms: C_14  and  N_15 
REMARK    7  A    between atoms: C_14  and  C_29 
REMARK       I    between atoms: N_15  and  C_16 
REMARK    8  A    between atoms: C_16  and  C_17 
REMARK    9  A    between atoms: C_21  and  O_22 
REMARK   10  A    between atoms: O_22  and  C_23 
REMARK   11  A    between atoms: C_29  and  N_30 
ROOT
HETATM    1  C   UNL     1      22.403  48.774  48.844  1.00  0.00     0.114 C 
ENDROOT
BRANCH   1   2
HETATM    2  C   UNL     1      22.033  50.077  49.601  1.00  0.00     0.065 C 
BRANCH   2   3
HETATM    3  C   UNL     1      20.627  50.638  49.491  1.00  0.00    -0.056 A 
HETATM    4  C   UNL     1      19.536  50.234  50.270  1.00  0.00     0.008 A 
HETATM    5  C   UNL     1      18.297  50.885  50.174  1.00  0.00     0.014 A 
HETATM    6  C   UNL     1      18.112  51.945  49.283  1.00  0.00    -0.006 A 
HETATM    7  C   UNL     1      19.177  52.309  48.454  1.00  0.00     0.014 A 
HETATM    8  C   UNL     1      20.417  51.666  48.557  1.00  0.00     0.008 A 
BRANCH   6   9
HETATM    9  C   UNL     1      16.864  52.686  49.216  1.00  0.00     0.085 A 
HETATM   10  C   UNL     1      16.082  52.864  48.093  1.00  0.00     0.130 A 
HETATM   11  N   UNL     1      14.978  53.561  48.518  1.00  0.00    -0.315 N 
HETATM   12  C   UNL     1      15.143  53.785  49.878  1.00  0.00     0.143 A 
HETATM   13  C   UNL     1      13.871  53.985  47.796  1.00  0.00     0.098 A 
HETATM   14  C   UNL     1      14.124  54.524  50.584  1.00  0.00     0.017 A 
HETATM   15  N   UNL     1      16.274  53.264  50.316  1.00  0.00    -0.228 NA
HETATM   16  C   UNL     1      13.052  54.932  49.858  1.00  0.00     0.015 A 
HETATM   17  C   UNL     1      12.903  54.660  48.435  1.00  0.00     0.018 A 
BRANCH  14  18
HETATM   18  C   UNL     1      14.279  54.806  52.077  1.00  0.00     0.150 C 
HETATM   19  C   UNL     1      13.283  55.768  52.713  1.00  0.00     0.044 C 
BRANCH  18  20
HETATM   20  O   UNL     1      15.586  55.339  52.314  1.00  0.00    -0.391 OA
HETATM   21  H   UNL     1      15.567  55.703  53.221  1.00  0.00     0.210 HD
ENDBRANCH  18  20
ENDBRANCH  14  18
ENDBRANCH   6   9
ENDBRANCH   2   3
ENDBRANCH   1   2
BRANCH   1  22
HETATM   22  N   UNL     1      23.173  47.882  49.732  1.00  0.00    -0.350 N 
HETATM   23  C   UNL     1      24.530  47.902  49.941  1.00  0.00     0.252 C 
HETATM   24  O   UNL     1      25.243  48.765  49.437  1.00  0.00    -0.268 OA
HETATM   25  H   UNL     1      22.619  47.309  50.363  1.00  0.00     0.163 HD
BRANCH  23  26
HETATM   26  C   UNL     1      25.119  46.784  50.736  1.00  0.00     0.033 A 
HETATM   27  C   UNL     1      25.354  46.992  52.098  1.00  0.00     0.043 A 
HETATM   28  C   UNL     1      26.017  46.018  52.853  1.00  0.00     0.068 A 
HETATM   29 CL   UNL     1      26.304  46.356  54.524  1.00  0.00    -0.081 Cl
HETATM   30  C   UNL     1      26.466  44.828  52.260  1.00  0.00     0.091 A 
HETATM   31  C   UNL     1      26.193  44.608  50.909  1.00  0.00     0.039 A 
HETATM   32  C   UNL     1      25.535  45.583  50.147  1.00  0.00     0.020 A 
BRANCH  30  33
HETATM   33  O   UNL     1      27.142  43.950  53.061  1.00  0.00    -0.345 OA
BRANCH  33  34
HETATM   34  C   UNL     1      28.571  43.873  52.980  1.00  0.00     0.121 C 
HETATM   35  C   UNL     1      29.206  43.942  54.368  1.00  0.00     0.040 C 
HETATM   36  C   UNL     1      28.897  42.528  52.333  1.00  0.00     0.040 C 
ENDBRANCH  33  34
ENDBRANCH  30  33
ENDBRANCH  23  26
ENDBRANCH   1  22
BRANCH   1  37
HETATM   37  C   UNL     1      21.133  48.158  48.189  1.00  0.00     0.254 C 
BRANCH  37  38
HETATM   38  N   UNL     1      20.582  47.048  49.011  1.00  0.00    -0.077 N 
HETATM   39  H   UNL     1      20.452  47.288  49.999  1.00  0.00     0.274 HD
HETATM   40  H   UNL     1      19.633  46.805  48.653  1.00  0.00     0.274 HD
HETATM   41  H   UNL     1      21.139  46.189  48.948  1.00  0.00     0.274 HD
ENDBRANCH  37  38
ENDBRANCH   1  37
TORSDOF 11
ENDMDL
MODEL 4
REMARK VINA RESULT:      -8.5      3.139      9.531
REMARK  11 active torsions:
REMARK  status: ('A' for Active; 'I' for Inactive)
REMARK    1  A    between atoms: C_2  and  O_3 
REMARK    2  A    between atoms: C_2  and  C_4 
REMARK    3  A    between atoms: C_8  and  C_9 
REMARK    4  A    between atoms: C_12  and  C_13 
REMARK    5  A    between atoms: C_13  and  C_14 
REMARK    6  A    between atoms: C_14  and  N_15 
REMARK    7  A    between atoms: C_14  and  C_29 
REMARK       I    between atoms: N_15  and  C_16 
REMARK    8  A    between atoms: C_16  and  C_17 
REMARK    9  A    between atoms: C_21  and  O_22 
REMARK   10  A    between atoms: O_22  and  C_23 
REMARK   11  A    between atoms: C_29  and  N_30 
ROOT
HETATM    1  C   UNL     1      28.660  46.489  55.399  1.00  0.00     0.114 C 
ENDROOT
BRANCH   1   2
HETATM    2  C   UNL     1      29.358  45.112  55.566  1.00  0.00     0.065 C 
BRANCH   2   3
HETATM    3  C   UNL     1      28.992  43.966  54.641  1.00  0.00    -0.056 A 
HETATM    4  C   UNL     1      27.750  43.320  54.613  1.00  0.00     0.008 A 
HETATM    5  C   UNL     1      27.465  42.341  53.649  1.00  0.00     0.014 A 
HETATM    6  C   UNL     1      28.420  41.970  52.701  1.00  0.00    -0.006 A 
HETATM    7  C   UNL     1      29.685  42.562  52.765  1.00  0.00     0.014 A 
HETATM    8  C   UNL     1      29.966  43.547  53.720  1.00  0.00     0.008 A 
BRANCH   6   9
HETATM    9  C   UNL     1      28.128  41.015  51.645  1.00  0.00     0.085 A 
HETATM   10  C   UNL     1      27.100  41.102  50.729  1.00  0.00     0.130 A 
HETATM   11  N   UNL     1      27.259  40.026  49.891  1.00  0.00    -0.315 N 
HETATM   12  C   UNL     1      28.370  39.327  50.341  1.00  0.00     0.143 A 
HETATM   13  C   UNL     1      26.507  39.650  48.787  1.00  0.00     0.098 A 
HETATM   14  C   UNL     1      28.757  38.124  49.644  1.00  0.00     0.017 A 
HETATM   15  N   UNL     1      28.907  39.908  51.397  1.00  0.00    -0.228 NA
HETATM   16  C   UNL     1      28.006  37.773  48.568  1.00  0.00     0.015 A 
HETATM   17  C   UNL     1      26.857  38.544  48.113  1.00  0.00     0.018 A 
BRANCH  14  18
HETATM   18  C   UNL     1      29.964  37.319  50.120  1.00  0.00     0.150 C 
HETATM   19  C   UNL     1      29.851  36.624  51.472  1.00  0.00     0.044 C 
BRANCH  18  20
HETATM   20  O   UNL     1      31.101  38.186  50.187  1.00  0.00    -0.391 OA
HETATM   21  H   UNL     1      31.361  38.213  51.129  1.00  0.00     0.210 HD
ENDBRANCH  18  20
ENDBRANCH  14  18
ENDBRANCH   6   9
ENDBRANCH   2   3
ENDBRANCH   1   2
BRANCH   1  22
HETATM   22  N   UNL     1      27.815  46.476  54.190  1.00  0.00    -0.350 N 
HETATM   23  C   UNL     1      26.465  46.714  54.129  1.00  0.00     0.252 C 
HETATM   24  O   UNL     1      25.828  47.054  55.122  1.00  0.00    -0.268 OA
HETATM   25  H   UNL     1      28.317  46.445  53.307  1.00  0.00     0.163 HD
BRANCH  23  26
HETATM   26  C   UNL     1      25.781  46.460  52.826  1.00  0.00     0.033 A 
HETATM   27  C   UNL     1      25.298  45.173  52.572  1.00  0.00     0.043 A 
HETATM   28  C   UNL     1      24.761  44.859  51.319  1.00  0.00     0.068 A 
HETATM   29 CL   UNL     1      24.213  43.239  51.063  1.00  0.00    -0.081 Cl
HETATM   30  C   UNL     1      24.711  45.818  50.295  1.00  0.00     0.091 A 
HETATM   31  C   UNL     1      25.157  47.112  50.567  1.00  0.00     0.039 A 
HETATM   32  C   UNL     1      25.701  47.430  51.819  1.00  0.00     0.020 A 
BRANCH  30  33
HETATM   33  O   UNL     1      24.210  45.414  49.088  1.00  0.00    -0.345 OA
BRANCH  33  34
HETATM   34  C   UNL     1      22.799  45.488  48.848  1.00  0.00     0.121 C 
HETATM   35  C   UNL     1      22.432  46.777  48.113  1.00  0.00     0.040 C 
HETATM   36  C   UNL     1      22.444  44.284  47.978  1.00  0.00     0.040 C 
ENDBRANCH  33  34
ENDBRANCH  30  33
ENDBRANCH  23  26
ENDBRANCH   1  22
BRANCH   1  37
HETATM   37  C   UNL     1      27.953  46.892  56.724  1.00  0.00     0.254 C 
BRANCH  37  38
HETATM   38  N   UNL     1      28.597  46.250  57.901  1.00  0.00    -0.077 N 
HETATM   39  H   UNL     1      28.579  46.825  58.749  1.00  0.00     0.274 HD
HETATM   40  H   UNL     1      28.070  45.381  58.139  1.00  0.00     0.274 HD
HETATM   41  H   UNL     1      29.563  45.956  57.718  1.00  0.00     0.274 HD
ENDBRANCH  37  38
ENDBRANCH   1  37
TORSDOF 11
ENDMDL
MODEL 5
REMARK VINA RESULT:      -8.5      2.877      9.974
REMARK  11 active torsions:
REMARK  status: ('A' for Active; 'I' for Inactive)
REMARK    1  A    between atoms: C_2  and  O_3 
REMARK    2  A    between atoms: C_2  and  C_4 
REMARK    3  A    between atoms: C_8  and  C_9 
REMARK    4  A    between atoms: C_12  and  C_13 
REMARK    5  A    between atoms: C_13  and  C_14 
REMARK    6  A    between atoms: C_14  and  N_15 
REMARK    7  A    between atoms: C_14  and  C_29 
REMARK       I    between atoms: N_15  and  C_16 
REMARK    8  A    between atoms: C_16  and  C_17 
REMARK    9  A    between atoms: C_21  and  O_22 
REMARK   10  A    between atoms: O_22  and  C_23 
REMARK   11  A    between atoms: C_29  and  N_30 
ROOT
HETATM    1  C   UNL     1      21.497  43.976  47.163  1.00  0.00     0.114 C 
ENDROOT
BRANCH   1   2
HETATM    2  C   UNL     1      23.048  44.005  47.201  1.00  0.00     0.065 C 
BRANCH   2   3
HETATM    3  C   UNL     1      23.765  44.211  48.523  1.00  0.00    -0.056 A 
HETATM    4  C   UNL     1      24.241  43.185  49.349  1.00  0.00     0.008 A 
HETATM    5  C   UNL     1      24.989  43.471  50.501  1.00  0.00     0.014 A 
HETATM    6  C   UNL     1      25.264  44.790  50.867  1.00  0.00    -0.006 A 
HETATM    7  C   UNL     1      24.735  45.821  50.085  1.00  0.00     0.014 A 
HETATM    8  C   UNL     1      23.998  45.535  48.929  1.00  0.00     0.008 A 
BRANCH   6   9
HETATM    9  C   UNL     1      26.098  45.114  52.012  1.00  0.00     0.085 A 
HETATM   10  C   UNL     1      26.068  46.289  52.735  1.00  0.00     0.130 A 
HETATM   11  N   UNL     1      26.970  46.118  53.756  1.00  0.00    -0.315 N 
HETATM   12  C   UNL     1      27.517  44.852  53.601  1.00  0.00     0.143 A 
HETATM   13  C   UNL     1      27.316  46.986  54.783  1.00  0.00     0.098 A 
HETATM   14  C   UNL     1      28.523  44.416  54.540  1.00  0.00     0.017 A 
HETATM   15  N   UNL     1      27.004  44.232  52.556  1.00  0.00    -0.228 NA
HETATM   16  C   UNL     1      28.848  45.281  55.534  1.00  0.00     0.015 A 
HETATM   17  C   UNL     1      28.237  46.596  55.677  1.00  0.00     0.018 A 
BRANCH  14  18
HETATM   18  C   UNL     1      29.161  43.036  54.391  1.00  0.00     0.150 C 
HETATM   19  C   UNL     1      30.269  42.886  53.356  1.00  0.00     0.044 C 
BRANCH  18  20
HETATM   20  O   UNL     1      28.141  42.089  54.054  1.00  0.00    -0.391 OA
HETATM   21  H   UNL     1      27.572  42.015  54.845  1.00  0.00     0.210 HD
ENDBRANCH  18  20
ENDBRANCH  14  18
ENDBRANCH   6   9
ENDBRANCH   2   3
ENDBRANCH   1   2
BRANCH   1  22
HETATM   22  N   UNL     1      20.961  45.233  47.720  1.00  0.00    -0.350 N 
HETATM   23  C   UNL     1      19.694  45.442  48.205  1.00  0.00     0.252 C 
HETATM   24  O   UNL     1      18.882  44.525  48.293  1.00  0.00    -0.268 OA
HETATM   25  H   UNL     1      21.649  45.958  47.902  1.00  0.00     0.163 HD
BRANCH  23  26
HETATM   26  C   UNL     1      19.310  46.845  48.541  1.00  0.00     0.033 A 
HETATM   27  C   UNL     1      20.329  47.761  48.820  1.00  0.00     0.043 A 
HETATM   28  C   UNL     1      20.013  49.051  49.259  1.00  0.00     0.068 A 
HETATM   29 CL   UNL     1      21.323  50.121  49.618  1.00  0.00    -0.081 Cl
HETATM   30  C   UNL     1      18.678  49.444  49.440  1.00  0.00     0.091 A 
HETATM   31  C   UNL     1      17.663  48.540  49.121  1.00  0.00     0.039 A 
HETATM   32  C   UNL     1      17.975  47.244  48.687  1.00  0.00     0.020 A 
BRANCH  30  33
HETATM   33  O   UNL     1      18.459  50.709  49.912  1.00  0.00    -0.345 OA
BRANCH  33  34
HETATM   34  C   UNL     1      17.824  51.679  49.069  1.00  0.00     0.121 C 
HETATM   35  C   UNL     1      16.956  52.635  49.886  1.00  0.00     0.040 C 
HETATM   36  C   UNL     1      18.946  52.462  48.388  1.00  0.00     0.040 C 
ENDBRANCH  33  34
ENDBRANCH  30  33
ENDBRANCH  23  26
ENDBRANCH   1  22
BRANCH   1  37
HETATM   37  C   UNL     1      21.006  43.593  45.738  1.00  0.00     0.254 C 
BRANCH  37  38
HETATM   38  N   UNL     1      19.805  42.718  45.794  1.00  0.00    -0.077 N 
HETATM   39  H   UNL     1      19.987  41.789  46.187  1.00  0.00     0.274 HD
HETATM   40  H   UNL     1      19.099  43.157  46.425  1.00  0.00     0.274 HD
HETATM   41  H   UNL     1      19.345  42.610  44.883  1.00  0.00     0.274 HD
ENDBRANCH  37  38
ENDBRANCH   1  37
TORSDOF 11
ENDMDL
MODEL 6
REMARK VINA RESULT:      -8.4      3.264      9.027
REMARK  11 active torsions:
REMARK  status: ('A' for Active; 'I' for Inactive)
REMARK    1  A    between atoms: C_2  and  O_3 
REMARK    2  A    between atoms: C_2  and  C_4 
REMARK    3  A    between atoms: C_8  and  C_9 
REMARK    4  A    between atoms: C_12  and  C_13 
REMARK    5  A    between atoms: C_13  and  C_14 
REMARK    6  A    between atoms: C_14  and  N_15 
REMARK    7  A    between atoms: C_14  and  C_29 
REMARK       I    between atoms: N_15  and  C_16 
REMARK    8  A    between atoms: C_16  and  C_17 
REMARK    9  A    between atoms: C_21  and  O_22 
REMARK   10  A    between atoms: O_22  and  C_23 
REMARK   11  A    between atoms: C_29  and  N_30 
ROOT
HETATM    1  C   UNL     1      28.712  46.267  55.495  1.00  0.00     0.114 C 
ENDROOT
BRANCH   1   2
HETATM    2  C   UNL     1      29.505  44.939  55.619  1.00  0.00     0.065 C 
BRANCH   2   3
HETATM    3  C   UNL     1      29.229  43.803  54.650  1.00  0.00    -0.056 A 
HETATM    4  C   UNL     1      27.979  43.209  54.441  1.00  0.00     0.008 A 
HETATM    5  C   UNL     1      27.796  42.239  53.445  1.00  0.00     0.014 A 
HETATM    6  C   UNL     1      28.863  41.823  52.645  1.00  0.00    -0.006 A 
HETATM    7  C   UNL     1      30.129  42.362  52.894  1.00  0.00     0.014 A 
HETATM    8  C   UNL     1      30.309  43.339  53.880  1.00  0.00     0.008 A 
BRANCH   6   9
HETATM    9  C   UNL     1      28.688  40.875  51.558  1.00  0.00     0.085 A 
HETATM   10  C   UNL     1      29.195  39.593  51.505  1.00  0.00     0.130 A 
HETATM   11  N   UNL     1      28.718  39.055  50.335  1.00  0.00    -0.315 N 
HETATM   12  C   UNL     1      27.951  40.037  49.724  1.00  0.00     0.143 A 
HETATM   13  C   UNL     1      28.911  37.787  49.804  1.00  0.00     0.098 A 
HETATM   14  C   UNL     1      27.338  39.741  48.451  1.00  0.00     0.017 A 
HETATM   15  N   UNL     1      27.921  41.141  50.446  1.00  0.00    -0.228 NA
HETATM   16  C   UNL     1      27.543  38.496  47.949  1.00  0.00     0.015 A 
HETATM   17  C   UNL     1      28.338  37.483  48.630  1.00  0.00     0.018 A 
BRANCH  14  18
HETATM   18  C   UNL     1      26.501  40.802  47.740  1.00  0.00     0.150 C 
HETATM   19  C   UNL     1      25.963  40.456  46.357  1.00  0.00     0.044 C 
BRANCH  18  20
HETATM   20  O   UNL     1      27.285  41.992  47.599  1.00  0.00    -0.391 OA
HETATM   21  H   UNL     1      28.202  41.691  47.442  1.00  0.00     0.210 HD
ENDBRANCH  18  20
ENDBRANCH  14  18
ENDBRANCH   6   9
ENDBRANCH   2   3
ENDBRANCH   1   2
BRANCH   1  22
HETATM   22  N   UNL     1      27.866  46.231  54.286  1.00  0.00    -0.350 N 
HETATM   23  C   UNL     1      26.603  46.752  54.152  1.00  0.00     0.252 C 
HETATM   24  O   UNL     1      26.076  47.398  55.054  1.00  0.00    -0.268 OA
HETATM   25  H   UNL     1      28.332  45.931  53.435  1.00  0.00     0.163 HD
BRANCH  23  26
HETATM   26  C   UNL     1      25.858  46.432  52.898  1.00  0.00     0.033 A 
HETATM   27  C   UNL     1      25.524  45.098  52.649  1.00  0.00     0.043 A 
HETATM   28  C   UNL     1      24.936  44.736  51.432  1.00  0.00     0.068 A 
HETATM   29 CL   UNL     1      24.581  43.064  51.178  1.00  0.00    -0.081 Cl
HETATM   30  C   UNL     1      24.685  45.697  50.440  1.00  0.00     0.091 A 
HETATM   31  C   UNL     1      24.982  47.033  50.709  1.00  0.00     0.039 A 
HETATM   32  C   UNL     1      25.577  47.400  51.925  1.00  0.00     0.020 A 
BRANCH  30  33
HETATM   33  O   UNL     1      24.147  45.251  49.264  1.00  0.00    -0.345 OA
BRANCH  33  34
HETATM   34  C   UNL     1      22.730  45.331  49.059  1.00  0.00     0.121 C 
HETATM   35  C   UNL     1      22.376  46.469  48.103  1.00  0.00     0.040 C 
HETATM   36  C   UNL     1      22.304  43.997  48.447  1.00  0.00     0.040 C 
ENDBRANCH  33  34
ENDBRANCH  30  33
ENDBRANCH  23  26
ENDBRANCH   1  22
BRANCH   1  37
HETATM   37  C   UNL     1      27.982  46.579  56.832  1.00  0.00     0.254 C 
BRANCH  37  38
HETATM   38  N   UNL     1      28.765  46.099  58.003  1.00  0.00    -0.077 N 
HETATM   39  H   UNL     1      28.363  46.364  58.907  1.00  0.00     0.274 HD
HETATM   40  H   UNL     1      28.774  45.055  57.995  1.00  0.00     0.274 HD
HETATM   41  H   UNL     1      29.747  46.393  57.975  1.00  0.00     0.274 HD
ENDBRANCH  37  38
ENDBRANCH   1  37
TORSDOF 11
ENDMDL
MODEL 7
REMARK VINA RESULT:      -8.3      4.807      8.337
REMARK  11 active torsions:
REMARK  status: ('A' for Active; 'I' for Inactive)
REMARK    1  A    between atoms: C_2  and  O_3 
REMARK    2  A    between atoms: C_2  and  C_4 
REMARK    3  A    between atoms: C_8  and  C_9 
REMARK    4  A    between atoms: C_12  and  C_13 
REMARK    5  A    between atoms: C_13  and  C_14 
REMARK    6  A    between atoms: C_14  and  N_15 
REMARK    7  A    between atoms: C_14  and  C_29 
REMARK       I    between atoms: N_15  and  C_16 
REMARK    8  A    between atoms: C_16  and  C_17 
REMARK    9  A    between atoms: C_21  and  O_22 
REMARK   10  A    between atoms: O_22  and  C_23 
REMARK   11  A    between atoms: C_29  and  N_30 
ROOT
HETATM    1  C   UNL     1      22.171  48.848  48.769  1.00  0.00     0.114 C 
ENDROOT
BRANCH   1   2
HETATM    2  C   UNL     1      21.742  50.085  49.603  1.00  0.00     0.065 C 
BRANCH   2   3
HETATM    3  C   UNL     1      20.327  50.621  49.483  1.00  0.00    -0.056 A 
HETATM    4  C   UNL     1      19.220  50.136  50.190  1.00  0.00     0.008 A 
HETATM    5  C   UNL     1      17.970  50.765  50.096  1.00  0.00     0.014 A 
HETATM    6  C   UNL     1      17.789  51.882  49.278  1.00  0.00    -0.006 A 
HETATM    7  C   UNL     1      18.872  52.330  48.517  1.00  0.00     0.014 A 
HETATM    8  C   UNL     1      20.124  51.710  48.619  1.00  0.00     0.008 A 
BRANCH   6   9
HETATM    9  C   UNL     1      16.526  52.598  49.219  1.00  0.00     0.085 A 
HETATM   10  C   UNL     1      15.825  53.104  50.294  1.00  0.00     0.130 A 
HETATM   11  N   UNL     1      14.742  53.755  49.756  1.00  0.00    -0.315 N 
HETATM   12  C   UNL     1      14.827  53.607  48.379  1.00  0.00     0.143 A 
HETATM   13  C   UNL     1      13.727  54.454  50.395  1.00  0.00     0.098 A 
HETATM   14  C   UNL     1      13.790  54.185  47.559  1.00  0.00     0.017 A 
HETATM   15  N   UNL     1      15.896  52.913  48.037  1.00  0.00    -0.228 NA
HETATM   16  C   UNL     1      12.805  54.861  48.204  1.00  0.00     0.015 A 
HETATM   17  C   UNL     1      12.760  55.013  49.652  1.00  0.00     0.018 A 
BRANCH  14  18
HETATM   18  C   UNL     1      13.840  54.028  46.040  1.00  0.00     0.150 C 
HETATM   19  C   UNL     1      12.561  54.322  45.265  1.00  0.00     0.044 C 
BRANCH  18  20
HETATM   20  O   UNL     1      14.221  52.684  45.726  1.00  0.00    -0.391 OA
HETATM   21  H   UNL     1      15.198  52.676  45.724  1.00  0.00     0.210 HD
ENDBRANCH  18  20
ENDBRANCH  14  18
ENDBRANCH   6   9
ENDBRANCH   2   3
ENDBRANCH   1   2
BRANCH   1  22
HETATM   22  N   UNL     1      23.077  47.999  49.565  1.00  0.00    -0.350 N 
HETATM   23  C   UNL     1      24.430  48.168  49.727  1.00  0.00     0.252 C 
HETATM   24  O   UNL     1      25.015  49.141  49.261  1.00  0.00    -0.268 OA
HETATM   25  H   UNL     1      22.622  47.324  50.173  1.00  0.00     0.163 HD
BRANCH  23  26
HETATM   26  C   UNL     1      25.179  47.078  50.421  1.00  0.00     0.033 A 
HETATM   27  C   UNL     1      25.251  47.108  51.816  1.00  0.00     0.043 A 
HETATM   28  C   UNL     1      26.044  46.180  52.499  1.00  0.00     0.068 A 
HETATM   29 CL   UNL     1      26.113  46.296  54.223  1.00  0.00    -0.081 Cl
HETATM   30  C   UNL     1      26.787  45.216  51.801  1.00  0.00     0.091 A 
HETATM   31  C   UNL     1      26.681  45.164  50.410  1.00  0.00     0.039 A 
HETATM   32  C   UNL     1      25.893  46.096  49.721  1.00  0.00     0.020 A 
BRANCH  30  33
HETATM   33  O   UNL     1      27.569  44.374  52.544  1.00  0.00    -0.345 OA
BRANCH  33  34
HETATM   34  C   UNL     1      27.106  43.047  52.829  1.00  0.00     0.121 C 
HETATM   35  C   UNL     1      27.726  42.031  51.871  1.00  0.00     0.040 C 
HETATM   36  C   UNL     1      27.542  42.734  54.260  1.00  0.00     0.040 C 
ENDBRANCH  33  34
ENDBRANCH  30  33
ENDBRANCH  23  26
ENDBRANCH   1  22
BRANCH   1  37
HETATM   37  C   UNL     1      20.917  48.144  48.176  1.00  0.00     0.254 C 
BRANCH  37  38
HETATM   38  N   UNL     1      20.604  46.886  48.907  1.00  0.00    -0.077 N 
HETATM   39  H   UNL     1      21.237  46.111  48.686  1.00  0.00     0.274 HD
HETATM   40  H   UNL     1      20.714  47.057  49.930  1.00  0.00     0.274 HD
HETATM   41  H   UNL     1      19.636  46.575  48.771  1.00  0.00     0.274 HD
ENDBRANCH  37  38
ENDBRANCH   1  37
TORSDOF 11
ENDMDL
MODEL 8
REMARK VINA RESULT:      -8.1      2.021      3.017
REMARK  11 active torsions:
REMARK  status: ('A' for Active; 'I' for Inactive)
REMARK    1  A    between atoms: C_2  and  O_3 
REMARK    2  A    between atoms: C_2  and  C_4 
REMARK    3  A    between atoms: C_8  and  C_9 
REMARK    4  A    between atoms: C_12  and  C_13 
REMARK    5  A    between atoms: C_13  and  C_14 
REMARK    6  A    between atoms: C_14  and  N_15 
REMARK    7  A    between atoms: C_14  and  C_29 
REMARK       I    between atoms: N_15  and  C_16 
REMARK    8  A    between atoms: C_16  and  C_17 
REMARK    9  A    between atoms: C_21  and  O_22 
REMARK   10  A    between atoms: O_22  and  C_23 
REMARK   11  A    between atoms: C_29  and  N_30 
ROOT
HETATM    1  C   UNL     1      26.326  41.805  49.071  1.00  0.00     0.114 C 
ENDROOT
BRANCH   1   2
HETATM    2  C   UNL     1      24.787  41.674  48.923  1.00  0.00     0.065 C 
BRANCH   2   3
HETATM    3  C   UNL     1      23.936  42.923  48.773  1.00  0.00    -0.056 A 
HETATM    4  C   UNL     1      23.826  43.941  49.727  1.00  0.00     0.008 A 
HETATM    5  C   UNL     1      23.101  45.111  49.457  1.00  0.00     0.014 A 
HETATM    6  C   UNL     1      22.452  45.286  48.233  1.00  0.00    -0.006 A 
HETATM    7  C   UNL     1      22.502  44.244  47.301  1.00  0.00     0.014 A 
HETATM    8  C   UNL     1      23.235  43.081  47.566  1.00  0.00     0.008 A 
BRANCH   6   9
HETATM    9  C   UNL     1      21.758  46.517  47.896  1.00  0.00     0.085 A 
HETATM   10  C   UNL     1      20.640  46.629  47.096  1.00  0.00     0.130 A 
HETATM   11  N   UNL     1      20.299  47.959  47.122  1.00  0.00    -0.315 N 
HETATM   12  C   UNL     1      21.231  48.598  47.927  1.00  0.00     0.143 A 
HETATM   13  C   UNL     1      19.242  48.610  46.501  1.00  0.00     0.098 A 
HETATM   14  C   UNL     1      21.120  50.024  48.113  1.00  0.00     0.017 A 
HETATM   15  N   UNL     1      22.118  47.744  48.403  1.00  0.00    -0.228 NA
HETATM   16  C   UNL     1      20.081  50.642  47.494  1.00  0.00     0.015 A 
HETATM   17  C   UNL     1      19.108  49.934  46.672  1.00  0.00     0.018 A 
BRANCH  14  18
HETATM   18  C   UNL     1      22.137  50.765  48.978  1.00  0.00     0.150 C 
HETATM   19  C   UNL     1      23.496  51.065  48.356  1.00  0.00     0.044 C 
BRANCH  18  20
HETATM   20  O   UNL     1      22.378  50.001  50.165  1.00  0.00    -0.391 OA
HETATM   21  H   UNL     1      21.496  49.788  50.529  1.00  0.00     0.210 HD
ENDBRANCH  18  20
ENDBRANCH  14  18
ENDBRANCH   6   9
ENDBRANCH   2   3
ENDBRANCH   1   2
BRANCH   1  22
HETATM   22  N   UNL     1      26.650  42.455  50.355  1.00  0.00    -0.350 N 
HETATM   23  C   UNL     1      27.157  43.719  50.530  1.00  0.00     0.252 C 
HETATM   24  O   UNL     1      27.317  44.483  49.583  1.00  0.00    -0.268 OA
HETATM   25  H   UNL     1      26.315  41.975  51.185  1.00  0.00     0.163 HD
BRANCH  23  26
HETATM   26  C   UNL     1      27.590  44.100  51.908  1.00  0.00     0.033 A 
HETATM   27  C   UNL     1      28.759  43.528  52.416  1.00  0.00     0.043 A 
HETATM   28  C   UNL     1      29.135  43.760  53.744  1.00  0.00     0.068 A 
HETATM   29 CL   UNL     1      30.575  42.994  54.317  1.00  0.00    -0.081 Cl
HETATM   30  C   UNL     1      28.344  44.555  54.588  1.00  0.00     0.091 A 
HETATM   31  C   UNL     1      27.199  45.157  54.064  1.00  0.00     0.039 A 
HETATM   32  C   UNL     1      26.815  44.923  52.736  1.00  0.00     0.020 A 
BRANCH  30  33
HETATM   33  O   UNL     1      28.763  44.696  55.883  1.00  0.00    -0.345 OA
BRANCH  33  34
HETATM   34  C   UNL     1      29.258  45.964  56.332  1.00  0.00     0.121 C 
HETATM   35  C   UNL     1      28.375  46.539  57.438  1.00  0.00     0.040 C 
HETATM   36  C   UNL     1      30.663  45.712  56.877  1.00  0.00     0.040 C 
ENDBRANCH  33  34
ENDBRANCH  30  33
ENDBRANCH  23  26
ENDBRANCH   1  22
BRANCH   1  37
HETATM   37  C   UNL     1      27.005  40.430  48.809  1.00  0.00     0.254 C 
BRANCH  37  38
HETATM   38  N   UNL     1      26.100  39.302  49.158  1.00  0.00    -0.077 N 
HETATM   39  H   UNL     1      26.410  38.758  49.969  1.00  0.00     0.274 HD
HETATM   40  H   UNL     1      25.167  39.689  49.418  1.00  0.00     0.274 HD
HETATM   41  H   UNL     1      25.935  38.664  48.372  1.00  0.00     0.274 HD
ENDBRANCH  37  38
ENDBRANCH   1  37
TORSDOF 11
ENDMDL
MODEL 9
REMARK VINA RESULT:      -8.1      1.849      2.361
REMARK  11 active torsions:
REMARK  status: ('A' for Active; 'I' for Inactive)
REMARK    1  A    between atoms: C_2  and  O_3 
REMARK    2  A    between atoms: C_2  and  C_4 
REMARK    3  A    between atoms: C_8  and  C_9 
REMARK    4  A    between atoms: C_12  and  C_13 
REMARK    5  A    between atoms: C_13  and  C_14 
REMARK    6  A    between atoms: C_14  and  N_15 
REMARK    7  A    between atoms: C_14  and  C_29 
REMARK       I    between atoms: N_15  and  C_16 
REMARK    8  A    between atoms: C_16  and  C_17 
REMARK    9  A    between atoms: C_21  and  O_22 
REMARK   10  A    between atoms: O_22  and  C_23 
REMARK   11  A    between atoms: C_29  and  N_30 
ROOT
HETATM    1  C   UNL     1      26.051  41.999  50.143  1.00  0.00     0.114 C 
ENDROOT
BRANCH   1   2
HETATM    2  C   UNL     1      24.535  42.214  50.398  1.00  0.00     0.065 C 
BRANCH   2   3
HETATM    3  C   UNL     1      23.841  43.436  49.826  1.00  0.00    -0.056 A 
HETATM    4  C   UNL     1      22.649  43.414  49.092  1.00  0.00     0.008 A 
HETATM    5  C   UNL     1      22.021  44.604  48.695  1.00  0.00     0.014 A 
HETATM    6  C   UNL     1      22.579  45.846  49.004  1.00  0.00    -0.006 A 
HETATM    7  C   UNL     1      23.804  45.875  49.678  1.00  0.00     0.014 A 
HETATM    8  C   UNL     1      24.425  44.687  50.085  1.00  0.00     0.008 A 
BRANCH   6   9
HETATM    9  C   UNL     1      21.915  47.095  48.672  1.00  0.00     0.085 A 
HETATM   10  C   UNL     1      22.267  48.350  49.122  1.00  0.00     0.130 A 
HETATM   11  N   UNL     1      21.411  49.222  48.496  1.00  0.00    -0.315 N 
HETATM   12  C   UNL     1      20.568  48.457  47.702  1.00  0.00     0.143 A 
HETATM   13  C   UNL     1      21.343  50.606  48.581  1.00  0.00     0.098 A 
HETATM   14  C   UNL     1      19.543  49.127  46.938  1.00  0.00     0.017 A 
HETATM   15  N   UNL     1      20.858  47.173  47.795  1.00  0.00    -0.228 NA
HETATM   16  C   UNL     1      19.493  50.480  47.038  1.00  0.00     0.015 A 
HETATM   17  C   UNL     1      20.408  51.252  47.867  1.00  0.00     0.018 A 
BRANCH  14  18
HETATM   18  C   UNL     1      18.587  48.317  46.066  1.00  0.00     0.150 C 
HETATM   19  C   UNL     1      17.426  47.618  46.765  1.00  0.00     0.044 C 
BRANCH  18  20
HETATM   20  O   UNL     1      19.332  47.306  45.378  1.00  0.00    -0.391 OA
HETATM   21  H   UNL     1      20.020  47.007  46.005  1.00  0.00     0.210 HD
ENDBRANCH  18  20
ENDBRANCH  14  18
ENDBRANCH   6   9
ENDBRANCH   2   3
ENDBRANCH   1   2
BRANCH   1  22
HETATM   22  N   UNL     1      26.823  42.450  51.317  1.00  0.00    -0.350 N 
HETATM   23  C   UNL     1      27.620  43.565  51.397  1.00  0.00     0.252 C 
HETATM   24  O   UNL     1      27.697  44.366  50.471  1.00  0.00    -0.268 OA
HETATM   25  H   UNL     1      26.613  41.971  52.188  1.00  0.00     0.163 HD
BRANCH  23  26
HETATM   26  C   UNL     1      28.459  43.722  52.623  1.00  0.00     0.033 A 
HETATM   27  C   UNL     1      28.093  44.696  53.555  1.00  0.00     0.043 A 
HETATM   28  C   UNL     1      28.916  44.963  54.654  1.00  0.00     0.068 A 
HETATM   29 CL   UNL     1      28.418  46.204  55.749  1.00  0.00    -0.081 Cl
HETATM   30  C   UNL     1      30.124  44.271  54.833  1.00  0.00     0.091 A 
HETATM   31  C   UNL     1      30.466  43.270  53.922  1.00  0.00     0.039 A 
HETATM   32  C   UNL     1      29.647  43.004  52.816  1.00  0.00     0.020 A 
BRANCH  30  33
HETATM   33  O   UNL     1      30.889  44.623  55.912  1.00  0.00    -0.345 OA
BRANCH  33  34
HETATM   34  C   UNL     1      30.856  43.816  57.096  1.00  0.00     0.121 C 
HETATM   35  C   UNL     1      32.081  42.906  57.177  1.00  0.00     0.040 C 
HETATM   36  C   UNL     1      30.856  44.782  58.279  1.00  0.00     0.040 C 
ENDBRANCH  33  34
ENDBRANCH  30  33
ENDBRANCH  23  26
ENDBRANCH   1  22
BRANCH   1  37
HETATM   37  C   UNL     1      26.311  40.540  49.672  1.00  0.00     0.254 C 
BRANCH  37  38
HETATM   38  N   UNL     1      26.202  39.577  50.800  1.00  0.00    -0.077 N 
HETATM   39  H   UNL     1      27.042  39.528  51.386  1.00  0.00     0.274 HD
HETATM   40  H   UNL     1      25.434  39.889  51.434  1.00  0.00     0.274 HD
HETATM   41  H   UNL     1      25.953  38.630  50.495  1.00  0.00     0.274 HD
ENDBRANCH  37  38
ENDBRANCH   1  37
TORSDOF 11
ENDMDL
MODEL 10
REMARK VINA RESULT:      -8.1      5.291      8.983
REMARK  11 active torsions:
REMARK  status: ('A' for Active; 'I' for Inactive)
REMARK    1  A    between atoms: C_2  and  O_3 
REMARK    2  A    between atoms: C_2  and  C_4 
REMARK    3  A    between atoms: C_8  and  C_9 
REMARK    4  A    between atoms: C_12  and  C_13 
REMARK    5  A    between atoms: C_13  and  C_14 
REMARK    6  A    between atoms: C_14  and  N_15 
REMARK    7  A    between atoms: C_14  and  C_29 
REMARK       I    between atoms: N_15  and  C_16 
REMARK    8  A    between atoms: C_16  and  C_17 
REMARK    9  A    between atoms: C_21  and  O_22 
REMARK   10  A    between atoms: O_22  and  C_23 
REMARK   11  A    between atoms: C_29  and  N_30 
ROOT
HETATM    1  C   UNL     1      20.002  47.349  48.493  1.00  0.00     0.114 C 
ENDROOT
BRANCH   1   2
HETATM    2  C   UNL     1      18.943  47.785  49.540  1.00  0.00     0.065 C 
BRANCH   2   3
HETATM    3  C   UNL     1      18.081  49.006  49.276  1.00  0.00    -0.056 A 
HETATM    4  C   UNL     1      16.978  49.041  48.415  1.00  0.00     0.008 A 
HETATM    5  C   UNL     1      16.173  50.186  48.317  1.00  0.00     0.014 A 
HETATM    6  C   UNL     1      16.462  51.332  49.061  1.00  0.00    -0.006 A 
HETATM    7  C   UNL     1      17.602  51.327  49.871  1.00  0.00     0.014 A 
HETATM    8  C   UNL     1      18.398  50.181  49.979  1.00  0.00     0.008 A 
BRANCH   6   9
HETATM    9  C   UNL     1      15.605  52.505  49.036  1.00  0.00     0.085 A 
HETATM   10  C   UNL     1      15.108  53.127  47.909  1.00  0.00     0.130 A 
HETATM   11  N   UNL     1      14.299  54.135  48.370  1.00  0.00    -0.315 N 
HETATM   12  C   UNL     1      14.347  54.089  49.756  1.00  0.00     0.143 A 
HETATM   13  C   UNL     1      13.541  55.054  47.656  1.00  0.00     0.098 A 
HETATM   14  C   UNL     1      13.593  55.064  50.506  1.00  0.00     0.017 A 
HETATM   15  N   UNL     1      15.129  53.112  50.176  1.00  0.00    -0.228 NA
HETATM   16  C   UNL     1      12.862  55.955  49.789  1.00  0.00     0.015 A 
HETATM   17  C   UNL     1      12.819  55.961  48.333  1.00  0.00     0.018 A 
BRANCH  14  18
HETATM   18  C   UNL     1      13.636  55.055  52.033  1.00  0.00     0.150 C 
HETATM   19  C   UNL     1      13.241  56.341  52.750  1.00  0.00     0.044 C 
BRANCH  18  20
HETATM   20  O   UNL     1      14.964  54.729  52.457  1.00  0.00    -0.391 OA
HETATM   21  H   UNL     1      14.893  54.493  53.403  1.00  0.00     0.210 HD
ENDBRANCH  18  20
ENDBRANCH  14  18
ENDBRANCH   6   9
ENDBRANCH   2   3
ENDBRANCH   1   2
BRANCH   1  22
HETATM   22  N   UNL     1      21.283  47.065  49.167  1.00  0.00    -0.350 N 
HETATM   23  C   UNL     1      22.539  47.379  48.711  1.00  0.00     0.252 C 
HETATM   24  O   UNL     1      22.704  48.030  47.683  1.00  0.00    -0.268 OA
HETATM   25  H   UNL     1      21.209  46.750  50.130  1.00  0.00     0.163 HD
BRANCH  23  26
HETATM   26  C   UNL     1      23.703  46.824  49.466  1.00  0.00     0.033 A 
HETATM   27  C   UNL     1      23.778  45.440  49.642  1.00  0.00     0.043 A 
HETATM   28  C   UNL     1      24.781  44.887  50.445  1.00  0.00     0.068 A 
HETATM   29 CL   UNL     1      24.796  43.170  50.646  1.00  0.00    -0.081 Cl
HETATM   30  C   UNL     1      25.716  45.707  51.097  1.00  0.00     0.091 A 
HETATM   31  C   UNL     1      25.661  47.086  50.886  1.00  0.00     0.039 A 
HETATM   32  C   UNL     1      24.654  47.645  50.086  1.00  0.00     0.020 A 
BRANCH  30  33
HETATM   33  O   UNL     1      26.637  45.088  51.897  1.00  0.00    -0.345 OA
BRANCH  33  34
HETATM   34  C   UNL     1      26.665  45.381  53.300  1.00  0.00     0.121 C 
HETATM   35  C   UNL     1      25.433  44.818  54.005  1.00  0.00     0.040 C 
HETATM   36  C   UNL     1      27.923  44.716  53.856  1.00  0.00     0.040 C 
ENDBRANCH  33  34
ENDBRANCH  30  33
ENDBRANCH  23  26
ENDBRANCH   1  22
BRANCH   1  37
HETATM   37  C   UNL     1      19.432  46.212  47.599  1.00  0.00     0.254 C 
BRANCH  37  38
HETATM   38  N   UNL     1      18.631  45.244  48.396  1.00  0.00    -0.077 N 
HETATM   39  H   UNL     1      19.197  44.596  48.952  1.00  0.00     0.274 HD
HETATM   40  H   UNL     1      18.053  45.775  49.084  1.00  0.00     0.274 HD
HETATM   41  H   UNL     1      17.971  44.705  47.825  1.00  0.00     0.274 HD
ENDBRANCH  37  38
ENDBRANCH   1  37
TORSDOF 11
ENDMDL
