MODEL 1
REMARK VINA RESULT:      -9.2      0.000      0.000
REMARK  2 active torsions:
REMARK  status: ('A' for Active; 'I' for Inactive)
REMARK    1  A    between atoms: C_9  and  C_10 
REMARK       I    between atoms: C_10  and  N_11 
REMARK    2  A    between atoms: N_11  and  C_12 
ROOT
HETATM    1  C   UNL     1      27.512  42.900  54.059  1.00  0.00     0.267 C 
HETATM    2  N   UNL     1      27.269  41.636  53.603  1.00  0.00    -0.156 N 
HETATM    3  O   UNL     1      26.848  43.256  55.037  1.00  0.00    -0.270 OA
HETATM    4  H   UNL     1      26.560  41.149  54.144  1.00  0.00     0.187 HD
ENDROOT
BRANCH   1   5
HETATM    5  C   UNL     1      28.596  43.829  53.451  1.00  0.00     0.282 C 
HETATM    6  N   UNL     1      28.420  45.311  53.692  1.00  0.00    -0.058 N 
HETATM    7  C   UNL     1      28.398  45.686  55.123  1.00  0.00     0.272 C 
HETATM    8  H   UNL     1      29.154  45.833  53.205  1.00  0.00     0.278 HD
HETATM    9  H   UNL     1      27.525  45.588  53.245  1.00  0.00     0.278 HD
HETATM   10  C   UNL     1      29.508  45.048  55.904  1.00  0.00    -0.026 A 
HETATM   11  C   UNL     1      30.252  43.972  55.377  1.00  0.00    -0.048 A 
HETATM   12  C   UNL     1      29.766  45.494  57.209  1.00  0.00     0.009 A 
HETATM   13  C   UNL     1      31.259  43.384  56.154  1.00  0.00     0.008 A 
HETATM   14  C   UNL     1      30.002  43.465  53.969  1.00  0.00     0.082 C 
HETATM   15  C   UNL     1      31.505  43.840  57.449  1.00  0.00     0.001 A 
HETATM   16  C   UNL     1      30.761  44.891  57.977  1.00  0.00     0.001 A 
ENDBRANCH   1   5
BRANCH   2  17
HETATM   17  C   UNL     1      27.828  41.009  52.528  1.00  0.00     0.708 A 
HETATM   18  N   UNL     1      27.544  41.181  51.255  1.00  0.00    -0.062 NA
HETATM   19  C   UNL     1      28.309  40.250  50.579  1.00  0.00     0.103 A 
HETATM   20  C   UNL     1      29.060  39.493  51.469  1.00  0.00     0.078 A 
HETATM   21  C   UNL     1      28.387  39.976  49.207  1.00  0.00     0.034 A 
HETATM   22  N   UNL     1      28.767  40.022  52.699  1.00  0.00    -0.188 N 
HETATM   23  C   UNL     1      29.893  38.446  51.074  1.00  0.00     0.032 A 
HETATM   24  H   UNL     1      29.150  39.703  53.578  1.00  0.00     0.184 HD
HETATM   25  C   UNL     1      29.950  38.177  49.702  1.00  0.00     0.002 A 
HETATM   26  C   UNL     1      29.215  38.930  48.783  1.00  0.00     0.002 A 
ENDBRANCH   2  17
TORSDOF 2
ENDMDL
MODEL 2
REMARK VINA RESULT:      -8.9      3.496      7.118
REMARK  2 active torsions:
REMARK  status: ('A' for Active; 'I' for Inactive)
REMARK    1  A    between atoms: C_9  and  C_10 
REMARK       I    between atoms: C_10  and  N_11 
REMARK    2  A    between atoms: N_11  and  C_12 
ROOT
HETATM    1  C   UNL     1      27.592  43.798  52.051  1.00  0.00     0.267 C 
HETATM    2  N   UNL     1      28.862  43.778  52.550  1.00  0.00    -0.156 N 
HETATM    3  O   UNL     1      27.484  43.576  50.841  1.00  0.00    -0.270 OA
HETATM    4  H   UNL     1      29.562  43.578  51.842  1.00  0.00     0.187 HD
ENDROOT
BRANCH   1   5
HETATM    5  C   UNL     1      26.334  44.013  52.936  1.00  0.00     0.282 C 
HETATM    6  N   UNL     1      26.196  45.370  53.585  1.00  0.00    -0.058 N 
HETATM    7  C   UNL     1      26.144  46.492  52.622  1.00  0.00     0.272 C 
HETATM    8  H   UNL     1      25.367  45.387  54.185  1.00  0.00     0.278 HD
HETATM    9  H   UNL     1      27.011  45.491  54.216  1.00  0.00     0.278 HD
HETATM   10  C   UNL     1      25.195  46.236  51.489  1.00  0.00    -0.026 A 
HETATM   11  C   UNL     1      24.692  44.944  51.230  1.00  0.00    -0.048 A 
HETATM   12  C   UNL     1      24.854  47.295  50.634  1.00  0.00     0.009 A 
HETATM   13  C   UNL     1      23.834  44.744  50.141  1.00  0.00     0.008 A 
HETATM   14  C   UNL     1      25.038  43.776  52.134  1.00  0.00     0.082 C 
HETATM   15  C   UNL     1      23.502  45.807  49.301  1.00  0.00     0.001 A 
HETATM   16  C   UNL     1      24.010  47.079  49.545  1.00  0.00     0.001 A 
ENDBRANCH   1   5
BRANCH   2  17
HETATM   17  C   UNL     1      29.266  44.024  53.830  1.00  0.00     0.708 A 
HETATM   18  N   UNL     1      28.955  45.050  54.592  1.00  0.00    -0.062 NA
HETATM   19  C   UNL     1      29.689  44.883  55.750  1.00  0.00     0.103 A 
HETATM   20  C   UNL     1      30.467  43.735  55.676  1.00  0.00     0.078 A 
HETATM   21  C   UNL     1      29.760  45.690  56.894  1.00  0.00     0.034 A 
HETATM   22  N   UNL     1      30.151  43.185  54.462  1.00  0.00    -0.188 N 
HETATM   23  C   UNL     1      31.345  43.336  56.685  1.00  0.00     0.032 A 
HETATM   24  H   UNL     1      30.540  42.331  54.088  1.00  0.00     0.184 HD
HETATM   25  C   UNL     1      31.415  44.160  57.813  1.00  0.00     0.002 A 
HETATM   26  C   UNL     1      30.635  45.314  57.920  1.00  0.00     0.002 A 
ENDBRANCH   2  17
TORSDOF 2
ENDMDL
MODEL 3
REMARK VINA RESULT:      -8.8      1.112      1.256
REMARK  2 active torsions:
REMARK  status: ('A' for Active; 'I' for Inactive)
REMARK    1  A    between atoms: C_9  and  C_10 
REMARK       I    between atoms: C_10  and  N_11 
REMARK    2  A    between atoms: N_11  and  C_12 
ROOT
HETATM    1  C   UNL     1      27.775  42.000  53.357  1.00  0.00     0.267 C 
HETATM    2  N   UNL     1      27.353  40.830  52.797  1.00  0.00    -0.156 N 
HETATM    3  O   UNL     1      27.311  42.262  54.471  1.00  0.00    -0.270 OA
HETATM    4  H   UNL     1      26.701  40.320  53.386  1.00  0.00     0.187 HD
ENDROOT
BRANCH   1   5
HETATM    5  C   UNL     1      28.823  42.932  52.693  1.00  0.00     0.282 C 
HETATM    6  N   UNL     1      28.458  44.396  52.605  1.00  0.00    -0.058 N 
HETATM    7  C   UNL     1      28.207  45.030  53.918  1.00  0.00     0.272 C 
HETATM    8  H   UNL     1      29.190  44.908  52.104  1.00  0.00     0.278 HD
HETATM    9  H   UNL     1      27.605  44.463  52.017  1.00  0.00     0.278 HD
HETATM   10  C   UNL     1      29.266  44.704  54.928  1.00  0.00    -0.026 A 
HETATM   11  C   UNL     1      30.185  43.655  54.716  1.00  0.00    -0.048 A 
HETATM   12  C   UNL     1      29.300  45.420  56.134  1.00  0.00     0.009 A 
HETATM   13  C   UNL     1      31.138  43.364  55.701  1.00  0.00     0.008 A 
HETATM   14  C   UNL     1      30.179  42.861  53.423  1.00  0.00     0.082 C 
HETATM   15  C   UNL     1      31.160  44.086  56.894  1.00  0.00     0.001 A 
HETATM   16  C   UNL     1      30.244  45.111  57.112  1.00  0.00     0.001 A 
ENDBRANCH   1   5
BRANCH   2  17
HETATM   17  C   UNL     1      27.675  40.320  51.573  1.00  0.00     0.708 A 
HETATM   18  N   UNL     1      26.982  40.398  50.457  1.00  0.00    -0.062 NA
HETATM   19  C   UNL     1      27.683  39.647  49.535  1.00  0.00     0.103 A 
HETATM   20  C   UNL     1      28.818  39.095  50.114  1.00  0.00     0.078 A 
HETATM   21  C   UNL     1      27.391  39.369  48.192  1.00  0.00     0.034 A 
HETATM   22  N   UNL     1      28.812  39.571  51.399  1.00  0.00    -0.188 N 
HETATM   23  C   UNL     1      29.696  38.252  49.431  1.00  0.00     0.032 A 
HETATM   24  H   UNL     1      29.508  39.364  52.102  1.00  0.00     0.184 HD
HETATM   25  C   UNL     1      29.384  37.974  48.097  1.00  0.00     0.002 A 
HETATM   26  C   UNL     1      28.254  38.525  47.485  1.00  0.00     0.002 A 
ENDBRANCH   2  17
TORSDOF 2
ENDMDL
MODEL 4
REMARK VINA RESULT:      -8.7      2.561      3.396
REMARK  2 active torsions:
REMARK  status: ('A' for Active; 'I' for Inactive)
REMARK    1  A    between atoms: C_9  and  C_10 
REMARK       I    between atoms: C_10  and  N_11 
REMARK    2  A    between atoms: N_11  and  C_12 
ROOT
HETATM    1  C   UNL     1      27.977  41.237  52.812  1.00  0.00     0.267 C 
HETATM    2  N   UNL     1      26.884  40.655  52.238  1.00  0.00    -0.156 N 
HETATM    3  O   UNL     1      28.281  40.821  53.934  1.00  0.00    -0.270 OA
HETATM    4  H   UNL     1      26.460  39.942  52.824  1.00  0.00     0.187 HD
ENDROOT
BRANCH   1   5
HETATM    5  C   UNL     1      28.845  42.307  52.097  1.00  0.00     0.282 C 
HETATM    6  N   UNL     1      28.175  43.630  51.810  1.00  0.00    -0.058 N 
HETATM    7  C   UNL     1      27.684  44.328  53.019  1.00  0.00     0.272 C 
HETATM    8  H   UNL     1      28.814  44.239  51.291  1.00  0.00     0.278 HD
HETATM    9  H   UNL     1      27.379  43.437  51.172  1.00  0.00     0.278 HD
HETATM   10  C   UNL     1      28.702  44.363  54.119  1.00  0.00    -0.026 A 
HETATM   11  C   UNL     1      29.844  43.534  54.088  1.00  0.00    -0.048 A 
HETATM   12  C   UNL     1      28.479  45.193  55.228  1.00  0.00     0.009 A 
HETATM   13  C   UNL     1      30.753  43.576  55.153  1.00  0.00     0.008 A 
HETATM   14  C   UNL     1      30.119  42.626  52.905  1.00  0.00     0.082 C 
HETATM   15  C   UNL     1      30.519  44.408  56.248  1.00  0.00     0.001 A 
HETATM   16  C   UNL     1      29.385  45.214  56.287  1.00  0.00     0.001 A 
ENDBRANCH   1   5
BRANCH   2  17
HETATM   17  C   UNL     1      26.312  40.946  51.033  1.00  0.00     0.708 A 
HETATM   18  N   UNL     1      25.603  42.006  50.711  1.00  0.00    -0.062 NA
HETATM   19  C   UNL     1      25.176  41.783  49.417  1.00  0.00     0.103 A 
HETATM   20  C   UNL     1      25.629  40.554  48.956  1.00  0.00     0.078 A 
HETATM   21  C   UNL     1      24.371  42.575  48.586  1.00  0.00     0.034 A 
HETATM   22  N   UNL     1      26.383  40.059  49.988  1.00  0.00    -0.188 N 
HETATM   23  C   UNL     1      25.315  40.042  47.696  1.00  0.00     0.032 A 
HETATM   24  H   UNL     1      26.868  39.173  49.985  1.00  0.00     0.184 HD
HETATM   25  C   UNL     1      24.501  40.839  46.885  1.00  0.00     0.002 A 
HETATM   26  C   UNL     1      24.039  42.085  47.317  1.00  0.00     0.002 A 
ENDBRANCH   2  17
TORSDOF 2
ENDMDL
MODEL 5
REMARK VINA RESULT:      -8.6      3.476      4.932
REMARK  2 active torsions:
REMARK  status: ('A' for Active; 'I' for Inactive)
REMARK    1  A    between atoms: C_9  and  C_10 
REMARK       I    between atoms: C_10  and  N_11 
REMARK    2  A    between atoms: N_11  and  C_12 
ROOT
HETATM    1  C   UNL     1      27.241  43.323  53.906  1.00  0.00     0.267 C 
HETATM    2  N   UNL     1      25.971  43.405  53.414  1.00  0.00    -0.156 N 
HETATM    3  O   UNL     1      27.412  42.514  54.823  1.00  0.00    -0.270 OA
HETATM    4  H   UNL     1      25.324  42.774  53.878  1.00  0.00     0.187 HD
ENDROOT
BRANCH   1   5
HETATM    5  C   UNL     1      28.432  44.131  53.325  1.00  0.00     0.282 C 
HETATM    6  N   UNL     1      28.445  45.612  53.623  1.00  0.00    -0.058 N 
HETATM    7  C   UNL     1      28.476  45.932  55.068  1.00  0.00     0.272 C 
HETATM    8  H   UNL     1      29.238  46.056  53.151  1.00  0.00     0.278 HD
HETATM    9  H   UNL     1      27.591  46.017  53.195  1.00  0.00     0.278 HD
HETATM   10  C   UNL     1      29.499  45.129  55.815  1.00  0.00    -0.026 A 
HETATM   11  C   UNL     1      30.099  43.989  55.241  1.00  0.00    -0.048 A 
HETATM   12  C   UNL     1      29.816  45.488  57.134  1.00  0.00     0.009 A 
HETATM   13  C   UNL     1      31.026  43.249  55.987  1.00  0.00     0.008 A 
HETATM   14  C   UNL     1      29.782  43.572  53.817  1.00  0.00     0.082 C 
HETATM   15  C   UNL     1      31.333  43.619  57.296  1.00  0.00     0.001 A 
HETATM   16  C   UNL     1      30.729  44.735  57.870  1.00  0.00     0.001 A 
ENDBRANCH   1   5
BRANCH   2  17
HETATM   17  C   UNL     1      25.500  44.232  52.436  1.00  0.00     0.708 A 
HETATM   18  N   UNL     1      25.644  45.536  52.343  1.00  0.00    -0.062 NA
HETATM   19  C   UNL     1      24.908  45.909  51.236  1.00  0.00     0.103 A 
HETATM   20  C   UNL     1      24.298  44.804  50.657  1.00  0.00     0.078 A 
HETATM   21  C   UNL     1      24.693  47.181  50.686  1.00  0.00     0.034 A 
HETATM   22  N   UNL     1      24.722  43.744  51.415  1.00  0.00    -0.188 N 
HETATM   23  C   UNL     1      23.455  44.885  49.548  1.00  0.00     0.032 A 
HETATM   24  H   UNL     1      24.466  42.779  51.264  1.00  0.00     0.184 HD
HETATM   25  C   UNL     1      23.241  46.162  49.019  1.00  0.00     0.002 A 
HETATM   26  C   UNL     1      23.850  47.290  49.573  1.00  0.00     0.002 A 
ENDBRANCH   2  17
TORSDOF 2
ENDMDL
MODEL 6
REMARK VINA RESULT:      -8.6     10.908     12.934
REMARK  2 active torsions:
REMARK  status: ('A' for Active; 'I' for Inactive)
REMARK    1  A    between atoms: C_9  and  C_10 
REMARK       I    between atoms: C_10  and  N_11 
REMARK    2  A    between atoms: N_11  and  C_12 
ROOT
HETATM    1  C   UNL     1      20.172  48.723  49.491  1.00  0.00     0.267 C 
HETATM    2  N   UNL     1      21.265  47.953  49.217  1.00  0.00    -0.156 N 
HETATM    3  O   UNL     1      19.082  48.144  49.451  1.00  0.00    -0.270 OA
HETATM    4  H   UNL     1      21.029  46.986  49.015  1.00  0.00     0.187 HD
ENDROOT
BRANCH   1   5
HETATM    5  C   UNL     1      20.264  50.218  49.897  1.00  0.00     0.282 C 
HETATM    6  N   UNL     1      20.855  51.156  48.871  1.00  0.00    -0.058 N 
HETATM    7  C   UNL     1      20.115  51.186  47.590  1.00  0.00     0.272 C 
HETATM    8  H   UNL     1      20.920  52.102  49.258  1.00  0.00     0.278 HD
HETATM    9  H   UNL     1      21.831  50.847  48.701  1.00  0.00     0.278 HD
HETATM   10  C   UNL     1      18.633  51.315  47.783  1.00  0.00    -0.026 A 
HETATM   11  C   UNL     1      18.035  51.095  49.041  1.00  0.00    -0.048 A 
HETATM   12  C   UNL     1      17.824  51.601  46.672  1.00  0.00     0.009 A 
HETATM   13  C   UNL     1      16.643  51.195  49.169  1.00  0.00     0.008 A 
HETATM   14  C   UNL     1      18.878  50.786  50.264  1.00  0.00     0.082 C 
HETATM   15  C   UNL     1      15.852  51.482  48.056  1.00  0.00     0.001 A 
HETATM   16  C   UNL     1      16.440  51.684  46.811  1.00  0.00     0.001 A 
ENDBRANCH   1   5
BRANCH   2  17
HETATM   17  C   UNL     1      22.572  48.342  49.156  1.00  0.00     0.708 A 
HETATM   18  N   UNL     1      23.104  49.269  48.390  1.00  0.00    -0.062 NA
HETATM   19  C   UNL     1      24.462  49.211  48.633  1.00  0.00     0.103 A 
HETATM   20  C   UNL     1      24.753  48.217  49.558  1.00  0.00     0.078 A 
HETATM   21  C   UNL     1      25.508  49.959  48.074  1.00  0.00     0.034 A 
HETATM   22  N   UNL     1      23.531  47.706  49.906  1.00  0.00    -0.188 N 
HETATM   23  C   UNL     1      26.051  47.901  49.963  1.00  0.00     0.032 A 
HETATM   24  H   UNL     1      23.377  46.960  50.569  1.00  0.00     0.184 HD
HETATM   25  C   UNL     1      27.084  48.648  49.387  1.00  0.00     0.002 A 
HETATM   26  C   UNL     1      26.820  49.661  48.462  1.00  0.00     0.002 A 
ENDBRANCH   2  17
TORSDOF 2
ENDMDL
MODEL 7
REMARK VINA RESULT:      -8.5      4.348      7.427
REMARK  2 active torsions:
REMARK  status: ('A' for Active; 'I' for Inactive)
REMARK    1  A    between atoms: C_9  and  C_10 
REMARK       I    between atoms: C_10  and  N_11 
REMARK    2  A    between atoms: N_11  and  C_12 
ROOT
HETATM    1  C   UNL     1      25.266  43.536  51.783  1.00  0.00     0.267 C 
HETATM    2  N   UNL     1      25.621  43.443  53.097  1.00  0.00    -0.156 N 
HETATM    3  O   UNL     1      24.101  43.227  51.516  1.00  0.00    -0.270 OA
HETATM    4  H   UNL     1      24.861  43.127  53.692  1.00  0.00     0.187 HD
ENDROOT
BRANCH   1   5
HETATM    5  C   UNL     1      26.222  44.060  50.678  1.00  0.00     0.282 C 
HETATM    6  N   UNL     1      25.921  43.616  49.265  1.00  0.00    -0.058 N 
HETATM    7  C   UNL     1      24.579  44.015  48.786  1.00  0.00     0.272 C 
HETATM    8  H   UNL     1      26.639  43.971  48.628  1.00  0.00     0.278 HD
HETATM    9  H   UNL     1      26.004  42.582  49.246  1.00  0.00     0.278 HD
HETATM   10  C   UNL     1      24.267  45.453  49.075  1.00  0.00    -0.026 A 
HETATM   11  C   UNL     1      25.041  46.204  49.985  1.00  0.00    -0.048 A 
HETATM   12  C   UNL     1      23.145  46.041  48.471  1.00  0.00     0.009 A 
HETATM   13  C   UNL     1      24.694  47.535  50.250  1.00  0.00     0.008 A 
HETATM   14  C   UNL     1      26.262  45.601  50.655  1.00  0.00     0.082 C 
HETATM   15  C   UNL     1      23.577  48.106  49.641  1.00  0.00     0.001 A 
HETATM   16  C   UNL     1      22.803  47.363  48.755  1.00  0.00     0.001 A 
ENDBRANCH   1   5
BRANCH   2  17
HETATM   17  C   UNL     1      26.841  43.686  53.657  1.00  0.00     0.708 A 
HETATM   18  N   UNL     1      27.865  42.866  53.749  1.00  0.00    -0.062 NA
HETATM   19  C   UNL     1      28.818  43.548  54.480  1.00  0.00     0.103 A 
HETATM   20  C   UNL     1      28.351  44.804  54.844  1.00  0.00     0.078 A 
HETATM   21  C   UNL     1      30.095  43.143  54.893  1.00  0.00     0.034 A 
HETATM   22  N   UNL     1      27.107  44.884  54.275  1.00  0.00    -0.188 N 
HETATM   23  C   UNL     1      29.082  45.699  55.625  1.00  0.00     0.032 A 
HETATM   24  H   UNL     1      26.483  45.676  54.341  1.00  0.00     0.184 HD
HETATM   25  C   UNL     1      30.349  45.275  56.041  1.00  0.00     0.002 A 
HETATM   26  C   UNL     1      30.850  44.021  55.680  1.00  0.00     0.002 A 
ENDBRANCH   2  17
TORSDOF 2
ENDMDL
MODEL 8
REMARK VINA RESULT:      -8.4      1.759      2.803
REMARK  2 active torsions:
REMARK  status: ('A' for Active; 'I' for Inactive)
REMARK    1  A    between atoms: C_9  and  C_10 
REMARK       I    between atoms: C_10  and  N_11 
REMARK    2  A    between atoms: N_11  and  C_12 
ROOT
HETATM    1  C   UNL     1      27.301  43.478  51.499  1.00  0.00     0.267 C 
HETATM    2  N   UNL     1      27.583  42.814  50.341  1.00  0.00    -0.156 N 
HETATM    3  O   UNL     1      27.424  44.706  51.460  1.00  0.00    -0.270 OA
HETATM    4  H   UNL     1      27.861  43.434  49.586  1.00  0.00     0.187 HD
ENDROOT
BRANCH   1   5
HETATM    5  C   UNL     1      26.788  42.771  52.782  1.00  0.00     0.282 C 
HETATM    6  N   UNL     1      27.588  41.580  53.256  1.00  0.00    -0.058 N 
HETATM    7  C   UNL     1      29.000  41.894  53.569  1.00  0.00     0.272 C 
HETATM    8  H   UNL     1      27.136  41.157  54.072  1.00  0.00     0.278 HD
HETATM    9  H   UNL     1      27.549  40.866  52.503  1.00  0.00     0.278 HD
HETATM   10  C   UNL     1      29.144  43.125  54.412  1.00  0.00    -0.026 A 
HETATM   11  C   UNL     1      28.074  44.029  54.581  1.00  0.00    -0.048 A 
HETATM   12  C   UNL     1      30.390  43.413  54.991  1.00  0.00     0.009 A 
HETATM   13  C   UNL     1      28.262  45.184  55.350  1.00  0.00     0.008 A 
HETATM   14  C   UNL     1      26.713  43.750  53.971  1.00  0.00     0.082 C 
HETATM   15  C   UNL     1      29.506  45.455  55.921  1.00  0.00     0.001 A 
HETATM   16  C   UNL     1      30.568  44.573  55.743  1.00  0.00     0.001 A 
ENDBRANCH   1   5
BRANCH   2  17
HETATM   17  C   UNL     1      27.564  41.468  50.119  1.00  0.00     0.708 A 
HETATM   18  N   UNL     1      26.525  40.708  49.849  1.00  0.00    -0.062 NA
HETATM   19  C   UNL     1      27.015  39.417  49.807  1.00  0.00     0.103 A 
HETATM   20  C   UNL     1      28.378  39.401  50.070  1.00  0.00     0.078 A 
HETATM   21  C   UNL     1      26.343  38.208  49.580  1.00  0.00     0.034 A 
HETATM   22  N   UNL     1      28.712  40.721  50.224  1.00  0.00    -0.188 N 
HETATM   23  C   UNL     1      29.134  38.230  50.137  1.00  0.00     0.032 A 
HETATM   24  H   UNL     1      29.639  41.070  50.425  1.00  0.00     0.184 HD
HETATM   25  C   UNL     1      28.447  37.031  49.921  1.00  0.00     0.002 A 
HETATM   26  C   UNL     1      27.077  37.017  49.643  1.00  0.00     0.002 A 
ENDBRANCH   2  17
TORSDOF 2
ENDMDL
MODEL 9
REMARK VINA RESULT:      -8.4      3.361      7.551
REMARK  2 active torsions:
REMARK  status: ('A' for Active; 'I' for Inactive)
REMARK    1  A    between atoms: C_9  and  C_10 
REMARK       I    between atoms: C_10  and  N_11 
REMARK    2  A    between atoms: N_11  and  C_12 
ROOT
HETATM    1  C   UNL     1      25.173  44.488  52.059  1.00  0.00     0.267 C 
HETATM    2  N   UNL     1      25.558  44.398  53.365  1.00  0.00    -0.156 N 
HETATM    3  O   UNL     1      23.956  44.499  51.856  1.00  0.00    -0.270 OA
HETATM    4  H   UNL     1      24.773  44.352  54.008  1.00  0.00     0.187 HD
ENDROOT
BRANCH   1   5
HETATM    5  C   UNL     1      26.178  44.639  50.885  1.00  0.00     0.282 C 
HETATM    6  N   UNL     1      27.161  43.507  50.696  1.00  0.00    -0.058 N 
HETATM    7  C   UNL     1      26.525  42.195  50.446  1.00  0.00     0.272 C 
HETATM    8  H   UNL     1      27.808  43.732  49.934  1.00  0.00     0.278 HD
HETATM    9  H   UNL     1      27.737  43.457  51.558  1.00  0.00     0.278 HD
HETATM   10  C   UNL     1      25.440  42.267  49.413  1.00  0.00    -0.026 A 
HETATM   11  C   UNL     1      24.900  43.503  49.001  1.00  0.00    -0.048 A 
HETATM   12  C   UNL     1      24.914  41.074  48.894  1.00  0.00     0.009 A 
HETATM   13  C   UNL     1      23.865  43.522  48.057  1.00  0.00     0.008 A 
HETATM   14  C   UNL     1      25.445  44.813  49.539  1.00  0.00     0.082 C 
HETATM   15  C   UNL     1      23.354  42.328  47.548  1.00  0.00     0.001 A 
HETATM   16  C   UNL     1      23.875  41.107  47.965  1.00  0.00     0.001 A 
ENDBRANCH   1   5
BRANCH   2  17
HETATM   17  C   UNL     1      26.826  44.330  53.865  1.00  0.00     0.708 A 
HETATM   18  N   UNL     1      27.661  43.314  53.814  1.00  0.00    -0.062 NA
HETATM   19  C   UNL     1      28.766  43.711  54.541  1.00  0.00     0.103 A 
HETATM   20  C   UNL     1      28.585  44.990  55.050  1.00  0.00     0.078 A 
HETATM   21  C   UNL     1      29.948  43.015  54.832  1.00  0.00     0.034 A 
HETATM   22  N   UNL     1      27.361  45.378  54.573  1.00  0.00    -0.188 N 
HETATM   23  C   UNL     1      29.521  45.633  55.862  1.00  0.00     0.032 A 
HETATM   24  H   UNL     1      26.919  46.268  54.753  1.00  0.00     0.184 HD
HETATM   25  C   UNL     1      30.689  44.920  56.153  1.00  0.00     0.002 A 
HETATM   26  C   UNL     1      30.903  43.636  55.646  1.00  0.00     0.002 A 
ENDBRANCH   2  17
TORSDOF 2
ENDMDL
MODEL 10
REMARK VINA RESULT:      -8.4      4.711      7.795
REMARK  2 active torsions:
REMARK  status: ('A' for Active; 'I' for Inactive)
REMARK    1  A    between atoms: C_9  and  C_10 
REMARK       I    between atoms: C_10  and  N_11 
REMARK    2  A    between atoms: N_11  and  C_12 
ROOT
HETATM    1  C   UNL     1      25.911  47.065  52.803  1.00  0.00     0.267 C 
HETATM    2  N   UNL     1      26.366  46.739  54.048  1.00  0.00    -0.156 N 
HETATM    3  O   UNL     1      24.869  47.726  52.767  1.00  0.00    -0.270 OA
HETATM    4  H   UNL     1      25.774  47.094  54.792  1.00  0.00     0.187 HD
ENDROOT
BRANCH   1   5
HETATM    5  C   UNL     1      26.669  46.702  51.498  1.00  0.00     0.282 C 
HETATM    6  N   UNL     1      26.307  45.382  50.858  1.00  0.00    -0.058 N 
HETATM    7  C   UNL     1      24.881  45.272  50.478  1.00  0.00     0.272 C 
HETATM    8  H   UNL     1      26.900  45.217  50.040  1.00  0.00     0.278 HD
HETATM    9  H   UNL     1      26.543  44.637  51.541  1.00  0.00     0.278 HD
HETATM   10  C   UNL     1      24.384  46.484  49.748  1.00  0.00    -0.026 A 
HETATM   11  C   UNL     1      25.117  47.689  49.741  1.00  0.00    -0.048 A 
HETATM   12  C   UNL     1      23.134  46.431  49.112  1.00  0.00     0.009 A 
HETATM   13  C   UNL     1      24.600  48.807  49.074  1.00  0.00     0.008 A 
HETATM   14  C   UNL     1      26.473  47.783  50.416  1.00  0.00     0.082 C 
HETATM   15  C   UNL     1      23.357  48.739  48.445  1.00  0.00     0.001 A 
HETATM   16  C   UNL     1      22.624  47.555  48.464  1.00  0.00     0.001 A 
ENDBRANCH   1   5
BRANCH   2  17
HETATM   17  C   UNL     1      27.461  45.992  54.373  1.00  0.00     0.708 A 
HETATM   18  N   UNL     1      27.787  44.799  53.924  1.00  0.00    -0.062 NA
HETATM   19  C   UNL     1      28.921  44.440  54.626  1.00  0.00     0.103 A 
HETATM   20  C   UNL     1      29.277  45.436  55.526  1.00  0.00     0.078 A 
HETATM   21  C   UNL     1      29.681  43.263  54.565  1.00  0.00     0.034 A 
HETATM   22  N   UNL     1      28.356  46.429  55.318  1.00  0.00    -0.188 N 
HETATM   23  C   UNL     1      30.358  45.329  56.402  1.00  0.00     0.032 A 
HETATM   24  H   UNL     1      28.326  47.310  55.811  1.00  0.00     0.184 HD
HETATM   25  C   UNL     1      31.098  44.144  56.339  1.00  0.00     0.002 A 
HETATM   26  C   UNL     1      30.770  43.130  55.435  1.00  0.00     0.002 A 
ENDBRANCH   2  17
TORSDOF 2
ENDMDL
