MODEL 1
REMARK VINA RESULT:      -8.6      0.000      0.000
REMARK  8 active torsions:
REMARK  status: ('A' for Active; 'I' for Inactive)
REMARK    1  A    between atoms: C_2  and  N_3 
REMARK    2  A    between atoms: N_7  and  C_8 
REMARK    3  A    between atoms: C_11  and  N_12 
REMARK       I    between atoms: N_12  and  C_13 
REMARK    4  A    between atoms: C_13  and  C_14 
REMARK    5  A    between atoms: C_17  and  N_18 
REMARK       I    between atoms: N_18  and  C_19 
REMARK    6  A    between atoms: C_19  and  C_20 
REMARK    7  A    between atoms: C_20  and  S_21 
REMARK    8  A    between atoms: S_21  and  C_22 
ROOT
HETATM    1  N   UNL     1      22.139  47.997  49.389  1.00  0.00    -0.323 N 
HETATM    2  C   UNL     1      21.999  49.078  48.537  1.00  0.00     0.256 C 
HETATM    3  O   UNL     1      22.680  49.332  47.553  1.00  0.00    -0.267 OA
HETATM    4  H   UNL     1      21.388  47.844  50.052  1.00  0.00     0.169 HD
ENDROOT
BRANCH   2   5
HETATM    5  C   UNL     1      20.833  49.945  48.861  1.00  0.00     0.032 A 
HETATM    6  C   UNL     1      20.679  51.196  48.255  1.00  0.00     0.019 A 
HETATM    7  C   UNL     1      19.635  52.039  48.644  1.00  0.00     0.030 A 
HETATM    8  C   UNL     1      18.733  51.645  49.636  1.00  0.00     0.034 A 
HETATM    9  C   UNL     1      18.856  50.363  50.191  1.00  0.00     0.030 A 
HETATM   10  C   UNL     1      19.899  49.514  49.805  1.00  0.00     0.019 A 
BRANCH   8  11
HETATM   11  N   UNL     1      17.713  52.475  50.140  1.00  0.00    -0.327 N 
HETATM   12  C   UNL     1      16.386  52.520  49.734  1.00  0.00     0.231 C 
HETATM   13  O   UNL     1      15.854  51.757  48.931  1.00  0.00    -0.272 OA
HETATM   14  H   UNL     1      18.002  53.207  50.780  1.00  0.00     0.169 HD
BRANCH  12  15
HETATM   15  C   UNL     1      15.588  53.631  50.398  1.00  0.00     0.185 C 
BRANCH  15  16
HETATM   16  S   UNL     1      14.279  54.204  49.267  1.00  0.00    -0.083 SA
BRANCH  16  17
HETATM   17  C   UNL     1      13.350  55.178  50.352  1.00  0.00     0.168 A 
HETATM   18  N   UNL     1      13.715  56.447  50.716  1.00  0.00    -0.339 N 
HETATM   19  C   UNL     1      14.893  57.174  50.310  1.00  0.00     0.158 C 
HETATM   20  C   UNL     1      12.741  56.924  51.553  1.00  0.00     0.112 A 
HETATM   21  C   UNL     1      11.828  55.900  51.660  1.00  0.00     0.136 A 
HETATM   22  N   UNL     1      12.221  54.818  50.916  1.00  0.00    -0.235 NA
ENDBRANCH  16  17
ENDBRANCH  15  16
ENDBRANCH  12  15
ENDBRANCH   8  11
ENDBRANCH   2   5
BRANCH   1  23
HETATM   23  C   UNL     1      23.159  47.028  49.386  1.00  0.00     0.035 A 
HETATM   24  C   UNL     1      23.046  45.777  48.790  1.00  0.00     0.032 A 
HETATM   25  C   UNL     1      24.123  44.876  48.810  1.00  0.00     0.031 A 
HETATM   26  C   UNL     1      25.334  45.183  49.445  1.00  0.00     0.030 A 
HETATM   27  C   UNL     1      25.429  46.457  50.025  1.00  0.00     0.031 A 
HETATM   28  C   UNL     1      24.365  47.367  49.997  1.00  0.00     0.032 A 
BRANCH  26  29
HETATM   29  N   UNL     1      26.427  44.318  49.486  1.00  0.00    -0.378 N 
HETATM   30  C   UNL     1      26.232  42.859  49.462  1.00  0.00     0.150 C 
HETATM   31  C   UNL     1      26.210  42.263  50.885  1.00  0.00     0.254 C 
HETATM   32  N   UNL     1      27.463  42.685  51.669  1.00  0.00    -0.068 N 
HETATM   33  H   UNL     1      28.270  42.328  51.141  1.00  0.00     0.280 HD
HETATM   34  C   UNL     1      27.576  44.215  51.689  1.00  0.00     0.254 C 
HETATM   35  C   UNL     1      27.607  44.773  50.249  1.00  0.00     0.150 C 
BRANCH  32  36
HETATM   36  C   UNL     1      27.482  42.059  53.041  1.00  0.00     0.230 C 
HETATM   37  C   UNL     1      28.487  40.924  53.103  1.00  0.00     0.034 C 
ENDBRANCH  32  36
ENDBRANCH  26  29
ENDBRANCH   1  23
TORSDOF 8
ENDMDL
MODEL 2
REMARK VINA RESULT:      -8.6      3.813      5.130
REMARK  8 active torsions:
REMARK  status: ('A' for Active; 'I' for Inactive)
REMARK    1  A    between atoms: C_2  and  N_3 
REMARK    2  A    between atoms: N_7  and  C_8 
REMARK    3  A    between atoms: C_11  and  N_12 
REMARK       I    between atoms: N_12  and  C_13 
REMARK    4  A    between atoms: C_13  and  C_14 
REMARK    5  A    between atoms: C_17  and  N_18 
REMARK       I    between atoms: N_18  and  C_19 
REMARK    6  A    between atoms: C_19  and  C_20 
REMARK    7  A    between atoms: C_20  and  S_21 
REMARK    8  A    between atoms: S_21  and  C_22 
ROOT
HETATM    1  N   UNL     1      24.430  46.596  49.858  1.00  0.00    -0.323 N 
HETATM    2  C   UNL     1      24.761  47.921  49.638  1.00  0.00     0.256 C 
HETATM    3  O   UNL     1      25.842  48.454  49.844  1.00  0.00    -0.267 OA
HETATM    4  H   UNL     1      23.547  46.281  49.474  1.00  0.00     0.169 HD
ENDROOT
BRANCH   2   5
HETATM    5  C   UNL     1      23.666  48.713  49.014  1.00  0.00     0.032 A 
HETATM    6  C   UNL     1      23.860  50.053  48.661  1.00  0.00     0.019 A 
HETATM    7  C   UNL     1      22.792  50.809  48.169  1.00  0.00     0.030 A 
HETATM    8  C   UNL     1      21.525  50.240  48.020  1.00  0.00     0.034 A 
HETATM    9  C   UNL     1      21.356  48.879  48.314  1.00  0.00     0.030 A 
HETATM   10  C   UNL     1      22.420  48.116  48.806  1.00  0.00     0.019 A 
BRANCH   8  11
HETATM   11  N   UNL     1      20.386  50.963  47.616  1.00  0.00    -0.327 N 
HETATM   12  C   UNL     1      19.430  51.551  48.433  1.00  0.00     0.231 C 
HETATM   13  O   UNL     1      19.480  51.629  49.658  1.00  0.00    -0.272 OA
HETATM   14  H   UNL     1      20.169  50.948  46.625  1.00  0.00     0.169 HD
BRANCH  12  15
HETATM   15  C   UNL     1      18.257  52.139  47.664  1.00  0.00     0.185 C 
BRANCH  15  16
HETATM   16  S   UNL     1      17.918  51.118  46.193  1.00  0.00    -0.083 SA
BRANCH  16  17
HETATM   17  C   UNL     1      17.113  49.779  46.934  1.00  0.00     0.168 A 
HETATM   18  N   UNL     1      17.504  48.479  46.754  1.00  0.00    -0.339 N 
HETATM   19  C   UNL     1      18.589  47.992  45.938  1.00  0.00     0.158 C 
HETATM   20  C   UNL     1      16.667  47.697  47.507  1.00  0.00     0.112 A 
HETATM   21  C   UNL     1      15.795  48.578  48.105  1.00  0.00     0.136 A 
HETATM   22  N   UNL     1      16.077  49.868  47.735  1.00  0.00    -0.235 NA
ENDBRANCH  16  17
ENDBRANCH  15  16
ENDBRANCH  12  15
ENDBRANCH   8  11
ENDBRANCH   2   5
BRANCH   1  23
HETATM   23  C   UNL     1      25.217  45.606  50.476  1.00  0.00     0.035 A 
HETATM   24  C   UNL     1      26.289  44.966  49.864  1.00  0.00     0.032 A 
HETATM   25  C   UNL     1      27.040  44.005  50.560  1.00  0.00     0.031 A 
HETATM   26  C   UNL     1      26.731  43.635  51.876  1.00  0.00     0.030 A 
HETATM   27  C   UNL     1      25.654  44.307  52.477  1.00  0.00     0.031 A 
HETATM   28  C   UNL     1      24.910  45.276  51.795  1.00  0.00     0.032 A 
BRANCH  26  29
HETATM   29  N   UNL     1      27.451  42.688  52.603  1.00  0.00    -0.378 N 
HETATM   30  C   UNL     1      27.304  42.593  54.064  1.00  0.00     0.150 C 
HETATM   31  C   UNL     1      28.390  43.404  54.801  1.00  0.00     0.254 C 
HETATM   32  N   UNL     1      29.791  43.001  54.315  1.00  0.00    -0.068 N 
HETATM   33  H   UNL     1      29.892  41.998  54.517  1.00  0.00     0.280 HD
HETATM   34  C   UNL     1      29.883  43.168  52.792  1.00  0.00     0.254 C 
HETATM   35  C   UNL     1      28.790  42.333  52.091  1.00  0.00     0.150 C 
BRANCH  32  36
HETATM   36  C   UNL     1      30.864  43.745  55.071  1.00  0.00     0.230 C 
HETATM   37  C   UNL     1      31.061  43.151  56.453  1.00  0.00     0.034 C 
ENDBRANCH  32  36
ENDBRANCH  26  29
ENDBRANCH   1  23
TORSDOF 8
ENDMDL
MODEL 3
REMARK VINA RESULT:      -8.5      4.756     13.243
REMARK  8 active torsions:
REMARK  status: ('A' for Active; 'I' for Inactive)
REMARK    1  A    between atoms: C_2  and  N_3 
REMARK    2  A    between atoms: N_7  and  C_8 
REMARK    3  A    between atoms: C_11  and  N_12 
REMARK       I    between atoms: N_12  and  C_13 
REMARK    4  A    between atoms: C_13  and  C_14 
REMARK    5  A    between atoms: C_17  and  N_18 
REMARK       I    between atoms: N_18  and  C_19 
REMARK    6  A    between atoms: C_19  and  C_20 
REMARK    7  A    between atoms: C_20  and  S_21 
REMARK    8  A    between atoms: S_21  and  C_22 
ROOT
HETATM    1  N   UNL     1      22.137  48.289  49.565  1.00  0.00    -0.323 N 
HETATM    2  C   UNL     1      23.416  48.153  49.057  1.00  0.00     0.256 C 
HETATM    3  O   UNL     1      23.913  48.783  48.134  1.00  0.00    -0.267 OA
HETATM    4  H   UNL     1      21.945  47.813  50.438  1.00  0.00     0.169 HD
ENDROOT
BRANCH   2   5
HETATM    5  C   UNL     1      24.253  47.175  49.805  1.00  0.00     0.032 A 
HETATM    6  C   UNL     1      23.925  45.815  49.823  1.00  0.00     0.019 A 
HETATM    7  C   UNL     1      24.663  44.927  50.610  1.00  0.00     0.030 A 
HETATM    8  C   UNL     1      25.734  45.381  51.383  1.00  0.00     0.034 A 
HETATM    9  C   UNL     1      26.097  46.733  51.309  1.00  0.00     0.030 A 
HETATM   10  C   UNL     1      25.363  47.628  50.521  1.00  0.00     0.019 A 
BRANCH   8  11
HETATM   11  N   UNL     1      26.463  44.562  52.267  1.00  0.00    -0.327 N 
HETATM   12  C   UNL     1      26.066  44.112  53.519  1.00  0.00     0.231 C 
HETATM   13  O   UNL     1      24.956  44.270  54.021  1.00  0.00    -0.272 OA
HETATM   14  H   UNL     1      27.431  44.382  52.022  1.00  0.00     0.169 HD
BRANCH  12  15
HETATM   15  C   UNL     1      27.155  43.355  54.263  1.00  0.00     0.185 C 
BRANCH  15  16
HETATM   16  S   UNL     1      28.775  43.717  53.509  1.00  0.00    -0.083 SA
BRANCH  16  17
HETATM   17  C   UNL     1      29.676  44.142  54.923  1.00  0.00     0.168 A 
HETATM   18  N   UNL     1      29.530  45.340  55.571  1.00  0.00    -0.339 N 
HETATM   19  C   UNL     1      28.661  46.434  55.211  1.00  0.00     0.158 C 
HETATM   20  C   UNL     1      30.369  45.320  56.653  1.00  0.00     0.112 A 
HETATM   21  C   UNL     1      30.996  44.096  56.597  1.00  0.00     0.136 A 
HETATM   22  N   UNL     1      30.564  43.376  55.513  1.00  0.00    -0.235 NA
ENDBRANCH  16  17
ENDBRANCH  15  16
ENDBRANCH  12  15
ENDBRANCH   8  11
ENDBRANCH   2   5
BRANCH   1  23
HETATM   23  C   UNL     1      21.093  49.085  49.059  1.00  0.00     0.035 A 
HETATM   24  C   UNL     1      20.048  48.599  48.281  1.00  0.00     0.032 A 
HETATM   25  C   UNL     1      19.029  49.458  47.836  1.00  0.00     0.031 A 
HETATM   26  C   UNL     1      19.035  50.828  48.131  1.00  0.00     0.030 A 
HETATM   27  C   UNL     1      20.092  51.291  48.930  1.00  0.00     0.031 A 
HETATM   28  C   UNL     1      21.103  50.439  49.390  1.00  0.00     0.032 A 
BRANCH  26  29
HETATM   29  N   UNL     1      18.043  51.714  47.710  1.00  0.00    -0.378 N 
HETATM   30  C   UNL     1      16.752  51.784  48.413  1.00  0.00     0.150 C 
HETATM   31  C   UNL     1      15.687  50.894  47.741  1.00  0.00     0.254 C 
HETATM   32  N   UNL     1      15.570  51.225  46.245  1.00  0.00    -0.068 N 
HETATM   33  H   UNL     1      15.300  52.216  46.186  1.00  0.00     0.280 HD
HETATM   34  C   UNL     1      16.942  51.088  45.571  1.00  0.00     0.254 C 
HETATM   35  C   UNL     1      17.977  52.002  46.263  1.00  0.00     0.150 C 
BRANCH  32  36
HETATM   36  C   UNL     1      14.489  50.402  45.589  1.00  0.00     0.230 C 
HETATM   37  C   UNL     1      14.874  48.935  45.552  1.00  0.00     0.034 C 
ENDBRANCH  32  36
ENDBRANCH  26  29
ENDBRANCH   1  23
TORSDOF 8
ENDMDL
MODEL 4
REMARK VINA RESULT:      -8.4      2.935     14.066
REMARK  8 active torsions:
REMARK  status: ('A' for Active; 'I' for Inactive)
REMARK    1  A    between atoms: C_2  and  N_3 
REMARK    2  A    between atoms: N_7  and  C_8 
REMARK    3  A    between atoms: C_11  and  N_12 
REMARK       I    between atoms: N_12  and  C_13 
REMARK    4  A    between atoms: C_13  and  C_14 
REMARK    5  A    between atoms: C_17  and  N_18 
REMARK       I    between atoms: N_18  and  C_19 
REMARK    6  A    between atoms: C_19  and  C_20 
REMARK    7  A    between atoms: C_20  and  S_21 
REMARK    8  A    between atoms: S_21  and  C_22 
ROOT
HETATM    1  N   UNL     1      16.832  52.951  50.075  1.00  0.00    -0.323 N 
HETATM    2  C   UNL     1      17.150  52.206  48.954  1.00  0.00     0.256 C 
HETATM    3  O   UNL     1      16.522  52.147  47.906  1.00  0.00    -0.267 OA
HETATM    4  H   UNL     1      17.547  53.020  50.789  1.00  0.00     0.169 HD
ENDROOT
BRANCH   2   5
HETATM    5  C   UNL     1      18.445  51.480  49.068  1.00  0.00     0.032 A 
HETATM    6  C   UNL     1      18.521  50.247  49.723  1.00  0.00     0.019 A 
HETATM    7  C   UNL     1      19.760  49.628  49.909  1.00  0.00     0.030 A 
HETATM    8  C   UNL     1      20.933  50.227  49.443  1.00  0.00     0.034 A 
HETATM    9  C   UNL     1      20.840  51.432  48.731  1.00  0.00     0.030 A 
HETATM   10  C   UNL     1      19.603  52.057  48.541  1.00  0.00     0.019 A 
BRANCH   8  11
HETATM   11  N   UNL     1      22.222  49.707  49.672  1.00  0.00    -0.327 N 
HETATM   12  C   UNL     1      22.954  48.873  48.837  1.00  0.00     0.231 C 
HETATM   13  O   UNL     1      22.636  48.537  47.699  1.00  0.00    -0.272 OA
HETATM   14  H   UNL     1      22.609  49.850  50.599  1.00  0.00     0.169 HD
BRANCH  12  15
HETATM   15  C   UNL     1      24.256  48.390  49.456  1.00  0.00     0.185 C 
BRANCH  15  16
HETATM   16  S   UNL     1      24.179  46.587  49.711  1.00  0.00    -0.083 SA
BRANCH  16  17
HETATM   17  C   UNL     1      24.888  46.476  51.285  1.00  0.00     0.168 A 
HETATM   18  N   UNL     1      25.113  45.283  51.920  1.00  0.00    -0.339 N 
HETATM   19  C   UNL     1      24.802  43.959  51.442  1.00  0.00     0.158 C 
HETATM   20  C   UNL     1      25.707  45.571  53.121  1.00  0.00     0.112 A 
HETATM   21  C   UNL     1      25.803  46.944  53.154  1.00  0.00     0.136 A 
HETATM   22  N   UNL     1      25.283  47.495  52.011  1.00  0.00    -0.235 NA
ENDBRANCH  16  17
ENDBRANCH  15  16
ENDBRANCH  12  15
ENDBRANCH   8  11
ENDBRANCH   2   5
BRANCH   1  23
HETATM   23  C   UNL     1      15.664  53.702  50.304  1.00  0.00     0.035 A 
HETATM   24  C   UNL     1      14.432  53.147  50.634  1.00  0.00     0.032 A 
HETATM   25  C   UNL     1      13.319  53.970  50.871  1.00  0.00     0.031 A 
HETATM   26  C   UNL     1      13.393  55.365  50.763  1.00  0.00     0.030 A 
HETATM   27  C   UNL     1      14.650  55.901  50.445  1.00  0.00     0.031 A 
HETATM   28  C   UNL     1      15.769  55.089  50.221  1.00  0.00     0.032 A 
BRANCH  26  29
HETATM   29  N   UNL     1      12.313  56.218  50.992  1.00  0.00    -0.378 N 
HETATM   30  C   UNL     1      12.278  57.562  50.395  1.00  0.00     0.150 C 
HETATM   31  C   UNL     1      12.820  58.632  51.366  1.00  0.00     0.254 C 
HETATM   32  N   UNL     1      12.087  58.559  52.715  1.00  0.00    -0.068 N 
HETATM   33  H   UNL     1      11.092  58.725  52.516  1.00  0.00     0.280 HD
HETATM   34  C   UNL     1      12.204  57.144  53.297  1.00  0.00     0.254 C 
HETATM   35  C   UNL     1      11.642  56.104  52.303  1.00  0.00     0.150 C 
BRANCH  32  36
HETATM   36  C   UNL     1      12.566  59.640  53.653  1.00  0.00     0.230 C 
HETATM   37  C   UNL     1      14.080  59.737  53.637  1.00  0.00     0.034 C 
ENDBRANCH  32  36
ENDBRANCH  26  29
ENDBRANCH   1  23
TORSDOF 8
ENDMDL
MODEL 5
REMARK VINA RESULT:      -8.1      4.406     13.275
REMARK  8 active torsions:
REMARK  status: ('A' for Active; 'I' for Inactive)
REMARK    1  A    between atoms: C_2  and  N_3 
REMARK    2  A    between atoms: N_7  and  C_8 
REMARK    3  A    between atoms: C_11  and  N_12 
REMARK       I    between atoms: N_12  and  C_13 
REMARK    4  A    between atoms: C_13  and  C_14 
REMARK    5  A    between atoms: C_17  and  N_18 
REMARK       I    between atoms: N_18  and  C_19 
REMARK    6  A    between atoms: C_19  and  C_20 
REMARK    7  A    between atoms: C_20  and  S_21 
REMARK    8  A    between atoms: S_21  and  C_22 
ROOT
HETATM    1  N   UNL     1      22.464  47.476  49.424  1.00  0.00    -0.323 N 
HETATM    2  C   UNL     1      22.741  46.224  48.905  1.00  0.00     0.256 C 
HETATM    3  O   UNL     1      22.337  45.760  47.848  1.00  0.00    -0.267 OA
HETATM    4  H   UNL     1      23.015  47.765  50.224  1.00  0.00     0.169 HD
ENDROOT
BRANCH   2   5
HETATM    5  C   UNL     1      23.697  45.435  49.729  1.00  0.00     0.032 A 
HETATM    6  C   UNL     1      23.511  44.063  49.927  1.00  0.00     0.019 A 
HETATM    7  C   UNL     1      24.360  43.357  50.784  1.00  0.00     0.030 A 
HETATM    8  C   UNL     1      25.402  44.009  51.449  1.00  0.00     0.034 A 
HETATM    9  C   UNL     1      25.621  45.370  51.195  1.00  0.00     0.030 A 
HETATM   10  C   UNL     1      24.775  46.082  50.336  1.00  0.00     0.019 A 
BRANCH   8  11
HETATM   11  N   UNL     1      26.239  43.383  52.394  1.00  0.00    -0.327 N 
HETATM   12  C   UNL     1      27.333  42.567  52.139  1.00  0.00     0.231 C 
HETATM   13  O   UNL     1      27.820  42.341  51.034  1.00  0.00    -0.272 OA
HETATM   14  H   UNL     1      25.939  43.427  53.362  1.00  0.00     0.169 HD
BRANCH  12  15
HETATM   15  C   UNL     1      27.930  41.947  53.393  1.00  0.00     0.185 C 
BRANCH  15  16
HETATM   16  S   UNL     1      29.571  42.672  53.712  1.00  0.00    -0.083 SA
BRANCH  16  17
HETATM   17  C   UNL     1      29.105  44.114  54.545  1.00  0.00     0.168 A 
HETATM   18  N   UNL     1      29.844  44.662  55.561  1.00  0.00    -0.339 N 
HETATM   19  C   UNL     1      31.075  44.162  56.121  1.00  0.00     0.158 C 
HETATM   20  C   UNL     1      29.198  45.802  55.961  1.00  0.00     0.112 A 
HETATM   21  C   UNL     1      28.080  45.880  55.161  1.00  0.00     0.136 A 
HETATM   22  N   UNL     1      28.030  44.822  54.291  1.00  0.00    -0.235 NA
ENDBRANCH  16  17
ENDBRANCH  15  16
ENDBRANCH  12  15
ENDBRANCH   8  11
ENDBRANCH   2   5
BRANCH   1  23
HETATM   23  C   UNL     1      21.568  48.436  48.918  1.00  0.00     0.035 A 
HETATM   24  C   UNL     1      21.944  49.507  48.116  1.00  0.00     0.032 A 
HETATM   25  C   UNL     1      20.982  50.409  47.631  1.00  0.00     0.031 A 
HETATM   26  C   UNL     1      19.623  50.284  47.950  1.00  0.00     0.030 A 
HETATM   27  C   UNL     1      19.267  49.186  48.749  1.00  0.00     0.031 A 
HETATM   28  C   UNL     1      20.218  48.275  49.224  1.00  0.00     0.032 A 
BRANCH  26  29
HETATM   29  N   UNL     1      18.637  51.155  47.489  1.00  0.00    -0.378 N 
HETATM   30  C   UNL     1      18.603  52.557  47.935  1.00  0.00     0.150 C 
HETATM   31  C   UNL     1      17.655  52.751  49.136  1.00  0.00     0.254 C 
HETATM   32  N   UNL     1      16.259  52.192  48.820  1.00  0.00    -0.068 N 
HETATM   33  H   UNL     1      15.915  52.713  48.003  1.00  0.00     0.280 HD
HETATM   34  C   UNL     1      16.367  50.718  48.406  1.00  0.00     0.254 C 
HETATM   35  C   UNL     1      17.314  50.567  47.195  1.00  0.00     0.150 C 
BRANCH  32  36
HETATM   36  C   UNL     1      15.306  52.430  49.965  1.00  0.00     0.230 C 
HETATM   37  C   UNL     1      14.373  53.587  49.660  1.00  0.00     0.034 C 
ENDBRANCH  32  36
ENDBRANCH  26  29
ENDBRANCH   1  23
TORSDOF 8
ENDMDL
MODEL 6
REMARK VINA RESULT:      -8.1      4.512     13.054
REMARK  8 active torsions:
REMARK  status: ('A' for Active; 'I' for Inactive)
REMARK    1  A    between atoms: C_2  and  N_3 
REMARK    2  A    between atoms: N_7  and  C_8 
REMARK    3  A    between atoms: C_11  and  N_12 
REMARK       I    between atoms: N_12  and  C_13 
REMARK    4  A    between atoms: C_13  and  C_14 
REMARK    5  A    between atoms: C_17  and  N_18 
REMARK       I    between atoms: N_18  and  C_19 
REMARK    6  A    between atoms: C_19  and  C_20 
REMARK    7  A    between atoms: C_20  and  S_21 
REMARK    8  A    between atoms: S_21  and  C_22 
ROOT
HETATM    1  N   UNL     1      21.108  48.054  49.474  1.00  0.00    -0.323 N 
HETATM    2  C   UNL     1      22.218  48.072  48.649  1.00  0.00     0.256 C 
HETATM    3  O   UNL     1      22.339  48.671  47.590  1.00  0.00    -0.267 OA
HETATM    4  H   UNL     1      21.235  47.648  50.393  1.00  0.00     0.169 HD
ENDROOT
BRANCH   2   5
HETATM    5  C   UNL     1      23.382  47.324  49.200  1.00  0.00     0.032 A 
HETATM    6  C   UNL     1      23.368  45.928  49.275  1.00  0.00     0.019 A 
HETATM    7  C   UNL     1      24.426  45.249  49.886  1.00  0.00     0.030 A 
HETATM    8  C   UNL     1      25.508  45.951  50.424  1.00  0.00     0.034 A 
HETATM    9  C   UNL     1      25.544  47.346  50.286  1.00  0.00     0.030 A 
HETATM   10  C   UNL     1      24.489  48.032  49.674  1.00  0.00     0.019 A 
BRANCH   8  11
HETATM   11  N   UNL     1      26.562  45.342  51.131  1.00  0.00    -0.327 N 
HETATM   12  C   UNL     1      27.316  44.244  50.736  1.00  0.00     0.231 C 
HETATM   13  O   UNL     1      27.257  43.686  49.643  1.00  0.00    -0.272 OA
HETATM   14  H   UNL     1      26.707  45.654  52.085  1.00  0.00     0.169 HD
BRANCH  12  15
HETATM   15  C   UNL     1      28.287  43.763  51.803  1.00  0.00     0.185 C 
BRANCH  15  16
HETATM   16  S   UNL     1      27.388  43.478  53.363  1.00  0.00    -0.083 SA
BRANCH  16  17
HETATM   17  C   UNL     1      27.930  44.842  54.276  1.00  0.00     0.168 A 
HETATM   18  N   UNL     1      29.089  44.840  55.006  1.00  0.00    -0.339 N 
HETATM   19  C   UNL     1      30.024  43.754  55.169  1.00  0.00     0.158 C 
HETATM   20  C   UNL     1      29.216  46.084  55.568  1.00  0.00     0.112 A 
HETATM   21  C   UNL     1      28.105  46.780  55.149  1.00  0.00     0.136 A 
HETATM   22  N   UNL     1      27.309  45.996  54.354  1.00  0.00    -0.235 NA
ENDBRANCH  16  17
ENDBRANCH  15  16
ENDBRANCH  12  15
ENDBRANCH   8  11
ENDBRANCH   2   5
BRANCH   1  23
HETATM   23  C   UNL     1      19.842  48.614  49.222  1.00  0.00     0.035 A 
HETATM   24  C   UNL     1      19.376  49.784  49.810  1.00  0.00     0.032 A 
HETATM   25  C   UNL     1      18.107  50.291  49.485  1.00  0.00     0.031 A 
HETATM   26  C   UNL     1      17.256  49.635  48.585  1.00  0.00     0.030 A 
HETATM   27  C   UNL     1      17.756  48.465  47.993  1.00  0.00     0.031 A 
HETATM   28  C   UNL     1      19.026  47.961  48.301  1.00  0.00     0.032 A 
BRANCH  26  29
HETATM   29  N   UNL     1      15.991  50.105  48.233  1.00  0.00    -0.378 N 
HETATM   30  C   UNL     1      15.183  49.402  47.224  1.00  0.00     0.150 C 
HETATM   31  C   UNL     1      15.366  50.012  45.819  1.00  0.00     0.254 C 
HETATM   32  N   UNL     1      15.099  51.526  45.848  1.00  0.00    -0.068 N 
HETATM   33  H   UNL     1      14.130  51.644  46.169  1.00  0.00     0.280 HD
HETATM   34  C   UNL     1      16.007  52.196  46.889  1.00  0.00     0.254 C 
HETATM   35  C   UNL     1      15.786  51.567  48.281  1.00  0.00     0.150 C 
BRANCH  32  36
HETATM   36  C   UNL     1      15.216  52.125  44.468  1.00  0.00     0.230 C 
HETATM   37  C   UNL     1      14.841  51.109  43.405  1.00  0.00     0.034 C 
ENDBRANCH  32  36
ENDBRANCH  26  29
ENDBRANCH   1  23
TORSDOF 8
ENDMDL
MODEL 7
REMARK VINA RESULT:      -8.0      2.379      3.627
REMARK  8 active torsions:
REMARK  status: ('A' for Active; 'I' for Inactive)
REMARK    1  A    between atoms: C_2  and  N_3 
REMARK    2  A    between atoms: N_7  and  C_8 
REMARK    3  A    between atoms: C_11  and  N_12 
REMARK       I    between atoms: N_12  and  C_13 
REMARK    4  A    between atoms: C_13  and  C_14 
REMARK    5  A    between atoms: C_17  and  N_18 
REMARK       I    between atoms: N_18  and  C_19 
REMARK    6  A    between atoms: C_19  and  C_20 
REMARK    7  A    between atoms: C_20  and  S_21 
REMARK    8  A    between atoms: S_21  and  C_22 
ROOT
HETATM    1  N   UNL     1      24.223  46.596  50.294  1.00  0.00    -0.323 N 
HETATM    2  C   UNL     1      23.429  46.491  49.166  1.00  0.00     0.256 C 
HETATM    3  O   UNL     1      23.247  45.492  48.484  1.00  0.00    -0.267 OA
HETATM    4  H   UNL     1      24.127  47.446  50.835  1.00  0.00     0.169 HD
ENDROOT
BRANCH   2   5
HETATM    5  C   UNL     1      22.685  47.739  48.842  1.00  0.00     0.032 A 
HETATM    6  C   UNL     1      23.109  48.976  49.339  1.00  0.00     0.019 A 
HETATM    7  C   UNL     1      22.343  50.123  49.108  1.00  0.00     0.030 A 
HETATM    8  C   UNL     1      21.153  50.050  48.379  1.00  0.00     0.034 A 
HETATM    9  C   UNL     1      20.771  48.818  47.830  1.00  0.00     0.030 A 
HETATM   10  C   UNL     1      21.533  47.666  48.056  1.00  0.00     0.019 A 
BRANCH   8  11
HETATM   11  N   UNL     1      20.288  51.144  48.184  1.00  0.00    -0.327 N 
HETATM   12  C   UNL     1      19.146  51.454  48.912  1.00  0.00     0.231 C 
HETATM   13  O   UNL     1      18.760  50.876  49.925  1.00  0.00    -0.272 OA
HETATM   14  H   UNL     1      20.439  51.696  47.346  1.00  0.00     0.169 HD
BRANCH  12  15
HETATM   15  C   UNL     1      18.371  52.633  48.345  1.00  0.00     0.185 C 
BRANCH  15  16
HETATM   16  S   UNL     1      16.731  52.071  47.780  1.00  0.00    -0.083 SA
BRANCH  16  17
HETATM   17  C   UNL     1      15.723  52.888  48.924  1.00  0.00     0.168 A 
HETATM   18  N   UNL     1      14.652  53.660  48.559  1.00  0.00    -0.339 N 
HETATM   19  C   UNL     1      14.190  53.948  47.224  1.00  0.00     0.158 C 
HETATM   20  C   UNL     1      14.073  54.120  49.713  1.00  0.00     0.112 A 
HETATM   21  C   UNL     1      14.842  53.603  50.730  1.00  0.00     0.136 A 
HETATM   22  N   UNL     1      15.869  52.846  50.228  1.00  0.00    -0.235 NA
ENDBRANCH  16  17
ENDBRANCH  15  16
ENDBRANCH  12  15
ENDBRANCH   8  11
ENDBRANCH   2   5
BRANCH   1  23
HETATM   23  C   UNL     1      25.084  45.621  50.831  1.00  0.00     0.035 A 
HETATM   24  C   UNL     1      26.346  45.331  50.327  1.00  0.00     0.032 A 
HETATM   25  C   UNL     1      27.155  44.359  50.938  1.00  0.00     0.031 A 
HETATM   26  C   UNL     1      26.721  43.631  52.054  1.00  0.00     0.030 A 
HETATM   27  C   UNL     1      25.450  43.953  52.555  1.00  0.00     0.031 A 
HETATM   28  C   UNL     1      24.643  44.931  51.960  1.00  0.00     0.032 A 
BRANCH  26  29
HETATM   29  N   UNL     1      27.492  42.660  52.692  1.00  0.00    -0.378 N 
HETATM   30  C   UNL     1      27.423  42.486  54.152  1.00  0.00     0.150 C 
HETATM   31  C   UNL     1      28.534  43.277  54.874  1.00  0.00     0.254 C 
HETATM   32  N   UNL     1      29.913  42.924  54.296  1.00  0.00    -0.068 N 
HETATM   33  H   UNL     1      30.039  41.913  54.439  1.00  0.00     0.280 HD
HETATM   34  C   UNL     1      29.924  43.172  52.781  1.00  0.00     0.254 C 
HETATM   35  C   UNL     1      28.808  42.355  52.094  1.00  0.00     0.150 C 
BRANCH  32  36
HETATM   36  C   UNL     1      31.013  43.646  55.034  1.00  0.00     0.230 C 
HETATM   37  C   UNL     1      31.049  43.229  56.492  1.00  0.00     0.034 C 
ENDBRANCH  32  36
ENDBRANCH  26  29
ENDBRANCH   1  23
TORSDOF 8
ENDMDL
MODEL 8
REMARK VINA RESULT:      -7.8      3.450     13.346
REMARK  8 active torsions:
REMARK  status: ('A' for Active; 'I' for Inactive)
REMARK    1  A    between atoms: C_2  and  N_3 
REMARK    2  A    between atoms: N_7  and  C_8 
REMARK    3  A    between atoms: C_11  and  N_12 
REMARK       I    between atoms: N_12  and  C_13 
REMARK    4  A    between atoms: C_13  and  C_14 
REMARK    5  A    between atoms: C_17  and  N_18 
REMARK       I    between atoms: N_18  and  C_19 
REMARK    6  A    between atoms: C_19  and  C_20 
REMARK    7  A    between atoms: C_20  and  S_21 
REMARK    8  A    between atoms: S_21  and  C_22 
ROOT
HETATM    1  N   UNL     1      19.614  50.151  49.253  1.00  0.00    -0.323 N 
HETATM    2  C   UNL     1      20.504  50.019  48.203  1.00  0.00     0.256 C 
HETATM    3  O   UNL     1      20.422  50.538  47.098  1.00  0.00    -0.267 OA
HETATM    4  H   UNL     1      19.919  49.794  50.150  1.00  0.00     0.169 HD
ENDROOT
BRANCH   2   5
HETATM    5  C   UNL     1      21.706  49.207  48.538  1.00  0.00     0.032 A 
HETATM    6  C   UNL     1      21.607  47.827  48.738  1.00  0.00     0.019 A 
HETATM    7  C   UNL     1      22.726  47.097  49.150  1.00  0.00     0.030 A 
HETATM    8  C   UNL     1      23.952  47.732  49.364  1.00  0.00     0.034 A 
HETATM    9  C   UNL     1      24.058  49.104  49.098  1.00  0.00     0.030 A 
HETATM   10  C   UNL     1      22.942  49.841  48.684  1.00  0.00     0.019 A 
BRANCH   8  11
HETATM   11  N   UNL     1      25.094  47.078  49.864  1.00  0.00    -0.327 N 
HETATM   12  C   UNL     1      25.498  45.774  49.607  1.00  0.00     0.231 C 
HETATM   13  O   UNL     1      24.974  45.004  48.805  1.00  0.00    -0.272 OA
HETATM   14  H   UNL     1      25.612  47.564  50.589  1.00  0.00     0.169 HD
BRANCH  12  15
HETATM   15  C   UNL     1      26.709  45.345  50.420  1.00  0.00     0.185 C 
BRANCH  15  16
HETATM   16  S   UNL     1      26.224  44.043  51.599  1.00  0.00    -0.083 SA
BRANCH  16  17
HETATM   17  C   UNL     1      27.079  44.578  53.005  1.00  0.00     0.168 A 
HETATM   18  N   UNL     1      28.338  44.143  53.324  1.00  0.00    -0.339 N 
HETATM   19  C   UNL     1      29.148  43.190  52.606  1.00  0.00     0.158 C 
HETATM   20  C   UNL     1      28.710  44.791  54.473  1.00  0.00     0.112 A 
HETATM   21  C   UNL     1      27.637  45.589  54.798  1.00  0.00     0.136 A 
HETATM   22  N   UNL     1      26.626  45.441  53.883  1.00  0.00    -0.235 NA
ENDBRANCH  16  17
ENDBRANCH  15  16
ENDBRANCH  12  15
ENDBRANCH   8  11
ENDBRANCH   2   5
BRANCH   1  23
HETATM   23  C   UNL     1      18.368  50.805  49.245  1.00  0.00     0.035 A 
HETATM   24  C   UNL     1      17.213  50.277  48.680  1.00  0.00     0.032 A 
HETATM   25  C   UNL     1      16.001  50.985  48.738  1.00  0.00     0.031 A 
HETATM   26  C   UNL     1      15.909  52.248  49.337  1.00  0.00     0.030 A 
HETATM   27  C   UNL     1      17.085  52.753  49.914  1.00  0.00     0.031 A 
HETATM   28  C   UNL     1      18.294  52.047  49.874  1.00  0.00     0.032 A 
BRANCH  26  29
HETATM   29  N   UNL     1      14.727  52.983  49.417  1.00  0.00    -0.378 N 
HETATM   30  C   UNL     1      14.559  54.223  48.643  1.00  0.00     0.150 C 
HETATM   31  C   UNL     1      14.924  55.469  49.476  1.00  0.00     0.254 C 
HETATM   32  N   UNL     1      14.146  55.483  50.801  1.00  0.00    -0.068 N 
HETATM   33  H   UNL     1      13.148  55.496  50.551  1.00  0.00     0.280 HD
HETATM   34  C   UNL     1      14.403  54.181  51.571  1.00  0.00     0.254 C 
HETATM   35  C   UNL     1      14.015  52.959  50.711  1.00  0.00     0.150 C 
BRANCH  32  36
HETATM   36  C   UNL     1      14.449  56.727  51.597  1.00  0.00     0.230 C 
HETATM   37  C   UNL     1      15.159  56.380  52.892  1.00  0.00     0.034 C 
ENDBRANCH  32  36
ENDBRANCH  26  29
ENDBRANCH   1  23
TORSDOF 8
ENDMDL
MODEL 9
REMARK VINA RESULT:      -7.7      3.715     14.178
REMARK  8 active torsions:
REMARK  status: ('A' for Active; 'I' for Inactive)
REMARK    1  A    between atoms: C_2  and  N_3 
REMARK    2  A    between atoms: N_7  and  C_8 
REMARK    3  A    between atoms: C_11  and  N_12 
REMARK       I    between atoms: N_12  and  C_13 
REMARK    4  A    between atoms: C_13  and  C_14 
REMARK    5  A    between atoms: C_17  and  N_18 
REMARK       I    between atoms: N_18  and  C_19 
REMARK    6  A    between atoms: C_19  and  C_20 
REMARK    7  A    between atoms: C_20  and  S_21 
REMARK    8  A    between atoms: S_21  and  C_22 
ROOT
HETATM    1  N   UNL     1      15.653  54.382  50.944  1.00  0.00    -0.323 N 
HETATM    2  C   UNL     1      15.234  53.746  49.790  1.00  0.00     0.256 C 
HETATM    3  O   UNL     1      14.265  54.034  49.101  1.00  0.00    -0.267 OA
HETATM    4  H   UNL     1      16.568  54.125  51.295  1.00  0.00     0.169 HD
ENDROOT
BRANCH   2   5
HETATM    5  C   UNL     1      16.141  52.650  49.351  1.00  0.00     0.032 A 
HETATM    6  C   UNL     1      15.633  51.498  48.742  1.00  0.00     0.019 A 
HETATM    7  C   UNL     1      16.487  50.438  48.427  1.00  0.00     0.030 A 
HETATM    8  C   UNL     1      17.852  50.514  48.711  1.00  0.00     0.034 A 
HETATM    9  C   UNL     1      18.363  51.698  49.261  1.00  0.00     0.030 A 
HETATM   10  C   UNL     1      17.514  52.765  49.578  1.00  0.00     0.019 A 
BRANCH   8  11
HETATM   11  N   UNL     1      18.755  49.453  48.504  1.00  0.00    -0.327 N 
HETATM   12  C   UNL     1      19.205  48.536  49.445  1.00  0.00     0.231 C 
HETATM   13  O   UNL     1      18.802  48.435  50.601  1.00  0.00    -0.272 OA
HETATM   14  H   UNL     1      19.225  49.428  47.605  1.00  0.00     0.169 HD
BRANCH  12  15
HETATM   15  C   UNL     1      20.281  47.603  48.912  1.00  0.00     0.185 C 
BRANCH  15  16
HETATM   16  S   UNL     1      21.437  48.541  47.860  1.00  0.00    -0.083 SA
BRANCH  16  17
HETATM   17  C   UNL     1      22.930  48.170  48.649  1.00  0.00     0.168 A 
HETATM   18  N   UNL     1      24.012  49.011  48.636  1.00  0.00    -0.339 N 
HETATM   19  C   UNL     1      24.123  50.290  47.978  1.00  0.00     0.158 C 
HETATM   20  C   UNL     1      24.997  48.416  49.379  1.00  0.00     0.112 A 
HETATM   21  C   UNL     1      24.455  47.223  49.801  1.00  0.00     0.136 A 
HETATM   22  N   UNL     1      23.174  47.078  49.335  1.00  0.00    -0.235 NA
ENDBRANCH  16  17
ENDBRANCH  15  16
ENDBRANCH  12  15
ENDBRANCH   8  11
ENDBRANCH   2   5
BRANCH   1  23
HETATM   23  C   UNL     1      14.997  55.413  51.643  1.00  0.00     0.035 A 
HETATM   24  C   UNL     1      14.176  55.208  52.746  1.00  0.00     0.032 A 
HETATM   25  C   UNL     1      13.578  56.296  53.403  1.00  0.00     0.031 A 
HETATM   26  C   UNL     1      13.760  57.615  52.967  1.00  0.00     0.030 A 
HETATM   27  C   UNL     1      14.606  57.797  51.862  1.00  0.00     0.031 A 
HETATM   28  C   UNL     1      15.217  56.719  51.210  1.00  0.00     0.032 A 
BRANCH  26  29
HETATM   29  N   UNL     1      13.186  58.723  53.592  1.00  0.00    -0.378 N 
HETATM   30  C   UNL     1      13.832  60.043  53.520  1.00  0.00     0.150 C 
HETATM   31  C   UNL     1      14.725  60.309  54.748  1.00  0.00     0.254 C 
HETATM   32  N   UNL     1      13.934  60.103  56.049  1.00  0.00    -0.068 N 
HETATM   33  H   UNL     1      13.151  60.769  56.022  1.00  0.00     0.280 HD
HETATM   34  C   UNL     1      13.328  58.693  56.074  1.00  0.00     0.254 C 
HETATM   35  C   UNL     1      12.432  58.469  54.836  1.00  0.00     0.150 C 
BRANCH  32  36
HETATM   36  C   UNL     1      14.780  60.419  57.257  1.00  0.00     0.230 C 
HETATM   37  C   UNL     1      14.557  61.848  57.715  1.00  0.00     0.034 C 
ENDBRANCH  32  36
ENDBRANCH  26  29
ENDBRANCH   1  23
TORSDOF 8
ENDMDL
MODEL 10
REMARK VINA RESULT:      -7.7     14.365     17.741
REMARK  8 active torsions:
REMARK  status: ('A' for Active; 'I' for Inactive)
REMARK    1  A    between atoms: C_2  and  N_3 
REMARK    2  A    between atoms: N_7  and  C_8 
REMARK    3  A    between atoms: C_11  and  N_12 
REMARK       I    between atoms: N_12  and  C_13 
REMARK    4  A    between atoms: C_13  and  C_14 
REMARK    5  A    between atoms: C_17  and  N_18 
REMARK       I    between atoms: N_18  and  C_19 
REMARK    6  A    between atoms: C_19  and  C_20 
REMARK    7  A    between atoms: C_20  and  S_21 
REMARK    8  A    between atoms: S_21  and  C_22 
ROOT
HETATM    1  N   UNL     1      36.354  52.311  44.416  1.00  0.00    -0.323 N 
HETATM    2  C   UNL     1      36.048  52.133  43.079  1.00  0.00     0.256 C 
HETATM    3  O   UNL     1      36.698  52.518  42.117  1.00  0.00    -0.267 OA
HETATM    4  H   UNL     1      35.801  51.782  45.079  1.00  0.00     0.169 HD
ENDROOT
BRANCH   2   5
HETATM    5  C   UNL     1      34.826  51.314  42.850  1.00  0.00     0.032 A 
HETATM    6  C   UNL     1      34.816  50.288  41.900  1.00  0.00     0.019 A 
HETATM    7  C   UNL     1      33.633  49.596  41.628  1.00  0.00     0.030 A 
HETATM    8  C   UNL     1      32.450  49.916  42.300  1.00  0.00     0.034 A 
HETATM    9  C   UNL     1      32.484  50.901  43.297  1.00  0.00     0.030 A 
HETATM   10  C   UNL     1      33.666  51.597  43.575  1.00  0.00     0.019 A 
BRANCH   8  11
HETATM   11  N   UNL     1      31.204  49.324  42.014  1.00  0.00    -0.327 N 
HETATM   12  C   UNL     1      30.634  49.125  40.763  1.00  0.00     0.231 C 
HETATM   13  O   UNL     1      31.178  49.339  39.683  1.00  0.00    -0.272 OA
HETATM   14  H   UNL     1      30.601  49.137  42.807  1.00  0.00     0.169 HD
BRANCH  12  15
HETATM   15  C   UNL     1      29.216  48.581  40.826  1.00  0.00     0.185 C 
BRANCH  15  16
HETATM   16  S   UNL     1      28.095  49.867  41.468  1.00  0.00    -0.083 SA
BRANCH  16  17
HETATM   17  C   UNL     1      28.348  51.104  40.287  1.00  0.00     0.168 A 
HETATM   18  N   UNL     1      29.036  52.259  40.550  1.00  0.00    -0.339 N 
HETATM   19  C   UNL     1      29.632  52.662  41.800  1.00  0.00     0.158 C 
HETATM   20  C   UNL     1      29.066  52.985  39.389  1.00  0.00     0.112 A 
HETATM   21  C   UNL     1      28.377  52.224  38.473  1.00  0.00     0.136 A 
HETATM   22  N   UNL     1      27.929  51.062  39.044  1.00  0.00    -0.235 NA
ENDBRANCH  16  17
ENDBRANCH  15  16
ENDBRANCH  12  15
ENDBRANCH   8  11
ENDBRANCH   2   5
BRANCH   1  23
HETATM   23  C   UNL     1      37.404  53.071  44.962  1.00  0.00     0.035 A 
HETATM   24  C   UNL     1      37.294  54.410  45.321  1.00  0.00     0.032 A 
HETATM   25  C   UNL     1      38.385  55.091  45.885  1.00  0.00     0.031 A 
HETATM   26  C   UNL     1      39.623  54.468  46.085  1.00  0.00     0.030 A 
HETATM   27  C   UNL     1      39.705  53.112  45.731  1.00  0.00     0.031 A 
HETATM   28  C   UNL     1      38.617  52.422  45.181  1.00  0.00     0.032 A 
BRANCH  26  29
HETATM   29  N   UNL     1      40.730  55.106  46.643  1.00  0.00    -0.378 N 
HETATM   30  C   UNL     1      41.792  55.655  45.785  1.00  0.00     0.150 C 
HETATM   31  C   UNL     1      42.955  54.658  45.607  1.00  0.00     0.254 C 
HETATM   32  N   UNL     1      43.477  54.184  46.972  1.00  0.00    -0.068 N 
HETATM   33  H   UNL     1      43.798  55.025  47.469  1.00  0.00     0.280 HD
HETATM   34  C   UNL     1      42.326  53.584  47.792  1.00  0.00     0.254 C 
HETATM   35  C   UNL     1      41.189  54.616  47.959  1.00  0.00     0.150 C 
BRANCH  32  36
HETATM   36  C   UNL     1      44.654  53.254  46.812  1.00  0.00     0.230 C 
HETATM   37  C   UNL     1      44.745  52.292  47.982  1.00  0.00     0.034 C 
ENDBRANCH  32  36
ENDBRANCH  26  29
ENDBRANCH   1  23
TORSDOF 8
ENDMDL
