MODEL 1
REMARK VINA RESULT:     -10.7      0.000      0.000
REMARK  5 active torsions:
REMARK  status: ('A' for Active; 'I' for Inactive)
REMARK    1  A    between atoms: C_2  and  N_3 
REMARK    2  A    between atoms: C_5  and  C_6 
REMARK    3  A    between atoms: C_6  and  C_7 
REMARK       I    between atoms: C_7  and  N_8 
REMARK    4  A    between atoms: N_8  and  C_9 
REMARK    5  A    between atoms: C_16  and  O_17 
ROOT
HETATM    1  C   UNL     1      28.574  42.672  52.130  1.00  0.00     0.224 C 
HETATM    2  N   UNL     1      27.812  43.758  51.768  1.00  0.00    -0.351 N 
HETATM    3  O   UNL     1      28.425  41.546  51.666  1.00  0.00    -0.273 OA
HETATM    4  H   UNL     1      27.798  44.562  52.389  1.00  0.00     0.163 HD
ENDROOT
BRANCH   2   5
HETATM    5  C   UNL     1      26.735  43.630  50.812  1.00  0.00     0.135 C 
HETATM    6  C   UNL     1      26.334  44.996  50.372  1.00  0.00     0.040 A 
HETATM    7  C   UNL     1      25.044  45.439  50.158  1.00  0.00    -0.021 A 
HETATM    8  N   UNL     1      27.193  46.008  50.038  1.00  0.00    -0.357 N 
HETATM    9  C   UNL     1      25.123  46.786  49.708  1.00  0.00     0.002 A 
HETATM   10  C   UNL     1      23.851  44.578  50.406  1.00  0.00     0.042 C 
HETATM   11  C   UNL     1      26.477  47.121  49.654  1.00  0.00     0.043 A 
HETATM   12  C   UNL     1      24.174  47.761  49.340  1.00  0.00     0.051 A 
HETATM   13  C   UNL     1      26.923  48.386  49.258  1.00  0.00     0.033 A 
HETATM   14  C   UNL     1      25.958  49.339  48.903  1.00  0.00     0.039 A 
HETATM   15  C   UNL     1      24.596  49.036  48.939  1.00  0.00     0.069 A 
HETATM   16  C   UNL     1      24.252  43.094  50.541  1.00  0.00     0.007 C 
HETATM   17  C   UNL     1      25.509  42.906  51.413  1.00  0.00     0.032 C 
HETATM   18  H   UNL     1      28.201  45.952  50.078  1.00  0.00     0.166 HD
BRANCH  15  19
HETATM   19  O   UNL     1      23.577  49.888  48.606  1.00  0.00    -0.356 OA
HETATM   20  C   UNL     1      22.383  49.796  49.373  1.00  0.00     0.210 C 
ENDBRANCH  15  19
ENDBRANCH   2   5
BRANCH   1  21
HETATM   21  C   UNL     1      29.657  42.981  53.130  1.00  0.00     0.164 C 
BRANCH  21  22
HETATM   22  C   UNL     1      29.215  43.934  54.215  1.00  0.00     0.075 A 
HETATM   23  N   UNL     1      28.132  44.611  53.984  1.00  0.00    -0.172 NA
HETATM   24  N   UNL     1      27.691  45.520  54.916  1.00  0.00    -0.230 N 
HETATM   25  C   UNL     1      28.396  45.842  56.076  1.00  0.00     0.275 A 
HETATM   26  C   UNL     1      29.597  45.037  56.362  1.00  0.00     0.046 A 
HETATM   27  O   UNL     1      28.073  46.735  56.856  1.00  0.00    -0.266 OA
HETATM   28  C   UNL     1      30.009  44.067  55.454  1.00  0.00     0.006 A 
HETATM   29  C   UNL     1      30.318  45.248  57.546  1.00  0.00     0.018 A 
HETATM   30  C   UNL     1      31.135  43.285  55.739  1.00  0.00     0.014 A 
HETATM   31  C   UNL     1      31.848  43.493  56.923  1.00  0.00     0.001 A 
HETATM   32  C   UNL     1      31.444  44.476  57.823  1.00  0.00     0.001 A 
BRANCH  24  33
HETATM   33  C   UNL     1      26.530  46.342  54.534  1.00  0.00     0.105 C 
HETATM   34  C   UNL     1      25.359  45.503  54.019  1.00  0.00     0.034 C 
HETATM   35  C   UNL     1      26.939  47.394  53.501  1.00  0.00     0.034 C 
ENDBRANCH  24  33
ENDBRANCH  21  22
ENDBRANCH   1  21
TORSDOF 5
ENDMDL
MODEL 2
REMARK VINA RESULT:     -10.0      2.703      5.160
REMARK  5 active torsions:
REMARK  status: ('A' for Active; 'I' for Inactive)
REMARK    1  A    between atoms: C_2  and  N_3 
REMARK    2  A    between atoms: C_5  and  C_6 
REMARK    3  A    between atoms: C_6  and  C_7 
REMARK       I    between atoms: C_7  and  N_8 
REMARK    4  A    between atoms: N_8  and  C_9 
REMARK    5  A    between atoms: C_16  and  O_17 
ROOT
HETATM    1  C   UNL     1      25.018  47.275  50.823  1.00  0.00     0.224 C 
HETATM    2  N   UNL     1      23.953  46.564  50.321  1.00  0.00    -0.351 N 
HETATM    3  O   UNL     1      25.659  48.096  50.174  1.00  0.00    -0.273 OA
HETATM    4  H   UNL     1      23.671  45.718  50.808  1.00  0.00     0.163 HD
ENDROOT
BRANCH   2   5
HETATM    5  C   UNL     1      23.530  46.721  48.948  1.00  0.00     0.135 C 
HETATM    6  C   UNL     1      22.495  47.792  48.896  1.00  0.00     0.040 A 
HETATM    7  C   UNL     1      21.347  47.781  48.129  1.00  0.00    -0.021 A 
HETATM    8  N   UNL     1      22.560  48.993  49.549  1.00  0.00    -0.357 N 
HETATM    9  C   UNL     1      20.671  49.012  48.352  1.00  0.00     0.002 A 
HETATM   10  C   UNL     1      20.970  46.621  47.269  1.00  0.00     0.042 C 
HETATM   11  C   UNL     1      21.445  49.746  49.254  1.00  0.00     0.043 A 
HETATM   12  C   UNL     1      19.472  49.580  47.878  1.00  0.00     0.051 A 
HETATM   13  C   UNL     1      21.070  51.015  49.706  1.00  0.00     0.033 A 
HETATM   14  C   UNL     1      19.869  51.554  49.222  1.00  0.00     0.039 A 
HETATM   15  C   UNL     1      19.075  50.851  48.316  1.00  0.00     0.069 A 
HETATM   16  C   UNL     1      22.166  45.668  47.062  1.00  0.00     0.007 C 
HETATM   17  C   UNL     1      22.943  45.413  48.368  1.00  0.00     0.032 C 
HETATM   18  H   UNL     1      23.308  49.280  50.164  1.00  0.00     0.166 HD
BRANCH  15  19
HETATM   19  O   UNL     1      17.894  51.288  47.779  1.00  0.00    -0.356 OA
HETATM   20  C   UNL     1      16.772  50.422  47.895  1.00  0.00     0.210 C 
ENDBRANCH  15  19
ENDBRANCH   2   5
BRANCH   1  21
HETATM   21  C   UNL     1      25.321  46.998  52.272  1.00  0.00     0.164 C 
BRANCH  21  22
HETATM   22  C   UNL     1      26.141  45.748  52.483  1.00  0.00     0.075 A 
HETATM   23  N   UNL     1      25.914  44.763  51.670  1.00  0.00    -0.172 NA
HETATM   24  N   UNL     1      26.602  43.583  51.826  1.00  0.00    -0.230 N 
HETATM   25  C   UNL     1      27.479  43.335  52.882  1.00  0.00     0.275 A 
HETATM   26  C   UNL     1      27.776  44.470  53.774  1.00  0.00     0.046 A 
HETATM   27  O   UNL     1      28.009  42.247  53.098  1.00  0.00    -0.266 OA
HETATM   28  C   UNL     1      27.133  45.687  53.577  1.00  0.00     0.006 A 
HETATM   29  C   UNL     1      28.706  44.322  54.813  1.00  0.00     0.018 A 
HETATM   30  C   UNL     1      27.434  46.773  54.408  1.00  0.00     0.014 A 
HETATM   31  C   UNL     1      28.366  46.625  55.440  1.00  0.00     0.001 A 
HETATM   32  C   UNL     1      28.997  45.400  55.646  1.00  0.00     0.001 A 
BRANCH  24  33
HETATM   33  C   UNL     1      26.203  42.468  50.950  1.00  0.00     0.105 C 
HETATM   34  C   UNL     1      26.985  42.445  49.635  1.00  0.00     0.034 C 
HETATM   35  C   UNL     1      24.697  42.512  50.684  1.00  0.00     0.034 C 
ENDBRANCH  24  33
ENDBRANCH  21  22
ENDBRANCH   1  21
TORSDOF 5
ENDMDL
MODEL 3
REMARK VINA RESULT:      -9.7      2.480      8.418
REMARK  5 active torsions:
REMARK  status: ('A' for Active; 'I' for Inactive)
REMARK    1  A    between atoms: C_2  and  N_3 
REMARK    2  A    between atoms: C_5  and  C_6 
REMARK    3  A    between atoms: C_6  and  C_7 
REMARK       I    between atoms: C_7  and  N_8 
REMARK    4  A    between atoms: N_8  and  C_9 
REMARK    5  A    between atoms: C_16  and  O_17 
ROOT
HETATM    1  C   UNL     1      22.490  44.787  48.794  1.00  0.00     0.224 C 
HETATM    2  N   UNL     1      23.807  44.675  49.173  1.00  0.00    -0.351 N 
HETATM    3  O   UNL     1      21.578  44.129  49.286  1.00  0.00    -0.273 OA
HETATM    4  H   UNL     1      24.519  45.026  48.537  1.00  0.00     0.163 HD
ENDROOT
BRANCH   2   5
HETATM    5  C   UNL     1      24.217  43.723  50.180  1.00  0.00     0.135 C 
HETATM    6  C   UNL     1      25.000  44.450  51.220  1.00  0.00     0.040 A 
HETATM    7  C   UNL     1      26.140  43.994  51.850  1.00  0.00    -0.021 A 
HETATM    8  N   UNL     1      24.665  45.659  51.767  1.00  0.00    -0.357 N 
HETATM    9  C   UNL     1      26.532  44.982  52.795  1.00  0.00     0.002 A 
HETATM   10  C   UNL     1      26.776  42.688  51.508  1.00  0.00     0.042 C 
HETATM   11  C   UNL     1      25.599  46.018  52.714  1.00  0.00     0.043 A 
HETATM   12  C   UNL     1      27.591  45.103  53.716  1.00  0.00     0.051 A 
HETATM   13  C   UNL     1      25.683  47.169  53.505  1.00  0.00     0.033 A 
HETATM   14  C   UNL     1      26.751  47.265  54.408  1.00  0.00     0.039 A 
HETATM   15  C   UNL     1      27.697  46.246  54.520  1.00  0.00     0.069 A 
HETATM   16  C   UNL     1      25.817  41.798  50.690  1.00  0.00     0.007 C 
HETATM   17  C   UNL     1      25.084  42.588  49.589  1.00  0.00     0.032 C 
HETATM   18  H   UNL     1      23.859  46.211  51.509  1.00  0.00     0.166 HD
BRANCH  15  19
HETATM   19  O   UNL     1      28.769  46.238  55.373  1.00  0.00    -0.356 OA
HETATM   20  C   UNL     1      29.442  44.999  55.550  1.00  0.00     0.210 C 
ENDBRANCH  15  19
ENDBRANCH   2   5
BRANCH   1  21
HETATM   21  C   UNL     1      22.235  45.830  47.739  1.00  0.00     0.164 C 
BRANCH  21  22
HETATM   22  C   UNL     1      22.370  47.245  48.250  1.00  0.00     0.075 A 
HETATM   23  N   UNL     1      23.577  47.710  48.352  1.00  0.00    -0.172 NA
HETATM   24  N   UNL     1      23.776  48.979  48.841  1.00  0.00    -0.230 N 
HETATM   25  C   UNL     1      22.750  49.784  49.337  1.00  0.00     0.275 A 
HETATM   26  C   UNL     1      21.375  49.278  49.173  1.00  0.00     0.046 A 
HETATM   27  O   UNL     1      22.927  50.871  49.884  1.00  0.00    -0.266 OA
HETATM   28  C   UNL     1      21.167  48.021  48.614  1.00  0.00     0.006 A 
HETATM   29  C   UNL     1      20.285  50.062  49.576  1.00  0.00     0.018 A 
HETATM   30  C   UNL     1      19.860  47.550  48.436  1.00  0.00     0.014 A 
HETATM   31  C   UNL     1      18.774  48.336  48.832  1.00  0.00     0.001 A 
HETATM   32  C   UNL     1      18.986  49.588  49.407  1.00  0.00     0.001 A 
BRANCH  24  33
HETATM   33  C   UNL     1      25.173  49.393  49.049  1.00  0.00     0.105 C 
HETATM   34  C   UNL     1      25.792  50.019  47.798  1.00  0.00     0.034 C 
HETATM   35  C   UNL     1      26.013  48.211  49.536  1.00  0.00     0.034 C 
ENDBRANCH  24  33
ENDBRANCH  21  22
ENDBRANCH   1  21
TORSDOF 5
ENDMDL
MODEL 4
REMARK VINA RESULT:      -9.6      2.364      8.831
REMARK  5 active torsions:
REMARK  status: ('A' for Active; 'I' for Inactive)
REMARK    1  A    between atoms: C_2  and  N_3 
REMARK    2  A    between atoms: C_5  and  C_6 
REMARK    3  A    between atoms: C_6  and  C_7 
REMARK       I    between atoms: C_7  and  N_8 
REMARK    4  A    between atoms: N_8  and  C_9 
REMARK    5  A    between atoms: C_16  and  O_17 
ROOT
HETATM    1  C   UNL     1      25.372  45.628  51.281  1.00  0.00     0.224 C 
HETATM    2  N   UNL     1      26.467  44.860  50.959  1.00  0.00    -0.351 N 
HETATM    3  O   UNL     1      24.616  45.385  52.217  1.00  0.00    -0.273 OA
HETATM    4  H   UNL     1      26.858  44.953  50.026  1.00  0.00     0.163 HD
ENDROOT
BRANCH   2   5
HETATM    5  C   UNL     1      26.787  43.665  51.706  1.00  0.00     0.135 C 
HETATM    6  C   UNL     1      27.621  44.054  52.878  1.00  0.00     0.040 A 
HETATM    7  C   UNL     1      28.714  43.366  53.366  1.00  0.00    -0.021 A 
HETATM    8  N   UNL     1      27.387  45.122  53.701  1.00  0.00    -0.357 N 
HETATM    9  C   UNL     1      29.182  44.065  54.514  1.00  0.00     0.002 A 
HETATM   10  C   UNL     1      29.238  42.130  52.715  1.00  0.00     0.042 C 
HETATM   11  C   UNL     1      28.342  45.165  54.694  1.00  0.00     0.043 A 
HETATM   12  C   UNL     1      30.241  43.872  55.423  1.00  0.00     0.051 A 
HETATM   13  C   UNL     1      28.519  46.084  55.734  1.00  0.00     0.033 A 
HETATM   14  C   UNL     1      29.584  45.871  56.620  1.00  0.00     0.039 A 
HETATM   15  C   UNL     1      30.439  44.778  56.474  1.00  0.00     0.069 A 
HETATM   16  C   UNL     1      28.213  41.545  51.722  1.00  0.00     0.007 C 
HETATM   17  C   UNL     1      27.557  42.634  50.850  1.00  0.00     0.032 C 
HETATM   18  H   UNL     1      26.633  45.786  53.593  1.00  0.00     0.166 HD
BRANCH  15  19
HETATM   19  O   UNL     1      31.500  44.477  57.285  1.00  0.00    -0.356 OA
HETATM   20  C   UNL     1      32.029  43.160  57.193  1.00  0.00     0.210 C 
ENDBRANCH  15  19
ENDBRANCH   2   5
BRANCH   1  21
HETATM   21  C   UNL     1      25.188  46.841  50.407  1.00  0.00     0.164 C 
BRANCH  21  22
HETATM   22  C   UNL     1      24.009  46.730  49.469  1.00  0.00     0.075 A 
HETATM   23  N   UNL     1      23.687  45.533  49.086  1.00  0.00    -0.172 NA
HETATM   24  N   UNL     1      22.645  45.361  48.207  1.00  0.00    -0.230 N 
HETATM   25  C   UNL     1      21.955  46.418  47.611  1.00  0.00     0.275 A 
HETATM   26  C   UNL     1      22.286  47.773  48.085  1.00  0.00     0.046 A 
HETATM   27  O   UNL     1      21.102  46.280  46.736  1.00  0.00    -0.266 OA
HETATM   28  C   UNL     1      23.295  47.945  49.028  1.00  0.00     0.006 A 
HETATM   29  C   UNL     1      21.585  48.882  47.590  1.00  0.00     0.018 A 
HETATM   30  C   UNL     1      23.593  49.231  49.497  1.00  0.00     0.014 A 
HETATM   31  C   UNL     1      22.888  50.334  49.007  1.00  0.00     0.001 A 
HETATM   32  C   UNL     1      21.889  50.161  48.051  1.00  0.00     0.001 A 
BRANCH  24  33
HETATM   33  C   UNL     1      22.415  43.992  47.717  1.00  0.00     0.105 C 
HETATM   34  C   UNL     1      22.761  42.928  48.761  1.00  0.00     0.034 C 
HETATM   35  C   UNL     1      23.194  43.752  46.422  1.00  0.00     0.034 C 
ENDBRANCH  24  33
ENDBRANCH  21  22
ENDBRANCH   1  21
TORSDOF 5
ENDMDL
MODEL 5
REMARK VINA RESULT:      -9.5      3.719      8.331
REMARK  5 active torsions:
REMARK  status: ('A' for Active; 'I' for Inactive)
REMARK    1  A    between atoms: C_2  and  N_3 
REMARK    2  A    between atoms: C_5  and  C_6 
REMARK    3  A    between atoms: C_6  and  C_7 
REMARK       I    between atoms: C_7  and  N_8 
REMARK    4  A    between atoms: N_8  and  C_9 
REMARK    5  A    between atoms: C_16  and  O_17 
ROOT
HETATM    1  C   UNL     1      26.535  42.836  50.226  1.00  0.00     0.224 C 
HETATM    2  N   UNL     1      26.202  43.389  51.440  1.00  0.00    -0.351 N 
HETATM    3  O   UNL     1      27.266  43.379  49.403  1.00  0.00    -0.273 OA
HETATM    4  H   UNL     1      25.385  43.027  51.923  1.00  0.00     0.163 HD
ENDROOT
BRANCH   2   5
HETATM    5  C   UNL     1      26.682  44.699  51.821  1.00  0.00     0.135 C 
HETATM    6  C   UNL     1      27.657  44.535  52.937  1.00  0.00     0.040 A 
HETATM    7  C   UNL     1      27.767  45.344  54.050  1.00  0.00    -0.021 A 
HETATM    8  N   UNL     1      28.648  43.593  52.994  1.00  0.00    -0.357 N 
HETATM    9  C   UNL     1      28.849  44.852  54.831  1.00  0.00     0.002 A 
HETATM   10  C   UNL     1      26.848  46.493  54.298  1.00  0.00     0.042 C 
HETATM   11  C   UNL     1      29.375  43.749  54.154  1.00  0.00     0.043 A 
HETATM   12  C   UNL     1      29.438  45.234  56.052  1.00  0.00     0.051 A 
HETATM   13  C   UNL     1      30.454  43.009  54.647  1.00  0.00     0.033 A 
HETATM   14  C   UNL     1      31.017  43.408  55.868  1.00  0.00     0.039 A 
HETATM   15  C   UNL     1      30.522  44.509  56.567  1.00  0.00     0.069 A 
HETATM   16  C   UNL     1      26.065  46.867  53.023  1.00  0.00     0.007 C 
HETATM   17  C   UNL     1      25.533  45.627  52.278  1.00  0.00     0.032 C 
HETATM   18  H   UNL     1      28.816  42.883  52.296  1.00  0.00     0.166 HD
BRANCH  15  19
HETATM   19  O   UNL     1      31.003  44.984  57.758  1.00  0.00    -0.356 OA
HETATM   20  C   UNL     1      30.499  46.236  58.203  1.00  0.00     0.210 C 
ENDBRANCH  15  19
ENDBRANCH   2   5
BRANCH   1  21
HETATM   21  C   UNL     1      25.959  41.465  49.991  1.00  0.00     0.164 C 
BRANCH  21  22
HETATM   22  C   UNL     1      26.735  40.654  48.981  1.00  0.00     0.075 A 
HETATM   23  N   UNL     1      26.344  40.742  47.747  1.00  0.00    -0.172 NA
HETATM   24  N   UNL     1      26.985  40.005  46.779  1.00  0.00    -0.230 N 
HETATM   25  C   UNL     1      27.987  39.075  47.055  1.00  0.00     0.275 A 
HETATM   26  C   UNL     1      28.466  39.013  48.448  1.00  0.00     0.046 A 
HETATM   27  O   UNL     1      28.486  38.326  46.216  1.00  0.00    -0.266 OA
HETATM   28  C   UNL     1      27.865  39.809  49.418  1.00  0.00     0.006 A 
HETATM   29  C   UNL     1      29.523  38.159  48.790  1.00  0.00     0.018 A 
HETATM   30  C   UNL     1      28.337  39.770  50.736  1.00  0.00     0.014 A 
HETATM   31  C   UNL     1      29.395  38.921  51.074  1.00  0.00     0.001 A 
HETATM   32  C   UNL     1      29.985  38.113  50.104  1.00  0.00     0.001 A 
BRANCH  24  33
HETATM   33  C   UNL     1      26.410  40.055  45.425  1.00  0.00     0.105 C 
HETATM   34  C   UNL     1      27.055  41.134  44.552  1.00  0.00     0.034 C 
HETATM   35  C   UNL     1      24.894  40.251  45.497  1.00  0.00     0.034 C 
ENDBRANCH  24  33
ENDBRANCH  21  22
ENDBRANCH   1  21
TORSDOF 5
ENDMDL
MODEL 6
REMARK VINA RESULT:      -9.3      4.220     10.827
REMARK  5 active torsions:
REMARK  status: ('A' for Active; 'I' for Inactive)
REMARK    1  A    between atoms: C_2  and  N_3 
REMARK    2  A    between atoms: C_5  and  C_6 
REMARK    3  A    between atoms: C_6  and  C_7 
REMARK       I    between atoms: C_7  and  N_8 
REMARK    4  A    between atoms: N_8  and  C_9 
REMARK    5  A    between atoms: C_16  and  O_17 
ROOT
HETATM    1  C   UNL     1      21.991  50.319  48.925  1.00  0.00     0.224 C 
HETATM    2  N   UNL     1      22.811  49.370  49.492  1.00  0.00    -0.351 N 
HETATM    3  O   UNL     1      22.186  50.821  47.823  1.00  0.00    -0.273 OA
HETATM    4  H   UNL     1      22.751  49.225  50.496  1.00  0.00     0.163 HD
ENDROOT
BRANCH   2   5
HETATM    5  C   UNL     1      24.006  48.917  48.818  1.00  0.00     0.135 C 
HETATM    6  C   UNL     1      24.512  47.706  49.524  1.00  0.00     0.040 A 
HETATM    7  C   UNL     1      25.834  47.408  49.789  1.00  0.00    -0.021 A 
HETATM    8  N   UNL     1      23.744  46.660  49.959  1.00  0.00    -0.357 N 
HETATM    9  C   UNL     1      25.866  46.144  50.441  1.00  0.00     0.002 A 
HETATM   10  C   UNL     1      26.950  48.331  49.428  1.00  0.00     0.042 C 
HETATM   11  C   UNL     1      24.544  45.704  50.545  1.00  0.00     0.043 A 
HETATM   12  C   UNL     1      26.890  45.325  50.956  1.00  0.00     0.051 A 
HETATM   13  C   UNL     1      24.203  44.489  51.148  1.00  0.00     0.033 A 
HETATM   14  C   UNL     1      25.241  43.697  51.658  1.00  0.00     0.039 A 
HETATM   15  C   UNL     1      26.572  44.103  51.564  1.00  0.00     0.069 A 
HETATM   16  C   UNL     1      26.483  49.407  48.426  1.00  0.00     0.007 C 
HETATM   17  C   UNL     1      25.110  49.999  48.802  1.00  0.00     0.032 C 
HETATM   18  H   UNL     1      22.739  46.601  49.872  1.00  0.00     0.166 HD
BRANCH  15  19
HETATM   19  O   UNL     1      27.657  43.403  52.021  1.00  0.00    -0.356 OA
HETATM   20  C   UNL     1      28.274  43.875  53.212  1.00  0.00     0.210 C 
ENDBRANCH  15  19
ENDBRANCH   2   5
BRANCH   1  21
HETATM   21  C   UNL     1      20.786  50.672  49.757  1.00  0.00     0.164 C 
BRANCH  21  22
HETATM   22  C   UNL     1      19.504  50.061  49.244  1.00  0.00     0.075 A 
HETATM   23  N   UNL     1      19.587  48.853  48.777  1.00  0.00    -0.172 NA
HETATM   24  N   UNL     1      18.465  48.247  48.263  1.00  0.00    -0.230 N 
HETATM   25  C   UNL     1      17.236  48.892  48.120  1.00  0.00     0.275 A 
HETATM   26  C   UNL     1      17.129  50.244  48.698  1.00  0.00     0.046 A 
HETATM   27  O   UNL     1      16.260  48.402  47.557  1.00  0.00    -0.266 OA
HETATM   28  C   UNL     1      18.246  50.834  49.281  1.00  0.00     0.006 A 
HETATM   29  C   UNL     1      15.906  50.928  48.662  1.00  0.00     0.018 A 
HETATM   30  C   UNL     1      18.138  52.108  49.852  1.00  0.00     0.014 A 
HETATM   31  C   UNL     1      16.916  52.786  49.821  1.00  0.00     0.001 A 
HETATM   32  C   UNL     1      15.803  52.200  49.222  1.00  0.00     0.001 A 
BRANCH  24  33
HETATM   33  C   UNL     1      18.658  46.929  47.636  1.00  0.00     0.105 C 
HETATM   34  C   UNL     1      19.528  45.997  48.481  1.00  0.00     0.034 C 
HETATM   35  C   UNL     1      19.241  47.088  46.230  1.00  0.00     0.034 C 
ENDBRANCH  24  33
ENDBRANCH  21  22
ENDBRANCH   1  21
TORSDOF 5
ENDMDL
MODEL 7
REMARK VINA RESULT:      -9.2      3.186      5.556
REMARK  5 active torsions:
REMARK  status: ('A' for Active; 'I' for Inactive)
REMARK    1  A    between atoms: C_2  and  N_3 
REMARK    2  A    between atoms: C_5  and  C_6 
REMARK    3  A    between atoms: C_6  and  C_7 
REMARK       I    between atoms: C_7  and  N_8 
REMARK    4  A    between atoms: N_8  and  C_9 
REMARK    5  A    between atoms: C_16  and  O_17 
ROOT
HETATM    1  C   UNL     1      28.681  42.973  52.364  1.00  0.00     0.224 C 
HETATM    2  N   UNL     1      27.713  42.075  52.751  1.00  0.00    -0.351 N 
HETATM    3  O   UNL     1      28.667  43.577  51.295  1.00  0.00    -0.273 OA
HETATM    4  H   UNL     1      27.940  41.417  53.491  1.00  0.00     0.163 HD
ENDROOT
BRANCH   2   5
HETATM    5  C   UNL     1      26.602  41.755  51.884  1.00  0.00     0.135 C 
HETATM    6  C   UNL     1      27.108  40.908  50.766  1.00  0.00     0.040 A 
HETATM    7  C   UNL     1      26.734  40.998  49.441  1.00  0.00    -0.021 A 
HETATM    8  N   UNL     1      27.974  39.856  50.895  1.00  0.00    -0.357 N 
HETATM    9  C   UNL     1      27.427  39.978  48.731  1.00  0.00     0.002 A 
HETATM   10  C   UNL     1      25.779  42.032  48.947  1.00  0.00     0.042 C 
HETATM   11  C   UNL     1      28.205  39.287  49.662  1.00  0.00     0.043 A 
HETATM   12  C   UNL     1      27.473  39.571  47.382  1.00  0.00     0.051 A 
HETATM   13  C   UNL     1      29.030  38.216  49.305  1.00  0.00     0.033 A 
HETATM   14  C   UNL     1      29.062  37.836  47.955  1.00  0.00     0.039 A 
HETATM   15  C   UNL     1      28.292  38.500  46.999  1.00  0.00     0.069 A 
HETATM   16  C   UNL     1      25.012  42.687  50.114  1.00  0.00     0.007 C 
HETATM   17  C   UNL     1      25.934  43.022  51.303  1.00  0.00     0.032 C 
HETATM   18  H   UNL     1      28.390  39.548  51.763  1.00  0.00     0.166 HD
BRANCH  15  19
HETATM   19  O   UNL     1      28.245  38.204  45.663  1.00  0.00    -0.356 OA
HETATM   20  C   UNL     1      28.113  39.299  44.765  1.00  0.00     0.210 C 
ENDBRANCH  15  19
ENDBRANCH   2   5
BRANCH   1  21
HETATM   21  C   UNL     1      29.763  43.197  53.387  1.00  0.00     0.164 C 
BRANCH  21  22
HETATM   22  C   UNL     1      29.347  44.124  54.504  1.00  0.00     0.075 A 
HETATM   23  N   UNL     1      28.286  44.841  54.295  1.00  0.00    -0.172 NA
HETATM   24  N   UNL     1      27.869  45.731  55.257  1.00  0.00    -0.230 N 
HETATM   25  C   UNL     1      28.580  45.989  56.430  1.00  0.00     0.275 A 
HETATM   26  C   UNL     1      29.754  45.137  56.691  1.00  0.00     0.046 A 
HETATM   27  O   UNL     1      28.281  46.863  57.240  1.00  0.00    -0.266 OA
HETATM   28  C   UNL     1      30.139  44.187  55.750  1.00  0.00     0.006 A 
HETATM   29  C   UNL     1      30.476  45.283  57.884  1.00  0.00     0.018 A 
HETATM   30  C   UNL     1      31.239  43.361  56.009  1.00  0.00     0.014 A 
HETATM   31  C   UNL     1      31.954  43.504  57.202  1.00  0.00     0.001 A 
HETATM   32  C   UNL     1      31.576  44.466  58.136  1.00  0.00     0.001 A 
BRANCH  24  33
HETATM   33  C   UNL     1      26.736  46.601  54.902  1.00  0.00     0.105 C 
HETATM   34  C   UNL     1      25.786  45.948  53.896  1.00  0.00     0.034 C 
HETATM   35  C   UNL     1      27.242  47.946  54.374  1.00  0.00     0.034 C 
ENDBRANCH  24  33
ENDBRANCH  21  22
ENDBRANCH   1  21
TORSDOF 5
ENDMDL
MODEL 8
REMARK VINA RESULT:      -9.2      2.482      4.376
REMARK  5 active torsions:
REMARK  status: ('A' for Active; 'I' for Inactive)
REMARK    1  A    between atoms: C_2  and  N_3 
REMARK    2  A    between atoms: C_5  and  C_6 
REMARK    3  A    between atoms: C_6  and  C_7 
REMARK       I    between atoms: C_7  and  N_8 
REMARK    4  A    between atoms: N_8  and  C_9 
REMARK    5  A    between atoms: C_16  and  O_17 
ROOT
HETATM    1  C   UNL     1      24.856  45.017  51.497  1.00  0.00     0.224 C 
HETATM    2  N   UNL     1      25.256  45.406  50.240  1.00  0.00    -0.351 N 
HETATM    3  O   UNL     1      23.744  44.563  51.752  1.00  0.00    -0.273 OA
HETATM    4  H   UNL     1      26.057  46.026  50.164  1.00  0.00     0.163 HD
ENDROOT
BRANCH   2   5
HETATM    5  C   UNL     1      24.354  45.333  49.113  1.00  0.00     0.135 C 
HETATM    6  C   UNL     1      23.549  46.586  49.074  1.00  0.00     0.040 A 
HETATM    7  C   UNL     1      22.203  46.683  48.781  1.00  0.00    -0.021 A 
HETATM    8  N   UNL     1      24.039  47.852  49.253  1.00  0.00    -0.357 N 
HETATM    9  C   UNL     1      21.856  48.062  48.816  1.00  0.00     0.002 A 
HETATM   10  C   UNL     1      21.355  45.486  48.509  1.00  0.00     0.042 C 
HETATM   11  C   UNL     1      23.019  48.769  49.126  1.00  0.00     0.043 A 
HETATM   12  C   UNL     1      20.663  48.784  48.615  1.00  0.00     0.051 A 
HETATM   13  C   UNL     1      23.040  50.162  49.252  1.00  0.00     0.033 A 
HETATM   14  C   UNL     1      21.838  50.856  49.053  1.00  0.00     0.039 A 
HETATM   15  C   UNL     1      20.658  50.181  48.736  1.00  0.00     0.069 A 
HETATM   16  C   UNL     1      22.221  44.240  48.227  1.00  0.00     0.007 C 
HETATM   17  C   UNL     1      23.404  44.117  49.208  1.00  0.00     0.032 C 
HETATM   18  H   UNL     1      25.001  48.079  49.458  1.00  0.00     0.166 HD
BRANCH  15  19
HETATM   19  O   UNL     1      19.438  50.762  48.515  1.00  0.00    -0.356 OA
HETATM   20  C   UNL     1      19.064  51.825  49.382  1.00  0.00     0.210 C 
ENDBRANCH  15  19
ENDBRANCH   2   5
BRANCH   1  21
HETATM   21  C   UNL     1      25.918  45.151  52.555  1.00  0.00     0.164 C 
BRANCH  21  22
HETATM   22  C   UNL     1      26.904  44.006  52.563  1.00  0.00     0.075 A 
HETATM   23  N   UNL     1      26.695  43.059  51.701  1.00  0.00    -0.172 NA
HETATM   24  N   UNL     1      27.534  41.971  51.675  1.00  0.00    -0.230 N 
HETATM   25  C   UNL     1      28.561  41.765  52.596  1.00  0.00     0.275 A 
HETATM   26  C   UNL     1      28.831  42.865  53.541  1.00  0.00     0.046 A 
HETATM   27  O   UNL     1      29.242  40.743  52.657  1.00  0.00    -0.266 OA
HETATM   28  C   UNL     1      28.025  43.999  53.524  1.00  0.00     0.006 A 
HETATM   29  C   UNL     1      29.895  42.767  54.448  1.00  0.00     0.018 A 
HETATM   30  C   UNL     1      28.297  45.054  54.404  1.00  0.00     0.014 A 
HETATM   31  C   UNL     1      29.362  44.957  55.303  1.00  0.00     0.001 A 
HETATM   32  C   UNL     1      30.157  43.813  55.330  1.00  0.00     0.001 A 
BRANCH  24  33
HETATM   33  C   UNL     1      27.166  40.877  50.760  1.00  0.00     0.105 C 
HETATM   34  C   UNL     1      28.075  40.806  49.532  1.00  0.00     0.034 C 
HETATM   35  C   UNL     1      25.699  41.004  50.342  1.00  0.00     0.034 C 
ENDBRANCH  24  33
ENDBRANCH  21  22
ENDBRANCH   1  21
TORSDOF 5
ENDMDL
MODEL 9
REMARK VINA RESULT:      -9.1      3.625      8.707
REMARK  5 active torsions:
REMARK  status: ('A' for Active; 'I' for Inactive)
REMARK    1  A    between atoms: C_2  and  N_3 
REMARK    2  A    between atoms: C_5  and  C_6 
REMARK    3  A    between atoms: C_6  and  C_7 
REMARK       I    between atoms: C_7  and  N_8 
REMARK    4  A    between atoms: N_8  and  C_9 
REMARK    5  A    between atoms: C_16  and  O_17 
ROOT
HETATM    1  C   UNL     1      26.093  42.769  50.180  1.00  0.00     0.224 C 
HETATM    2  N   UNL     1      25.912  43.333  51.421  1.00  0.00    -0.351 N 
HETATM    3  O   UNL     1      26.723  43.302  49.272  1.00  0.00    -0.273 OA
HETATM    4  H   UNL     1      25.157  42.978  52.002  1.00  0.00     0.163 HD
ENDROOT
BRANCH   2   5
HETATM    5  C   UNL     1      26.439  44.642  51.732  1.00  0.00     0.135 C 
HETATM    6  C   UNL     1      27.453  44.494  52.815  1.00  0.00     0.040 A 
HETATM    7  C   UNL     1      27.628  45.342  53.890  1.00  0.00    -0.021 A 
HETATM    8  N   UNL     1      28.420  43.528  52.871  1.00  0.00    -0.357 N 
HETATM    9  C   UNL     1      28.726  44.851  54.648  1.00  0.00     0.002 A 
HETATM   10  C   UNL     1      26.749  46.525  54.128  1.00  0.00     0.042 C 
HETATM   11  C   UNL     1      29.196  43.709  53.996  1.00  0.00     0.043 A 
HETATM   12  C   UNL     1      29.373  45.263  55.831  1.00  0.00     0.051 A 
HETATM   13  C   UNL     1      30.274  42.959  54.476  1.00  0.00     0.033 A 
HETATM   14  C   UNL     1      30.895  43.388  55.658  1.00  0.00     0.039 A 
HETATM   15  C   UNL     1      30.456  44.528  56.332  1.00  0.00     0.069 A 
HETATM   16  C   UNL     1      25.927  46.872  52.870  1.00  0.00     0.007 C 
HETATM   17  C   UNL     1      25.334  45.618  52.195  1.00  0.00     0.032 C 
HETATM   18  H   UNL     1      28.543  42.787  52.196  1.00  0.00     0.166 HD
BRANCH  15  19
HETATM   19  O   UNL     1      30.995  45.035  57.484  1.00  0.00    -0.356 OA
HETATM   20  C   UNL     1      30.247  46.037  58.160  1.00  0.00     0.210 C 
ENDBRANCH  15  19
ENDBRANCH   2   5
BRANCH   1  21
HETATM   21  C   UNL     1      25.486  41.400  50.027  1.00  0.00     0.164 C 
BRANCH  21  22
HETATM   22  C   UNL     1      26.393  40.418  49.323  1.00  0.00     0.075 A 
HETATM   23  N   UNL     1      27.312  39.859  50.048  1.00  0.00    -0.172 NA
HETATM   24  N   UNL     1      28.193  38.980  49.464  1.00  0.00    -0.230 N 
HETATM   25  C   UNL     1      28.226  38.715  48.095  1.00  0.00     0.275 A 
HETATM   26  C   UNL     1      27.150  39.308  47.282  1.00  0.00     0.046 A 
HETATM   27  O   UNL     1      29.081  38.023  47.545  1.00  0.00    -0.266 OA
HETATM   28  C   UNL     1      26.214  40.145  47.882  1.00  0.00     0.006 A 
HETATM   29  C   UNL     1      27.069  39.027  45.910  1.00  0.00     0.018 A 
HETATM   30  C   UNL     1      25.177  40.688  47.114  1.00  0.00     0.014 A 
HETATM   31  C   UNL     1      25.095  40.402  45.749  1.00  0.00     0.001 A 
HETATM   32  C   UNL     1      26.042  39.577  45.146  1.00  0.00     0.001 A 
BRANCH  24  33
HETATM   33  C   UNL     1      29.287  38.482  50.315  1.00  0.00     0.105 C 
HETATM   34  C   UNL     1      29.114  37.010  50.693  1.00  0.00     0.034 C 
HETATM   35  C   UNL     1      29.426  39.351  51.567  1.00  0.00     0.034 C 
ENDBRANCH  24  33
ENDBRANCH  21  22
ENDBRANCH   1  21
TORSDOF 5
ENDMDL
MODEL 10
REMARK VINA RESULT:      -9.0      4.290      7.714
REMARK  5 active torsions:
REMARK  status: ('A' for Active; 'I' for Inactive)
REMARK    1  A    between atoms: C_2  and  N_3 
REMARK    2  A    between atoms: C_5  and  C_6 
REMARK    3  A    between atoms: C_6  and  C_7 
REMARK       I    between atoms: C_7  and  N_8 
REMARK    4  A    between atoms: N_8  and  C_9 
REMARK    5  A    between atoms: C_16  and  O_17 
ROOT
HETATM    1  C   UNL     1      22.725  47.784  48.656  1.00  0.00     0.224 C 
HETATM    2  N   UNL     1      21.560  47.202  49.099  1.00  0.00    -0.351 N 
HETATM    3  O   UNL     1      22.836  48.359  47.577  1.00  0.00    -0.273 OA
HETATM    4  H   UNL     1      21.623  46.512  49.842  1.00  0.00     0.163 HD
ENDROOT
BRANCH   2   5
HETATM    5  C   UNL     1      20.367  47.204  48.283  1.00  0.00     0.135 C 
HETATM    6  C   UNL     1      19.568  48.415  48.624  1.00  0.00     0.040 A 
HETATM    7  C   UNL     1      18.195  48.478  48.750  1.00  0.00    -0.021 A 
HETATM    8  N   UNL     1      20.070  49.677  48.795  1.00  0.00    -0.357 N 
HETATM    9  C   UNL     1      17.853  49.828  49.042  1.00  0.00     0.002 A 
HETATM   10  C   UNL     1      17.322  47.277  48.604  1.00  0.00     0.042 C 
HETATM   11  C   UNL     1      19.046  50.553  49.077  1.00  0.00     0.043 A 
HETATM   12  C   UNL     1      16.644  50.510  49.283  1.00  0.00     0.051 A 
HETATM   13  C   UNL     1      19.083  51.925  49.349  1.00  0.00     0.033 A 
HETATM   14  C   UNL     1      17.866  52.578  49.591  1.00  0.00     0.039 A 
HETATM   15  C   UNL     1      16.656  51.885  49.557  1.00  0.00     0.069 A 
HETATM   16  C   UNL     1      18.083  46.111  47.941  1.00  0.00     0.007 C 
HETATM   17  C   UNL     1      19.505  45.941  48.512  1.00  0.00     0.032 C 
HETATM   18  H   UNL     1      21.047  49.927  48.734  1.00  0.00     0.166 HD
BRANCH  15  19
HETATM   19  O   UNL     1      15.416  52.427  49.771  1.00  0.00    -0.356 OA
HETATM   20  C   UNL     1      14.942  53.352  48.801  1.00  0.00     0.210 C 
ENDBRANCH  15  19
ENDBRANCH   2   5
BRANCH   1  21
HETATM   21  C   UNL     1      23.869  47.699  49.631  1.00  0.00     0.164 C 
BRANCH  21  22
HETATM   22  C   UNL     1      24.183  46.286  50.065  1.00  0.00     0.075 A 
HETATM   23  N   UNL     1      23.779  45.337  49.277  1.00  0.00    -0.172 NA
HETATM   24  N   UNL     1      24.001  44.027  49.627  1.00  0.00    -0.230 N 
HETATM   25  C   UNL     1      24.560  43.637  50.845  1.00  0.00     0.275 A 
HETATM   26  C   UNL     1      25.065  44.714  51.714  1.00  0.00     0.046 A 
HETATM   27  O   UNL     1      24.656  42.469  51.219  1.00  0.00    -0.266 OA
HETATM   28  C   UNL     1      24.903  46.042  51.331  1.00  0.00     0.006 A 
HETATM   29  C   UNL     1      25.709  44.400  52.920  1.00  0.00     0.018 A 
HETATM   30  C   UNL     1      25.406  47.064  52.145  1.00  0.00     0.014 A 
HETATM   31  C   UNL     1      26.053  46.749  53.343  1.00  0.00     0.001 A 
HETATM   32  C   UNL     1      26.200  45.420  53.733  1.00  0.00     0.001 A 
BRANCH  24  33
HETATM   33  C   UNL     1      23.406  43.002  48.754  1.00  0.00     0.105 C 
HETATM   34  C   UNL     1      24.448  42.286  47.892  1.00  0.00     0.034 C 
HETATM   35  C   UNL     1      22.310  43.618  47.880  1.00  0.00     0.034 C 
ENDBRANCH  24  33
ENDBRANCH  21  22
ENDBRANCH   1  21
TORSDOF 5
ENDMDL
