MODEL 1
REMARK VINA RESULT:      -8.7      0.000      0.000
REMARK  9 active torsions:
REMARK  status: ('A' for Active; 'I' for Inactive)
REMARK    1  A    between atoms: C_2  and  C_3 
REMARK       I    between atoms: C_3  and  N_4 
REMARK    2  A    between atoms: N_4  and  N_5 
REMARK    3  A    between atoms: N_5  and  C_6 
REMARK    4  A    between atoms: C_6  and  N_7 
REMARK    5  A    between atoms: N_7  and  C_8 
REMARK    6  A    between atoms: C_18  and  N_19 
REMARK    7  A    between atoms: N_19  and  C_20 
REMARK    8  A    between atoms: C_20  and  N_21 
REMARK    9  A    between atoms: N_21  and  C_22 
ROOT
HETATM    1  C   UNL     1      25.629  46.558  52.384  1.00  0.00     0.019 A 
HETATM    2  C   UNL     1      24.906  46.151  51.260  1.00  0.00     0.033 A 
HETATM    3  C   UNL     1      24.712  44.782  51.038  1.00  0.00     0.019 A 
HETATM    4  C   UNL     1      25.255  43.829  51.912  1.00  0.00     0.030 A 
HETATM    5  C   UNL     1      26.006  44.233  53.015  1.00  0.00     0.033 A 
HETATM    6  C   UNL     1      26.173  45.603  53.250  1.00  0.00     0.030 A 
ENDROOT
BRANCH   2   7
HETATM    7  C   UNL     1      24.296  47.122  50.306  1.00  0.00     0.270 C 
HETATM    8  N   UNL     1      23.190  46.687  49.603  1.00  0.00    -0.264 N 
HETATM    9  H   UNL     1      22.787  45.760  49.675  1.00  0.00     0.190 HD
HETATM   10  O   UNL     1      24.759  48.253  50.174  1.00  0.00    -0.266 OA
BRANCH   8  11
HETATM   11  N   UNL     1      22.678  47.504  48.585  1.00  0.00    -0.274 N 
HETATM   12  H   UNL     1      23.294  47.575  47.782  1.00  0.00     0.189 HD
BRANCH  11  13
HETATM   13  C   UNL     1      21.337  47.550  48.352  1.00  0.00     0.186 C 
HETATM   14  S   UNL     1      20.354  46.208  48.141  1.00  0.00    -0.040 SA
BRANCH  13  15
HETATM   15  N   UNL     1      20.739  48.768  48.349  1.00  0.00    -0.361 N 
HETATM   16  H   UNL     1      20.138  48.882  47.540  1.00  0.00     0.162 HD
BRANCH  15  17
HETATM   17  C   UNL     1      20.591  49.810  49.374  1.00  0.00     0.083 C 
HETATM   18  C   UNL     1      20.875  51.227  48.855  1.00  0.00     0.025 C 
HETATM   19  C   UNL     1      19.641  52.078  48.580  1.00  0.00     0.002 C 
HETATM   20  C   UNL     1      18.671  52.046  49.749  1.00  0.00     0.000 C 
HETATM   21  C   UNL     1      18.204  50.629  50.043  1.00  0.00     0.002 C 
HETATM   22  C   UNL     1      19.357  49.657  50.277  1.00  0.00     0.025 C 
ENDBRANCH  15  17
ENDBRANCH  13  15
ENDBRANCH  11  13
ENDBRANCH   8  11
ENDBRANCH   2   7
BRANCH   5  23
HETATM   23  N   UNL     1      26.553  43.365  53.978  1.00  0.00    -0.338 N 
HETATM   24  H   UNL     1      25.954  43.174  54.767  1.00  0.00     0.168 HD
BRANCH  23  25
HETATM   25  C   UNL     1      27.814  42.882  54.182  1.00  0.00     0.151 C 
HETATM   26  S   UNL     1      28.657  41.752  53.294  1.00  0.00    -0.047 SA
BRANCH  25  27
HETATM   27  N   UNL     1      28.499  43.520  55.193  1.00  0.00    -0.265 NA
HETATM   28  H   UNL     1      27.809  43.901  55.834  1.00  0.00     0.130 HD
BRANCH  27  29
HETATM   29  C   UNL     1      29.624  44.463  55.005  1.00  0.00     0.062 C 
HETATM   30  C   UNL     1      29.173  45.873  55.429  1.00  0.00     0.020 C 
HETATM   31  C   UNL     1      29.047  46.009  56.949  1.00  0.00     0.002 C 
HETATM   32  C   UNL     1      30.338  45.621  57.663  1.00  0.00     0.000 C 
HETATM   33  C   UNL     1      30.821  44.235  57.244  1.00  0.00     0.002 C 
HETATM   34  C   UNL     1      30.941  44.129  55.725  1.00  0.00     0.020 C 
ENDBRANCH  27  29
ENDBRANCH  25  27
ENDBRANCH  23  25
ENDBRANCH   5  23
TORSDOF 9
ENDMDL
MODEL 2
REMARK VINA RESULT:      -8.7      1.772      2.311
REMARK  9 active torsions:
REMARK  status: ('A' for Active; 'I' for Inactive)
REMARK    1  A    between atoms: C_2  and  C_3 
REMARK       I    between atoms: C_3  and  N_4 
REMARK    2  A    between atoms: N_4  and  N_5 
REMARK    3  A    between atoms: N_5  and  C_6 
REMARK    4  A    between atoms: C_6  and  N_7 
REMARK    5  A    between atoms: N_7  and  C_8 
REMARK    6  A    between atoms: C_18  and  N_19 
REMARK    7  A    between atoms: N_19  and  C_20 
REMARK    8  A    between atoms: C_20  and  N_21 
REMARK    9  A    between atoms: N_21  and  C_22 
ROOT
HETATM    1  C   UNL     1      25.679  44.892  49.420  1.00  0.00     0.019 A 
HETATM    2  C   UNL     1      24.726  45.506  50.237  1.00  0.00     0.033 A 
HETATM    3  C   UNL     1      24.252  44.818  51.360  1.00  0.00     0.019 A 
HETATM    4  C   UNL     1      24.703  43.523  51.652  1.00  0.00     0.030 A 
HETATM    5  C   UNL     1      25.629  42.896  50.819  1.00  0.00     0.033 A 
HETATM    6  C   UNL     1      26.123  43.598  49.713  1.00  0.00     0.030 A 
ENDROOT
BRANCH   2   7
HETATM    7  C   UNL     1      24.222  46.886  49.980  1.00  0.00     0.270 C 
HETATM    8  N   UNL     1      22.990  46.990  49.363  1.00  0.00    -0.264 N 
HETATM    9  H   UNL     1      22.427  46.204  49.061  1.00  0.00     0.190 HD
HETATM   10  O   UNL     1      24.876  47.871  50.316  1.00  0.00    -0.266 OA
BRANCH   8  11
HETATM   11  N   UNL     1      22.546  48.257  48.960  1.00  0.00    -0.274 N 
HETATM   12  H   UNL     1      23.193  48.726  48.335  1.00  0.00     0.189 HD
BRANCH  11  13
HETATM   13  C   UNL     1      21.217  48.493  48.779  1.00  0.00     0.186 C 
HETATM   14  S   UNL     1      20.403  48.324  47.322  1.00  0.00    -0.040 SA
BRANCH  13  15
HETATM   15  N   UNL     1      20.483  48.830  49.869  1.00  0.00    -0.361 N 
HETATM   16  H   UNL     1      20.638  48.181  50.633  1.00  0.00     0.162 HD
BRANCH  15  17
HETATM   17  C   UNL     1      19.739  50.042  50.237  1.00  0.00     0.083 C 
HETATM   18  C   UNL     1      20.420  51.342  49.787  1.00  0.00     0.025 C 
HETATM   19  C   UNL     1      19.818  51.998  48.551  1.00  0.00     0.002 C 
HETATM   20  C   UNL     1      18.307  52.116  48.665  1.00  0.00     0.000 C 
HETATM   21  C   UNL     1      17.656  50.752  48.833  1.00  0.00     0.002 C 
HETATM   22  C   UNL     1      18.221  49.962  50.010  1.00  0.00     0.025 C 
ENDBRANCH  15  17
ENDBRANCH  13  15
ENDBRANCH  11  13
ENDBRANCH   8  11
ENDBRANCH   2   7
BRANCH   5  23
HETATM   23  N   UNL     1      26.182  41.622  51.045  1.00  0.00    -0.338 N 
HETATM   24  H   UNL     1      25.510  40.872  51.109  1.00  0.00     0.168 HD
BRANCH  23  25
HETATM   25  C   UNL     1      27.431  41.203  51.407  1.00  0.00     0.151 C 
HETATM   26  S   UNL     1      28.414  40.083  50.660  1.00  0.00    -0.047 SA
BRANCH  25  27
HETATM   27  N   UNL     1      27.971  41.904  52.463  1.00  0.00    -0.265 NA
HETATM   28  H   UNL     1      27.217  42.097  53.116  1.00  0.00     0.130 HD
BRANCH  27  29
HETATM   29  C   UNL     1      28.881  43.064  52.347  1.00  0.00     0.062 C 
HETATM   30  C   UNL     1      28.163  44.319  52.878  1.00  0.00     0.020 C 
HETATM   31  C   UNL     1      28.037  44.312  54.404  1.00  0.00     0.002 C 
HETATM   32  C   UNL     1      29.390  44.139  55.085  1.00  0.00     0.000 C 
HETATM   33  C   UNL     1      30.134  42.914  54.561  1.00  0.00     0.002 C 
HETATM   34  C   UNL     1      30.249  42.948  53.039  1.00  0.00     0.020 C 
ENDBRANCH  27  29
ENDBRANCH  25  27
ENDBRANCH  23  25
ENDBRANCH   5  23
TORSDOF 9
ENDMDL
MODEL 3
REMARK VINA RESULT:      -8.6     12.728     15.616
REMARK  9 active torsions:
REMARK  status: ('A' for Active; 'I' for Inactive)
REMARK    1  A    between atoms: C_2  and  C_3 
REMARK       I    between atoms: C_3  and  N_4 
REMARK    2  A    between atoms: N_4  and  N_5 
REMARK    3  A    between atoms: N_5  and  C_6 
REMARK    4  A    between atoms: C_6  and  N_7 
REMARK    5  A    between atoms: N_7  and  C_8 
REMARK    6  A    between atoms: C_18  and  N_19 
REMARK    7  A    between atoms: N_19  and  C_20 
REMARK    8  A    between atoms: C_20  and  N_21 
REMARK    9  A    between atoms: N_21  and  C_22 
ROOT
HETATM    1  C   UNL     1      29.415  52.228  38.939  1.00  0.00     0.019 A 
HETATM    2  C   UNL     1      29.994  52.487  40.184  1.00  0.00     0.033 A 
HETATM    3  C   UNL     1      29.339  52.044  41.340  1.00  0.00     0.019 A 
HETATM    4  C   UNL     1      28.111  51.374  41.258  1.00  0.00     0.030 A 
HETATM    5  C   UNL     1      27.516  51.144  40.018  1.00  0.00     0.033 A 
HETATM    6  C   UNL     1      28.187  51.563  38.862  1.00  0.00     0.030 A 
ENDROOT
BRANCH   2   7
HETATM    7  C   UNL     1      31.304  53.185  40.328  1.00  0.00     0.270 C 
HETATM    8  N   UNL     1      32.391  52.589  39.719  1.00  0.00    -0.264 N 
HETATM    9  H   UNL     1      32.361  51.713  39.209  1.00  0.00     0.190 HD
HETATM   10  O   UNL     1      31.393  54.241  40.949  1.00  0.00    -0.266 OA
BRANCH   8  11
HETATM   11  N   UNL     1      33.667  53.120  39.956  1.00  0.00    -0.274 N 
HETATM   12  H   UNL     1      33.645  54.010  40.443  1.00  0.00     0.189 HD
BRANCH  11  13
HETATM   13  C   UNL     1      34.718  52.292  40.212  1.00  0.00     0.186 C 
HETATM   14  S   UNL     1      35.732  51.640  39.046  1.00  0.00    -0.040 SA
BRANCH  13  15
HETATM   15  N   UNL     1      35.006  52.023  41.510  1.00  0.00    -0.361 N 
HETATM   16  H   UNL     1      35.541  52.774  41.933  1.00  0.00     0.162 HD
BRANCH  15  17
HETATM   17  C   UNL     1      34.497  51.024  42.461  1.00  0.00     0.083 C 
HETATM   18  C   UNL     1      33.722  51.635  43.637  1.00  0.00     0.025 C 
HETATM   19  C   UNL     1      32.205  51.528  43.541  1.00  0.00     0.002 C 
HETATM   20  C   UNL     1      31.768  50.113  43.199  1.00  0.00     0.000 C 
HETATM   21  C   UNL     1      32.352  49.659  41.870  1.00  0.00     0.002 C 
HETATM   22  C   UNL     1      33.872  49.778  41.815  1.00  0.00     0.025 C 
ENDBRANCH  15  17
ENDBRANCH  13  15
ENDBRANCH  11  13
ENDBRANCH   8  11
ENDBRANCH   2   7
BRANCH   5  23
HETATM   23  N   UNL     1      26.313  50.442  39.819  1.00  0.00    -0.338 N 
HETATM   24  H   UNL     1      25.485  50.917  40.146  1.00  0.00     0.168 HD
BRANCH  23  25
HETATM   25  C   UNL     1      26.040  49.152  39.462  1.00  0.00     0.151 C 
HETATM   26  S   UNL     1      24.614  48.304  39.624  1.00  0.00    -0.047 SA
BRANCH  25  27
HETATM   27  N   UNL     1      27.060  48.535  38.771  1.00  0.00    -0.265 NA
HETATM   28  H   UNL     1      26.828  48.582  37.784  1.00  0.00     0.130 HD
BRANCH  27  29
HETATM   29  C   UNL     1      27.658  47.227  39.114  1.00  0.00     0.062 C 
HETATM   30  C   UNL     1      28.916  47.009  38.251  1.00  0.00     0.020 C 
HETATM   31  C   UNL     1      30.085  47.891  38.699  1.00  0.00     0.002 C 
HETATM   32  C   UNL     1      30.408  47.698  40.177  1.00  0.00     0.000 C 
HETATM   33  C   UNL     1      29.173  47.885  41.055  1.00  0.00     0.002 C 
HETATM   34  C   UNL     1      28.025  46.993  40.589  1.00  0.00     0.020 C 
ENDBRANCH  27  29
ENDBRANCH  25  27
ENDBRANCH  23  25
ENDBRANCH   5  23
TORSDOF 9
ENDMDL
MODEL 4
REMARK VINA RESULT:      -8.3      1.503      2.351
REMARK  9 active torsions:
REMARK  status: ('A' for Active; 'I' for Inactive)
REMARK    1  A    between atoms: C_2  and  C_3 
REMARK       I    between atoms: C_3  and  N_4 
REMARK    2  A    between atoms: N_4  and  N_5 
REMARK    3  A    between atoms: N_5  and  C_6 
REMARK    4  A    between atoms: C_6  and  N_7 
REMARK    5  A    between atoms: N_7  and  C_8 
REMARK    6  A    between atoms: C_18  and  N_19 
REMARK    7  A    between atoms: N_19  and  C_20 
REMARK    8  A    between atoms: C_20  and  N_21 
REMARK    9  A    between atoms: N_21  and  C_22 
ROOT
HETATM    1  C   UNL     1      24.280  45.156  50.570  1.00  0.00     0.019 A 
HETATM    2  C   UNL     1      24.884  46.311  50.065  1.00  0.00     0.033 A 
HETATM    3  C   UNL     1      26.270  46.318  49.863  1.00  0.00     0.019 A 
HETATM    4  C   UNL     1      27.047  45.197  50.186  1.00  0.00     0.030 A 
HETATM    5  C   UNL     1      26.451  44.056  50.721  1.00  0.00     0.033 A 
HETATM    6  C   UNL     1      25.061  44.042  50.894  1.00  0.00     0.030 A 
ENDROOT
BRANCH   2   7
HETATM    7  C   UNL     1      24.102  47.526  49.695  1.00  0.00     0.270 C 
HETATM    8  N   UNL     1      22.824  47.317  49.217  1.00  0.00    -0.264 N 
HETATM    9  H   UNL     1      22.398  46.406  49.084  1.00  0.00     0.190 HD
HETATM   10  O   UNL     1      24.582  48.650  49.825  1.00  0.00    -0.266 OA
BRANCH   8  11
HETATM   11  N   UNL     1      22.109  48.411  48.711  1.00  0.00    -0.274 N 
HETATM   12  H   UNL     1      22.708  49.149  48.355  1.00  0.00     0.189 HD
BRANCH  11  13
HETATM   13  C   UNL     1      20.913  48.220  48.087  1.00  0.00     0.186 C 
HETATM   14  S   UNL     1      20.599  47.017  46.962  1.00  0.00    -0.040 SA
BRANCH  13  15
HETATM   15  N   UNL     1      19.881  49.023  48.446  1.00  0.00    -0.361 N 
HETATM   16  H   UNL     1      18.991  48.635  48.151  1.00  0.00     0.162 HD
BRANCH  15  17
HETATM   17  C   UNL     1      19.775  50.164  49.367  1.00  0.00     0.083 C 
HETATM   18  C   UNL     1      20.225  51.495  48.749  1.00  0.00     0.025 C 
HETATM   19  C   UNL     1      19.098  52.427  48.321  1.00  0.00     0.002 C 
HETATM   20  C   UNL     1      18.063  52.591  49.422  1.00  0.00     0.000 C 
HETATM   21  C   UNL     1      17.444  51.255  49.803  1.00  0.00     0.002 C 
HETATM   22  C   UNL     1      18.482  50.207  50.195  1.00  0.00     0.025 C 
ENDBRANCH  15  17
ENDBRANCH  13  15
ENDBRANCH  11  13
ENDBRANCH   8  11
ENDBRANCH   2   7
BRANCH   5  23
HETATM   23  N   UNL     1      27.129  42.863  51.033  1.00  0.00    -0.338 N 
HETATM   24  H   UNL     1      26.858  42.064  50.479  1.00  0.00     0.168 HD
BRANCH  23  25
HETATM   25  C   UNL     1      27.934  42.498  52.073  1.00  0.00     0.151 C 
HETATM   26  S   UNL     1      28.689  41.037  52.348  1.00  0.00    -0.047 SA
BRANCH  25  27
HETATM   27  N   UNL     1      28.243  43.532  52.930  1.00  0.00    -0.265 NA
HETATM   28  H   UNL     1      29.243  43.695  52.860  1.00  0.00     0.130 HD
BRANCH  27  29
HETATM   29  C   UNL     1      27.783  43.650  54.331  1.00  0.00     0.062 C 
HETATM   30  C   UNL     1      28.652  44.695  55.057  1.00  0.00     0.020 C 
HETATM   31  C   UNL     1      28.330  46.125  54.616  1.00  0.00     0.002 C 
HETATM   32  C   UNL     1      26.849  46.450  54.782  1.00  0.00     0.000 C 
HETATM   33  C   UNL     1      25.963  45.418  54.090  1.00  0.00     0.002 C 
HETATM   34  C   UNL     1      26.303  44.002  54.551  1.00  0.00     0.020 C 
ENDBRANCH  27  29
ENDBRANCH  25  27
ENDBRANCH  23  25
ENDBRANCH   5  23
TORSDOF 9
ENDMDL
MODEL 5
REMARK VINA RESULT:      -8.2     12.824     14.729
REMARK  9 active torsions:
REMARK  status: ('A' for Active; 'I' for Inactive)
REMARK    1  A    between atoms: C_2  and  C_3 
REMARK       I    between atoms: C_3  and  N_4 
REMARK    2  A    between atoms: N_4  and  N_5 
REMARK    3  A    between atoms: N_5  and  C_6 
REMARK    4  A    between atoms: C_6  and  N_7 
REMARK    5  A    between atoms: N_7  and  C_8 
REMARK    6  A    between atoms: C_18  and  N_19 
REMARK    7  A    between atoms: N_19  and  C_20 
REMARK    8  A    between atoms: C_20  and  N_21 
REMARK    9  A    between atoms: N_21  and  C_22 
ROOT
HETATM    1  C   UNL     1      30.517  51.183  38.483  1.00  0.00     0.019 A 
HETATM    2  C   UNL     1      29.657  51.814  39.386  1.00  0.00     0.033 A 
HETATM    3  C   UNL     1      30.179  52.777  40.258  1.00  0.00     0.019 A 
HETATM    4  C   UNL     1      31.546  53.088  40.249  1.00  0.00     0.030 A 
HETATM    5  C   UNL     1      32.411  52.436  39.372  1.00  0.00     0.033 A 
HETATM    6  C   UNL     1      31.881  51.494  38.480  1.00  0.00     0.030 A 
ENDROOT
BRANCH   2   7
HETATM    7  C   UNL     1      28.194  51.529  39.429  1.00  0.00     0.270 C 
HETATM    8  N   UNL     1      27.647  50.929  38.311  1.00  0.00    -0.264 N 
HETATM    9  H   UNL     1      28.163  50.695  37.470  1.00  0.00     0.190 HD
HETATM   10  O   UNL     1      27.525  51.808  40.421  1.00  0.00    -0.266 OA
BRANCH   8  11
HETATM   11  N   UNL     1      26.255  50.785  38.241  1.00  0.00    -0.274 N 
HETATM   12  H   UNL     1      25.848  51.229  37.425  1.00  0.00     0.189 HD
BRANCH  11  13
HETATM   13  C   UNL     1      25.660  49.647  38.697  1.00  0.00     0.186 C 
HETATM   14  S   UNL     1      24.453  48.807  37.890  1.00  0.00    -0.040 SA
BRANCH  13  15
HETATM   15  N   UNL     1      26.118  49.119  39.859  1.00  0.00    -0.361 N 
HETATM   16  H   UNL     1      25.583  49.455  40.653  1.00  0.00     0.162 HD
BRANCH  15  17
HETATM   17  C   UNL     1      27.026  48.004  40.161  1.00  0.00     0.083 C 
HETATM   18  C   UNL     1      27.640  47.356  38.912  1.00  0.00     0.025 C 
HETATM   19  C   UNL     1      29.084  47.745  38.621  1.00  0.00     0.002 C 
HETATM   20  C   UNL     1      29.955  47.616  39.859  1.00  0.00     0.000 C 
HETATM   21  C   UNL     1      29.451  48.504  40.986  1.00  0.00     0.002 C 
HETATM   22  C   UNL     1      27.986  48.253  41.334  1.00  0.00     0.025 C 
ENDBRANCH  15  17
ENDBRANCH  13  15
ENDBRANCH  11  13
ENDBRANCH   8  11
ENDBRANCH   2   7
BRANCH   5  23
HETATM   23  N   UNL     1      33.786  52.706  39.247  1.00  0.00    -0.338 N 
HETATM   24  H   UNL     1      34.043  53.228  38.422  1.00  0.00     0.168 HD
BRANCH  23  25
HETATM   25  C   UNL     1      34.888  52.232  39.899  1.00  0.00     0.151 C 
HETATM   26  S   UNL     1      36.323  51.676  39.258  1.00  0.00    -0.047 SA
BRANCH  25  27
HETATM   27  N   UNL     1      34.822  52.354  41.270  1.00  0.00    -0.265 NA
HETATM   28  H   UNL     1      35.420  53.131  41.534  1.00  0.00     0.130 HD
BRANCH  27  29
HETATM   29  C   UNL     1      34.941  51.240  42.236  1.00  0.00     0.062 C 
HETATM   30  C   UNL     1      34.309  51.669  43.575  1.00  0.00     0.020 C 
HETATM   31  C   UNL     1      32.781  51.715  43.506  1.00  0.00     0.002 C 
HETATM   32  C   UNL     1      32.192  50.389  43.035  1.00  0.00     0.000 C 
HETATM   33  C   UNL     1      32.817  49.929  41.721  1.00  0.00     0.002 C 
HETATM   34  C   UNL     1      34.340  49.888  41.818  1.00  0.00     0.020 C 
ENDBRANCH  27  29
ENDBRANCH  25  27
ENDBRANCH  23  25
ENDBRANCH   5  23
TORSDOF 9
ENDMDL
MODEL 6
REMARK VINA RESULT:      -8.2      2.319      3.481
REMARK  9 active torsions:
REMARK  status: ('A' for Active; 'I' for Inactive)
REMARK    1  A    between atoms: C_2  and  C_3 
REMARK       I    between atoms: C_3  and  N_4 
REMARK    2  A    between atoms: N_4  and  N_5 
REMARK    3  A    between atoms: N_5  and  C_6 
REMARK    4  A    between atoms: C_6  and  N_7 
REMARK    5  A    between atoms: N_7  and  C_8 
REMARK    6  A    between atoms: C_18  and  N_19 
REMARK    7  A    between atoms: N_19  and  C_20 
REMARK    8  A    between atoms: C_20  and  N_21 
REMARK    9  A    between atoms: N_21  and  C_22 
ROOT
HETATM    1  C   UNL     1      23.828  46.528  49.211  1.00  0.00     0.019 A 
HETATM    2  C   UNL     1      24.202  47.875  49.215  1.00  0.00     0.033 A 
HETATM    3  C   UNL     1      25.541  48.206  49.460  1.00  0.00     0.019 A 
HETATM    4  C   UNL     1      26.490  47.208  49.725  1.00  0.00     0.030 A 
HETATM    5  C   UNL     1      26.111  45.867  49.754  1.00  0.00     0.033 A 
HETATM    6  C   UNL     1      24.778  45.537  49.480  1.00  0.00     0.030 A 
ENDROOT
BRANCH   2   7
HETATM    7  C   UNL     1      23.236  48.974  48.928  1.00  0.00     0.270 C 
HETATM    8  N   UNL     1      22.353  49.301  49.938  1.00  0.00    -0.264 N 
HETATM    9  H   UNL     1      22.305  48.835  50.837  1.00  0.00     0.190 HD
HETATM   10  O   UNL     1      23.246  49.558  47.847  1.00  0.00    -0.266 OA
BRANCH   8  11
HETATM   11  N   UNL     1      21.327  50.216  49.662  1.00  0.00    -0.274 N 
HETATM   12  H   UNL     1      21.661  51.072  49.233  1.00  0.00     0.189 HD
BRANCH  11  13
HETATM   13  C   UNL     1      20.092  49.772  49.296  1.00  0.00     0.186 C 
HETATM   14  S   UNL     1      19.104  48.799  50.239  1.00  0.00    -0.040 SA
BRANCH  13  15
HETATM   15  N   UNL     1      19.597  50.198  48.107  1.00  0.00    -0.361 N 
HETATM   16  H   UNL     1      19.817  49.546  47.361  1.00  0.00     0.162 HD
BRANCH  15  17
HETATM   17  C   UNL     1      18.624  51.237  47.744  1.00  0.00     0.083 C 
HETATM   18  C   UNL     1      17.244  50.681  47.365  1.00  0.00     0.025 C 
HETATM   19  C   UNL     1      16.173  50.813  48.441  1.00  0.00     0.002 C 
HETATM   20  C   UNL     1      16.122  52.222  49.006  1.00  0.00     0.000 C 
HETATM   21  C   UNL     1      17.454  52.620  49.623  1.00  0.00     0.002 C 
HETATM   22  C   UNL     1      18.627  52.472  48.658  1.00  0.00     0.025 C 
ENDBRANCH  15  17
ENDBRANCH  13  15
ENDBRANCH  11  13
ENDBRANCH   8  11
ENDBRANCH   2   7
BRANCH   5  23
HETATM   23  N   UNL     1      26.989  44.786  49.961  1.00  0.00    -0.338 N 
HETATM   24  H   UNL     1      27.728  44.703  49.279  1.00  0.00     0.168 HD
BRANCH  23  25
HETATM   25  C   UNL     1      26.938  43.691  50.775  1.00  0.00     0.151 C 
HETATM   26  S   UNL     1      26.046  42.295  50.593  1.00  0.00    -0.047 SA
BRANCH  25  27
HETATM   27  N   UNL     1      27.844  43.723  51.813  1.00  0.00    -0.265 NA
HETATM   28  H   UNL     1      28.772  43.772  51.403  1.00  0.00     0.130 HD
BRANCH  27  29
HETATM   29  C   UNL     1      27.830  42.828  52.990  1.00  0.00     0.062 C 
HETATM   30  C   UNL     1      29.103  41.960  52.975  1.00  0.00     0.020 C 
HETATM   31  C   UNL     1      30.355  42.761  53.342  1.00  0.00     0.002 C 
HETATM   32  C   UNL     1      30.204  43.467  54.686  1.00  0.00     0.000 C 
HETATM   33  C   UNL     1      28.938  44.318  54.738  1.00  0.00     0.002 C 
HETATM   34  C   UNL     1      27.705  43.494  54.370  1.00  0.00     0.020 C 
ENDBRANCH  27  29
ENDBRANCH  25  27
ENDBRANCH  23  25
ENDBRANCH   5  23
TORSDOF 9
ENDMDL
MODEL 7
REMARK VINA RESULT:      -8.1     12.932     13.770
REMARK  9 active torsions:
REMARK  status: ('A' for Active; 'I' for Inactive)
REMARK    1  A    between atoms: C_2  and  C_3 
REMARK       I    between atoms: C_3  and  N_4 
REMARK    2  A    between atoms: N_4  and  N_5 
REMARK    3  A    between atoms: N_5  and  C_6 
REMARK    4  A    between atoms: C_6  and  N_7 
REMARK    5  A    between atoms: N_7  and  C_8 
REMARK    6  A    between atoms: C_18  and  N_19 
REMARK    7  A    between atoms: N_19  and  C_20 
REMARK    8  A    between atoms: C_20  and  N_21 
REMARK    9  A    between atoms: N_21  and  C_22 
ROOT
HETATM    1  C   UNL     1      32.026  50.771  43.450  1.00  0.00     0.019 A 
HETATM    2  C   UNL     1      32.054  49.891  42.365  1.00  0.00     0.033 A 
HETATM    3  C   UNL     1      33.246  49.737  41.647  1.00  0.00     0.019 A 
HETATM    4  C   UNL     1      34.390  50.472  41.991  1.00  0.00     0.030 A 
HETATM    5  C   UNL     1      34.355  51.375  43.052  1.00  0.00     0.033 A 
HETATM    6  C   UNL     1      33.169  51.505  43.786  1.00  0.00     0.030 A 
ENDROOT
BRANCH   2   7
HETATM    7  C   UNL     1      30.870  49.076  41.965  1.00  0.00     0.270 C 
HETATM    8  N   UNL     1      29.652  49.455  42.495  1.00  0.00    -0.264 N 
HETATM    9  H   UNL     1      29.516  50.222  43.143  1.00  0.00     0.190 HD
HETATM   10  O   UNL     1      30.987  48.128  41.193  1.00  0.00    -0.266 OA
BRANCH   8  11
HETATM   11  N   UNL     1      28.539  48.631  42.275  1.00  0.00    -0.274 N 
HETATM   12  H   UNL     1      28.276  48.089  43.091  1.00  0.00     0.189 HD
BRANCH  11  13
HETATM   13  C   UNL     1      27.539  49.036  41.443  1.00  0.00     0.186 C 
HETATM   14  S   UNL     1      26.597  48.011  40.507  1.00  0.00    -0.040 SA
BRANCH  13  15
HETATM   15  N   UNL     1      27.242  50.359  41.413  1.00  0.00    -0.361 N 
HETATM   16  H   UNL     1      26.770  50.650  42.262  1.00  0.00     0.162 HD
BRANCH  15  17
HETATM   17  C   UNL     1      27.679  51.462  40.547  1.00  0.00     0.083 C 
HETATM   18  C   UNL     1      28.229  52.669  41.320  1.00  0.00     0.025 C 
HETATM   19  C   UNL     1      29.748  52.794  41.335  1.00  0.00     0.002 C 
HETATM   20  C   UNL     1      30.331  52.653  39.939  1.00  0.00     0.000 C 
HETATM   21  C   UNL     1      29.980  51.307  39.324  1.00  0.00     0.002 C 
HETATM   22  C   UNL     1      28.479  51.032  39.308  1.00  0.00     0.025 C 
ENDBRANCH  15  17
ENDBRANCH  13  15
ENDBRANCH  11  13
ENDBRANCH   8  11
ENDBRANCH   2   7
BRANCH   5  23
HETATM   23  N   UNL     1      35.455  52.124  43.510  1.00  0.00    -0.338 N 
HETATM   24  H   UNL     1      35.255  53.093  43.709  1.00  0.00     0.168 HD
BRANCH  23  25
HETATM   25  C   UNL     1      36.796  51.874  43.548  1.00  0.00     0.151 C 
HETATM   26  S   UNL     1      37.821  51.478  42.294  1.00  0.00    -0.047 SA
BRANCH  25  27
HETATM   27  N   UNL     1      37.373  52.104  44.778  1.00  0.00    -0.265 NA
HETATM   28  H   UNL     1      36.659  52.509  45.376  1.00  0.00     0.130 HD
BRANCH  27  29
HETATM   29  C   UNL     1      38.683  52.754  45.003  1.00  0.00     0.062 C 
HETATM   30  C   UNL     1      38.548  54.263  44.725  1.00  0.00     0.020 C 
HETATM   31  C   UNL     1      37.770  54.988  45.826  1.00  0.00     0.002 C 
HETATM   32  C   UNL     1      38.380  54.748  47.204  1.00  0.00     0.000 C 
HETATM   33  C   UNL     1      38.546  53.260  47.497  1.00  0.00     0.002 C 
HETATM   34  C   UNL     1      39.327  52.563  46.386  1.00  0.00     0.020 C 
ENDBRANCH  27  29
ENDBRANCH  25  27
ENDBRANCH  23  25
ENDBRANCH   5  23
TORSDOF 9
ENDMDL
MODEL 8
REMARK VINA RESULT:      -8.0      1.924      2.435
REMARK  9 active torsions:
REMARK  status: ('A' for Active; 'I' for Inactive)
REMARK    1  A    between atoms: C_2  and  C_3 
REMARK       I    between atoms: C_3  and  N_4 
REMARK    2  A    between atoms: N_4  and  N_5 
REMARK    3  A    between atoms: N_5  and  C_6 
REMARK    4  A    between atoms: C_6  and  N_7 
REMARK    5  A    between atoms: N_7  and  C_8 
REMARK    6  A    between atoms: C_18  and  N_19 
REMARK    7  A    between atoms: N_19  and  C_20 
REMARK    8  A    between atoms: C_20  and  N_21 
REMARK    9  A    between atoms: N_21  and  C_22 
ROOT
HETATM    1  C   UNL     1      25.615  44.570  49.277  1.00  0.00     0.019 A 
HETATM    2  C   UNL     1      24.753  45.380  50.021  1.00  0.00     0.033 A 
HETATM    3  C   UNL     1      25.118  45.741  51.323  1.00  0.00     0.019 A 
HETATM    4  C   UNL     1      26.315  45.278  51.887  1.00  0.00     0.030 A 
HETATM    5  C   UNL     1      27.160  44.443  51.158  1.00  0.00     0.033 A 
HETATM    6  C   UNL     1      26.806  44.107  49.845  1.00  0.00     0.030 A 
ENDROOT
BRANCH   2   7
HETATM    7  C   UNL     1      23.474  45.910  49.465  1.00  0.00     0.270 C 
HETATM    8  N   UNL     1      23.262  47.269  49.588  1.00  0.00    -0.264 N 
HETATM    9  H   UNL     1      23.897  47.914  50.043  1.00  0.00     0.190 HD
HETATM   10  O   UNL     1      22.666  45.163  48.917  1.00  0.00    -0.266 OA
BRANCH   8  11
HETATM   11  N   UNL     1      22.012  47.788  49.224  1.00  0.00    -0.274 N 
HETATM   12  H   UNL     1      21.235  47.210  49.528  1.00  0.00     0.189 HD
BRANCH  11  13
HETATM   13  C   UNL     1      21.813  49.135  49.187  1.00  0.00     0.186 C 
HETATM   14  S   UNL     1      22.648  50.201  48.196  1.00  0.00    -0.040 SA
BRANCH  13  15
HETATM   15  N   UNL     1      20.826  49.648  49.963  1.00  0.00    -0.361 N 
HETATM   16  H   UNL     1      21.174  49.908  50.879  1.00  0.00     0.162 HD
BRANCH  15  17
HETATM   17  C   UNL     1      19.467  50.123  49.667  1.00  0.00     0.083 C 
HETATM   18  C   UNL     1      19.306  51.644  49.800  1.00  0.00     0.025 C 
HETATM   19  C   UNL     1      19.281  52.412  48.484  1.00  0.00     0.002 C 
HETATM   20  C   UNL     1      18.314  51.787  47.493  1.00  0.00     0.000 C 
HETATM   21  C   UNL     1      18.691  50.346  47.185  1.00  0.00     0.002 C 
HETATM   22  C   UNL     1      18.812  49.480  48.436  1.00  0.00     0.025 C 
ENDBRANCH  15  17
ENDBRANCH  13  15
ENDBRANCH  11  13
ENDBRANCH   8  11
ENDBRANCH   2   7
BRANCH   5  23
HETATM   23  N   UNL     1      28.404  43.963  51.609  1.00  0.00    -0.338 N 
HETATM   24  H   UNL     1      29.205  44.476  51.271  1.00  0.00     0.168 HD
BRANCH  23  25
HETATM   25  C   UNL     1      28.780  42.815  52.246  1.00  0.00     0.151 C 
HETATM   26  S   UNL     1      28.511  41.233  51.794  1.00  0.00    -0.047 SA
BRANCH  25  27
HETATM   27  N   UNL     1      29.591  43.023  53.340  1.00  0.00    -0.265 NA
HETATM   28  H   UNL     1      30.399  42.415  53.239  1.00  0.00     0.130 HD
BRANCH  27  29
HETATM   29  C   UNL     1      29.137  43.070  54.747  1.00  0.00     0.062 C 
HETATM   30  C   UNL     1      30.367  43.193  55.667  1.00  0.00     0.020 C 
HETATM   31  C   UNL     1      30.996  44.587  55.610  1.00  0.00     0.002 C 
HETATM   32  C   UNL     1      29.981  45.682  55.922  1.00  0.00     0.000 C 
HETATM   33  C   UNL     1      28.741  45.571  55.039  1.00  0.00     0.002 C 
HETATM   34  C   UNL     1      28.132  44.173  55.118  1.00  0.00     0.020 C 
ENDBRANCH  27  29
ENDBRANCH  25  27
ENDBRANCH  23  25
ENDBRANCH   5  23
TORSDOF 9
ENDMDL
MODEL 9
REMARK VINA RESULT:      -7.9     13.531     14.963
REMARK  9 active torsions:
REMARK  status: ('A' for Active; 'I' for Inactive)
REMARK    1  A    between atoms: C_2  and  C_3 
REMARK       I    between atoms: C_3  and  N_4 
REMARK    2  A    between atoms: N_4  and  N_5 
REMARK    3  A    between atoms: N_5  and  C_6 
REMARK    4  A    between atoms: C_6  and  N_7 
REMARK    5  A    between atoms: N_7  and  C_8 
REMARK    6  A    between atoms: C_18  and  N_19 
REMARK    7  A    between atoms: N_19  and  C_20 
REMARK    8  A    between atoms: C_20  and  N_21 
REMARK    9  A    between atoms: N_21  and  C_22 
ROOT
HETATM    1  C   UNL     1      32.043  50.838  43.511  1.00  0.00     0.019 A 
HETATM    2  C   UNL     1      32.130  49.960  42.426  1.00  0.00     0.033 A 
HETATM    3  C   UNL     1      33.341  49.860  41.731  1.00  0.00     0.019 A 
HETATM    4  C   UNL     1      34.445  50.643  42.095  1.00  0.00     0.030 A 
HETATM    5  C   UNL     1      34.350  51.544  43.155  1.00  0.00     0.033 A 
HETATM    6  C   UNL     1      33.146  51.621  43.867  1.00  0.00     0.030 A 
ENDROOT
BRANCH   2   7
HETATM    7  C   UNL     1      30.990  49.095  42.005  1.00  0.00     0.270 C 
HETATM    8  N   UNL     1      29.737  49.458  42.459  1.00  0.00    -0.264 N 
HETATM    9  H   UNL     1      29.549  50.247  43.067  1.00  0.00     0.190 HD
HETATM   10  O   UNL     1      31.172  48.120  41.281  1.00  0.00    -0.266 OA
BRANCH   8  11
HETATM   11  N   UNL     1      28.661  48.592  42.221  1.00  0.00    -0.274 N 
HETATM   12  H   UNL     1      28.390  48.058  43.040  1.00  0.00     0.189 HD
BRANCH  11  13
HETATM   13  C   UNL     1      27.675  48.947  41.350  1.00  0.00     0.186 C 
HETATM   14  S   UNL     1      26.843  47.881  40.358  1.00  0.00    -0.040 SA
BRANCH  13  15
HETATM   15  N   UNL     1      27.295  50.249  41.326  1.00  0.00    -0.361 N 
HETATM   16  H   UNL     1      26.753  50.490  42.149  1.00  0.00     0.162 HD
BRANCH  15  17
HETATM   17  C   UNL     1      27.711  51.397  40.509  1.00  0.00     0.083 C 
HETATM   18  C   UNL     1      28.167  52.607  41.337  1.00  0.00     0.025 C 
HETATM   19  C   UNL     1      29.675  52.806  41.421  1.00  0.00     0.002 C 
HETATM   20  C   UNL     1      30.323  52.734  40.049  1.00  0.00     0.000 C 
HETATM   21  C   UNL     1      30.067  51.391  39.384  1.00  0.00     0.002 C 
HETATM   22  C   UNL     1      28.583  51.042  39.295  1.00  0.00     0.025 C 
ENDBRANCH  15  17
ENDBRANCH  13  15
ENDBRANCH  11  13
ENDBRANCH   8  11
ENDBRANCH   2   7
BRANCH   5  23
HETATM   23  N   UNL     1      35.408  52.340  43.633  1.00  0.00    -0.338 N 
HETATM   24  H   UNL     1      35.167  52.949  44.401  1.00  0.00     0.168 HD
BRANCH  23  25
HETATM   25  C   UNL     1      36.651  52.623  43.145  1.00  0.00     0.151 C 
HETATM   26  S   UNL     1      38.084  51.811  43.402  1.00  0.00    -0.047 SA
BRANCH  25  27
HETATM   27  N   UNL     1      36.670  53.649  42.225  1.00  0.00    -0.265 NA
HETATM   28  H   UNL     1      35.715  53.980  42.122  1.00  0.00     0.130 HD
BRANCH  27  29
HETATM   29  C   UNL     1      37.364  53.617  40.920  1.00  0.00     0.062 C 
HETATM   30  C   UNL     1      36.533  52.779  39.930  1.00  0.00     0.020 C 
HETATM   31  C   UNL     1      35.269  53.510  39.470  1.00  0.00     0.002 C 
HETATM   32  C   UNL     1      35.587  54.879  38.878  1.00  0.00     0.000 C 
HETATM   33  C   UNL     1      36.430  55.724  39.829  1.00  0.00     0.002 C 
HETATM   34  C   UNL     1      37.685  54.973  40.269  1.00  0.00     0.020 C 
ENDBRANCH  27  29
ENDBRANCH  25  27
ENDBRANCH  23  25
ENDBRANCH   5  23
TORSDOF 9
ENDMDL
MODEL 10
REMARK VINA RESULT:      -7.8     13.447     16.483
REMARK  9 active torsions:
REMARK  status: ('A' for Active; 'I' for Inactive)
REMARK    1  A    between atoms: C_2  and  C_3 
REMARK       I    between atoms: C_3  and  N_4 
REMARK    2  A    between atoms: N_4  and  N_5 
REMARK    3  A    between atoms: N_5  and  C_6 
REMARK    4  A    between atoms: C_6  and  N_7 
REMARK    5  A    between atoms: N_7  and  C_8 
REMARK    6  A    between atoms: C_18  and  N_19 
REMARK    7  A    between atoms: N_19  and  C_20 
REMARK    8  A    between atoms: C_20  and  N_21 
REMARK    9  A    between atoms: N_21  and  C_22 
ROOT
HETATM    1  C   UNL     1      32.960  51.000  43.102  1.00  0.00     0.019 A 
HETATM    2  C   UNL     1      33.950  50.468  42.270  1.00  0.00     0.033 A 
HETATM    3  C   UNL     1      33.662  49.320  41.522  1.00  0.00     0.019 A 
HETATM    4  C   UNL     1      32.412  48.694  41.622  1.00  0.00     0.030 A 
HETATM    5  C   UNL     1      31.435  49.203  42.476  1.00  0.00     0.033 A 
HETATM    6  C   UNL     1      31.715  50.368  43.201  1.00  0.00     0.030 A 
ENDROOT
BRANCH   2   7
HETATM    7  C   UNL     1      35.291  51.102  42.118  1.00  0.00     0.270 C 
HETATM    8  N   UNL     1      36.387  50.282  42.302  1.00  0.00    -0.264 N 
HETATM    9  H   UNL     1      36.340  49.301  42.551  1.00  0.00     0.190 HD
HETATM   10  O   UNL     1      35.399  52.292  41.831  1.00  0.00    -0.266 OA
BRANCH   8  11
HETATM   11  N   UNL     1      37.663  50.863  42.324  1.00  0.00    -0.274 N 
HETATM   12  H   UNL     1      37.727  51.706  41.764  1.00  0.00     0.189 HD
BRANCH  11  13
HETATM   13  C   UNL     1      38.426  50.799  43.451  1.00  0.00     0.186 C 
HETATM   14  S   UNL     1      39.692  49.726  43.692  1.00  0.00    -0.040 SA
BRANCH  13  15
HETATM   15  N   UNL     1      38.186  51.711  44.426  1.00  0.00    -0.361 N 
HETATM   16  H   UNL     1      37.385  51.447  44.989  1.00  0.00     0.162 HD
BRANCH  15  17
HETATM   17  C   UNL     1      38.977  52.823  44.971  1.00  0.00     0.083 C 
HETATM   18  C   UNL     1      38.364  54.204  44.698  1.00  0.00     0.025 C 
HETATM   19  C   UNL     1      37.647  54.843  45.881  1.00  0.00     0.002 C 
HETATM   20  C   UNL     1      38.499  54.798  47.138  1.00  0.00     0.000 C 
HETATM   21  C   UNL     1      38.847  53.368  47.521  1.00  0.00     0.002 C 
HETATM   22  C   UNL     1      39.520  52.594  46.390  1.00  0.00     0.025 C 
ENDBRANCH  15  17
ENDBRANCH  13  15
ENDBRANCH  11  13
ENDBRANCH   8  11
ENDBRANCH   2   7
BRANCH   5  23
HETATM   23  N   UNL     1      30.135  48.682  42.615  1.00  0.00    -0.338 N 
HETATM   24  H   UNL     1      30.046  47.936  43.290  1.00  0.00     0.168 HD
BRANCH  23  25
HETATM   25  C   UNL     1      28.994  48.826  41.880  1.00  0.00     0.151 C 
HETATM   26  S   UNL     1      28.131  47.665  41.050  1.00  0.00    -0.047 SA
BRANCH  25  27
HETATM   27  N   UNL     1      28.439  50.085  41.949  1.00  0.00    -0.265 NA
HETATM   28  H   UNL     1      27.643  50.032  42.578  1.00  0.00     0.130 HD
BRANCH  27  29
HETATM   29  C   UNL     1      28.142  50.957  40.791  1.00  0.00     0.062 C 
HETATM   30  C   UNL     1      28.129  52.425  41.259  1.00  0.00     0.020 C 
HETATM   31  C   UNL     1      29.536  52.952  41.554  1.00  0.00     0.002 C 
HETATM   32  C   UNL     1      30.470  52.777  40.361  1.00  0.00     0.000 C 
HETATM   33  C   UNL     1      30.486  51.335  39.862  1.00  0.00     0.002 C 
HETATM   34  C   UNL     1      29.072  50.836  39.572  1.00  0.00     0.020 C 
ENDBRANCH  27  29
ENDBRANCH  25  27
ENDBRANCH  23  25
ENDBRANCH   5  23
TORSDOF 9
ENDMDL
