MODEL 1
REMARK VINA RESULT:      -8.7      0.000      0.000
REMARK  3 active torsions:
REMARK  status: ('A' for Active; 'I' for Inactive)
REMARK    1  A    between atoms: C_3  and  N_4 
REMARK       I    between atoms: N_4  and  C_5 
REMARK    2  A    between atoms: C_5  and  C_6 
REMARK    3  A    between atoms: C_6  and  C_7 
ROOT
HETATM    1  C   UNL     1      27.033  42.743  51.769  1.00  0.00     0.286 C 
HETATM    2  N   UNL     1      26.034  43.368  52.741  1.00  0.00    -0.056 N 
HETATM    3  H   UNL     1      25.294  42.673  52.902  1.00  0.00     0.278 HD
HETATM    4  H   UNL     1      26.492  43.450  53.675  1.00  0.00     0.278 HD
HETATM    5  C   UNL     1      25.382  44.659  52.351  1.00  0.00     0.209 C 
HETATM    6  C   UNL     1      24.860  44.550  50.902  1.00  0.00     0.115 C 
HETATM    7  N   UNL     1      25.887  44.069  49.985  1.00  0.00    -0.353 N 
HETATM    8  C   UNL     1      26.777  43.072  50.289  1.00  0.00     0.249 C 
HETATM    9  O   UNL     1      27.398  42.512  49.389  1.00  0.00    -0.271 OA
HETATM   10  C   UNL     1      26.339  45.833  52.559  1.00  0.00     0.035 C 
HETATM   11  C   UNL     1      25.692  47.141  52.109  1.00  0.00     0.002 C 
HETATM   12  C   UNL     1      25.226  47.061  50.658  1.00  0.00     0.002 C 
HETATM   13  C   UNL     1      24.275  45.886  50.429  1.00  0.00     0.027 C 
HETATM   14  H   UNL     1      25.734  44.172  48.982  1.00  0.00     0.163 HD
ENDROOT
BRANCH   1  15
HETATM   15  C   UNL     1      28.499  43.064  52.099  1.00  0.00     0.146 C 
BRANCH  15  16
HETATM   16  C   UNL     1      28.778  43.014  53.584  1.00  0.00     0.224 C 
HETATM   17  N   UNL     1      29.773  43.872  53.991  1.00  0.00    -0.327 N 
HETATM   18  H   UNL     1      30.307  44.344  53.271  1.00  0.00     0.169 HD
HETATM   19  O   UNL     1      28.092  42.271  54.286  1.00  0.00    -0.273 OA
BRANCH  17  20
HETATM   20  C   UNL     1      30.197  44.132  55.319  1.00  0.00     0.040 A 
HETATM   21  C   UNL     1      29.726  45.295  55.969  1.00  0.00    -0.035 A 
HETATM   22  C   UNL     1      28.824  46.295  55.297  1.00  0.00     0.050 C 
HETATM   23  C   UNL     1      30.121  45.550  57.295  1.00  0.00     0.009 A 
HETATM   24  C   UNL     1      30.964  44.674  57.973  1.00  0.00     0.001 A 
HETATM   25  C   UNL     1      31.425  43.530  57.334  1.00  0.00     0.002 A 
HETATM   26  C   UNL     1      31.045  43.262  56.016  1.00  0.00     0.030 A 
ENDBRANCH  17  20
ENDBRANCH  15  16
ENDBRANCH   1  15
TORSDOF 3
ENDMDL
MODEL 2
REMARK VINA RESULT:      -8.2      2.843      7.192
REMARK  3 active torsions:
REMARK  status: ('A' for Active; 'I' for Inactive)
REMARK    1  A    between atoms: C_3  and  N_4 
REMARK       I    between atoms: N_4  and  C_5 
REMARK    2  A    between atoms: C_5  and  C_6 
REMARK    3  A    between atoms: C_6  and  C_7 
ROOT
HETATM    1  C   UNL     1      26.043  44.439  51.105  1.00  0.00     0.286 C 
HETATM    2  N   UNL     1      27.567  44.434  51.006  1.00  0.00    -0.056 N 
HETATM    3  H   UNL     1      27.804  44.407  50.006  1.00  0.00     0.278 HD
HETATM    4  H   UNL     1      27.920  45.368  51.310  1.00  0.00     0.278 HD
HETATM    5  C   UNL     1      28.316  43.332  51.691  1.00  0.00     0.209 C 
HETATM    6  C   UNL     1      27.662  41.978  51.343  1.00  0.00     0.115 C 
HETATM    7  N   UNL     1      26.221  41.990  51.575  1.00  0.00    -0.353 N 
HETATM    8  C   UNL     1      25.407  43.049  51.270  1.00  0.00     0.249 C 
HETATM    9  O   UNL     1      24.192  42.886  51.201  1.00  0.00    -0.271 OA
HETATM   10  C   UNL     1      28.402  43.590  53.195  1.00  0.00     0.035 C 
HETATM   11  C   UNL     1      29.117  42.439  53.898  1.00  0.00     0.002 C 
HETATM   12  C   UNL     1      28.440  41.103  53.607  1.00  0.00     0.002 C 
HETATM   13  C   UNL     1      28.337  40.832  52.106  1.00  0.00     0.027 C 
HETATM   14  H   UNL     1      25.723  41.101  51.600  1.00  0.00     0.163 HD
ENDROOT
BRANCH   1  15
HETATM   15  C   UNL     1      25.499  45.364  52.207  1.00  0.00     0.146 C 
BRANCH  15  16
HETATM   16  C   UNL     1      25.271  46.774  51.713  1.00  0.00     0.224 C 
HETATM   17  N   UNL     1      25.112  46.865  50.350  1.00  0.00    -0.327 N 
HETATM   18  H   UNL     1      25.292  46.033  49.800  1.00  0.00     0.169 HD
HETATM   19  O   UNL     1      25.208  47.683  52.540  1.00  0.00    -0.273 OA
BRANCH  17  20
HETATM   20  C   UNL     1      24.787  48.021  49.595  1.00  0.00     0.040 A 
HETATM   21  C   UNL     1      25.833  48.777  49.021  1.00  0.00    -0.035 A 
HETATM   22  C   UNL     1      27.287  48.432  49.212  1.00  0.00     0.050 C 
HETATM   23  C   UNL     1      25.521  49.911  48.250  1.00  0.00     0.009 A 
HETATM   24  C   UNL     1      24.198  50.295  48.044  1.00  0.00     0.001 A 
HETATM   25  C   UNL     1      23.170  49.551  48.608  1.00  0.00     0.002 A 
HETATM   26  C   UNL     1      23.462  48.422  49.377  1.00  0.00     0.030 A 
ENDBRANCH  17  20
ENDBRANCH  15  16
ENDBRANCH   1  15
TORSDOF 3
ENDMDL
MODEL 3
REMARK VINA RESULT:      -8.0      1.986      2.712
REMARK  3 active torsions:
REMARK  status: ('A' for Active; 'I' for Inactive)
REMARK    1  A    between atoms: C_3  and  N_4 
REMARK       I    between atoms: N_4  and  C_5 
REMARK    2  A    between atoms: C_5  and  C_6 
REMARK    3  A    between atoms: C_6  and  C_7 
ROOT
HETATM    1  C   UNL     1      25.892  43.273  51.338  1.00  0.00     0.286 C 
HETATM    2  N   UNL     1      24.666  42.395  51.094  1.00  0.00    -0.056 N 
HETATM    3  H   UNL     1      25.005  41.435  50.960  1.00  0.00     0.278 HD
HETATM    4  H   UNL     1      24.123  42.335  51.984  1.00  0.00     0.278 HD
HETATM    5  C   UNL     1      23.769  42.739  49.945  1.00  0.00     0.209 C 
HETATM    6  C   UNL     1      24.627  42.979  48.683  1.00  0.00     0.115 C 
HETATM    7  N   UNL     1      25.711  43.923  48.930  1.00  0.00    -0.353 N 
HETATM    8  C   UNL     1      26.463  43.940  50.076  1.00  0.00     0.249 C 
HETATM    9  O   UNL     1      27.535  44.539  50.094  1.00  0.00    -0.271 OA
HETATM   10  C   UNL     1      22.869  43.923  50.295  1.00  0.00     0.035 C 
HETATM   11  C   UNL     1      21.995  44.305  49.103  1.00  0.00     0.002 C 
HETATM   12  C   UNL     1      22.840  44.603  47.867  1.00  0.00     0.002 C 
HETATM   13  C   UNL     1      23.755  43.432  47.507  1.00  0.00     0.027 C 
HETATM   14  H   UNL     1      26.196  44.330  48.132  1.00  0.00     0.163 HD
ENDROOT
BRANCH   1  15
HETATM   15  C   UNL     1      25.676  44.352  52.412  1.00  0.00     0.146 C 
BRANCH  15  16
HETATM   16  C   UNL     1      26.533  44.125  53.635  1.00  0.00     0.224 C 
HETATM   17  N   UNL     1      27.864  44.416  53.442  1.00  0.00    -0.327 N 
HETATM   18  H   UNL     1      28.167  44.617  52.497  1.00  0.00     0.169 HD
HETATM   19  O   UNL     1      25.988  43.753  54.675  1.00  0.00    -0.273 OA
BRANCH  17  20
HETATM   20  C   UNL     1      28.898  44.403  54.412  1.00  0.00     0.040 A 
HETATM   21  C   UNL     1      29.080  45.541  55.230  1.00  0.00    -0.035 A 
HETATM   22  C   UNL     1      28.248  46.787  55.087  1.00  0.00     0.050 C 
HETATM   23  C   UNL     1      30.088  45.530  56.212  1.00  0.00     0.009 A 
HETATM   24  C   UNL     1      30.903  44.415  56.389  1.00  0.00     0.001 A 
HETATM   25  C   UNL     1      30.723  43.296  55.586  1.00  0.00     0.002 A 
HETATM   26  C   UNL     1      29.728  43.290  54.605  1.00  0.00     0.030 A 
ENDBRANCH  17  20
ENDBRANCH  15  16
ENDBRANCH   1  15
TORSDOF 3
ENDMDL
MODEL 4
REMARK VINA RESULT:      -7.9      2.099      3.114
REMARK  3 active torsions:
REMARK  status: ('A' for Active; 'I' for Inactive)
REMARK    1  A    between atoms: C_3  and  N_4 
REMARK       I    between atoms: N_4  and  C_5 
REMARK    2  A    between atoms: C_5  and  C_6 
REMARK    3  A    between atoms: C_6  and  C_7 
ROOT
HETATM    1  C   UNL     1      26.128  45.615  51.832  1.00  0.00     0.286 C 
HETATM    2  N   UNL     1      26.192  45.188  50.367  1.00  0.00    -0.056 N 
HETATM    3  H   UNL     1      27.079  45.542  49.988  1.00  0.00     0.278 HD
HETATM    4  H   UNL     1      26.314  44.152  50.332  1.00  0.00     0.278 HD
HETATM    5  C   UNL     1      25.087  45.625  49.455  1.00  0.00     0.209 C 
HETATM    6  C   UNL     1      24.829  47.134  49.655  1.00  0.00     0.115 C 
HETATM    7  N   UNL     1      24.647  47.477  51.062  1.00  0.00    -0.353 N 
HETATM    8  C   UNL     1      25.390  46.941  52.081  1.00  0.00     0.249 C 
HETATM    9  O   UNL     1      25.401  47.486  53.181  1.00  0.00    -0.271 OA
HETATM   10  C   UNL     1      23.840  44.768  49.664  1.00  0.00     0.035 C 
HETATM   11  C   UNL     1      22.699  45.251  48.773  1.00  0.00     0.002 C 
HETATM   12  C   UNL     1      22.396  46.729  49.008  1.00  0.00     0.002 C 
HETATM   13  C   UNL     1      23.637  47.602  48.812  1.00  0.00     0.027 C 
HETATM   14  H   UNL     1      24.249  48.385  51.296  1.00  0.00     0.163 HD
ENDROOT
BRANCH   1  15
HETATM   15  C   UNL     1      25.540  44.542  52.763  1.00  0.00     0.146 C 
BRANCH  15  16
HETATM   16  C   UNL     1      26.482  44.178  53.888  1.00  0.00     0.224 C 
HETATM   17  N   UNL     1      27.785  44.558  53.664  1.00  0.00    -0.327 N 
HETATM   18  H   UNL     1      28.019  44.910  52.744  1.00  0.00     0.169 HD
HETATM   19  O   UNL     1      26.019  43.632  54.889  1.00  0.00    -0.273 OA
BRANCH  17  20
HETATM   20  C   UNL     1      28.879  44.452  54.560  1.00  0.00     0.040 A 
HETATM   21  C   UNL     1      29.163  45.536  55.420  1.00  0.00    -0.035 A 
HETATM   22  C   UNL     1      28.377  46.821  55.398  1.00  0.00     0.050 C 
HETATM   23  C   UNL     1      30.231  45.433  56.330  1.00  0.00     0.009 A 
HETATM   24  C   UNL     1      31.007  44.279  56.395  1.00  0.00     0.001 A 
HETATM   25  C   UNL     1      30.727  43.213  55.550  1.00  0.00     0.002 A 
HETATM   26  C   UNL     1      29.671  43.299  54.639  1.00  0.00     0.030 A 
ENDBRANCH  17  20
ENDBRANCH  15  16
ENDBRANCH   1  15
TORSDOF 3
ENDMDL
MODEL 5
REMARK VINA RESULT:      -7.6      6.672      9.686
REMARK  3 active torsions:
REMARK  status: ('A' for Active; 'I' for Inactive)
REMARK    1  A    between atoms: C_3  and  N_4 
REMARK       I    between atoms: N_4  and  C_5 
REMARK    2  A    between atoms: C_5  and  C_6 
REMARK    3  A    between atoms: C_6  and  C_7 
ROOT
HETATM    1  C   UNL     1      20.323  48.839  49.544  1.00  0.00     0.286 C 
HETATM    2  N   UNL     1      20.378  50.190  50.255  1.00  0.00    -0.056 N 
HETATM    3  H   UNL     1      20.344  50.001  51.264  1.00  0.00     0.278 HD
HETATM    4  H   UNL     1      21.332  50.592  50.120  1.00  0.00     0.278 HD
HETATM    5  C   UNL     1      19.322  51.201  49.933  1.00  0.00     0.209 C 
HETATM    6  C   UNL     1      17.935  50.525  49.985  1.00  0.00     0.115 C 
HETATM    7  N   UNL     1      17.891  49.304  49.188  1.00  0.00    -0.353 N 
HETATM    8  C   UNL     1      18.910  48.388  49.135  1.00  0.00     0.249 C 
HETATM    9  O   UNL     1      18.695  47.259  48.704  1.00  0.00    -0.271 OA
HETATM   10  C   UNL     1      19.611  51.879  48.594  1.00  0.00     0.035 C 
HETATM   11  C   UNL     1      18.504  52.870  48.242  1.00  0.00     0.002 C 
HETATM   12  C   UNL     1      17.135  52.194  48.233  1.00  0.00     0.002 C 
HETATM   13  C   UNL     1      16.833  51.502  49.563  1.00  0.00     0.027 C 
HETATM   14  H   UNL     1      16.983  48.900  48.962  1.00  0.00     0.163 HD
ENDROOT
BRANCH   1  15
HETATM   15  C   UNL     1      21.244  48.748  48.316  1.00  0.00     0.146 C 
BRANCH  15  16
HETATM   16  C   UNL     1      22.593  49.382  48.563  1.00  0.00     0.224 C 
HETATM   17  N   UNL     1      23.603  48.472  48.774  1.00  0.00    -0.327 N 
HETATM   18  H   UNL     1      23.343  47.499  48.878  1.00  0.00     0.169 HD
HETATM   19  O   UNL     1      22.684  50.609  48.517  1.00  0.00    -0.273 OA
BRANCH  17  20
HETATM   20  C   UNL     1      24.987  48.741  48.933  1.00  0.00     0.040 A 
HETATM   21  C   UNL     1      25.745  47.922  49.798  1.00  0.00    -0.035 A 
HETATM   22  C   UNL     1      25.138  46.797  50.595  1.00  0.00     0.050 C 
HETATM   23  C   UNL     1      27.123  48.165  49.945  1.00  0.00     0.009 A 
HETATM   24  C   UNL     1      27.747  49.196  49.248  1.00  0.00     0.001 A 
HETATM   25  C   UNL     1      27.001  50.000  48.397  1.00  0.00     0.002 A 
HETATM   26  C   UNL     1      25.631  49.775  48.240  1.00  0.00     0.030 A 
ENDBRANCH  17  20
ENDBRANCH  15  16
ENDBRANCH   1  15
TORSDOF 3
ENDMDL
MODEL 6
REMARK VINA RESULT:      -7.5      4.041      6.081
REMARK  3 active torsions:
REMARK  status: ('A' for Active; 'I' for Inactive)
REMARK    1  A    between atoms: C_3  and  N_4 
REMARK       I    between atoms: N_4  and  C_5 
REMARK    2  A    between atoms: C_5  and  C_6 
REMARK    3  A    between atoms: C_6  and  C_7 
ROOT
HETATM    1  C   UNL     1      28.033  40.345  50.073  1.00  0.00     0.286 C 
HETATM    2  N   UNL     1      28.518  38.946  50.451  1.00  0.00    -0.056 N 
HETATM    3  H   UNL     1      29.527  39.017  50.633  1.00  0.00     0.278 HD
HETATM    4  H   UNL     1      28.123  38.703  51.386  1.00  0.00     0.278 HD
HETATM    5  C   UNL     1      28.297  37.834  49.472  1.00  0.00     0.209 C 
HETATM    6  C   UNL     1      28.746  38.293  48.068  1.00  0.00     0.115 C 
HETATM    7  N   UNL     1      28.156  39.575  47.697  1.00  0.00    -0.353 N 
HETATM    8  C   UNL     1      28.011  40.628  48.562  1.00  0.00     0.249 C 
HETATM    9  O   UNL     1      27.799  41.755  48.122  1.00  0.00    -0.271 OA
HETATM   10  C   UNL     1      26.846  37.356  49.514  1.00  0.00     0.035 C 
HETATM   11  C   UNL     1      26.610  36.260  48.478  1.00  0.00     0.002 C 
HETATM   12  C   UNL     1      26.996  36.727  47.077  1.00  0.00     0.002 C 
HETATM   13  C   UNL     1      28.442  37.218  47.018  1.00  0.00     0.027 C 
HETATM   14  H   UNL     1      28.194  39.866  46.721  1.00  0.00     0.163 HD
ENDROOT
BRANCH   1  15
HETATM   15  C   UNL     1      26.659  40.702  50.662  1.00  0.00     0.146 C 
BRANCH  15  16
HETATM   16  C   UNL     1      26.682  42.007  51.424  1.00  0.00     0.224 C 
HETATM   17  N   UNL     1      27.350  41.937  52.624  1.00  0.00    -0.327 N 
HETATM   18  H   UNL     1      27.638  41.021  52.947  1.00  0.00     0.169 HD
HETATM   19  O   UNL     1      26.159  42.996  50.911  1.00  0.00    -0.273 OA
BRANCH  17  20
HETATM   20  C   UNL     1      27.632  43.002  53.517  1.00  0.00     0.040 A 
HETATM   21  C   UNL     1      28.979  43.358  53.750  1.00  0.00    -0.035 A 
HETATM   22  C   UNL     1      30.135  42.626  53.121  1.00  0.00     0.050 C 
HETATM   23  C   UNL     1      29.269  44.429  54.614  1.00  0.00     0.009 A 
HETATM   24  C   UNL     1      28.250  45.141  55.240  1.00  0.00     0.001 A 
HETATM   25  C   UNL     1      26.926  44.792  55.010  1.00  0.00     0.002 A 
HETATM   26  C   UNL     1      26.619  43.730  54.155  1.00  0.00     0.030 A 
ENDBRANCH  17  20
ENDBRANCH  15  16
ENDBRANCH   1  15
TORSDOF 3
ENDMDL
MODEL 7
REMARK VINA RESULT:      -7.5      2.341      4.186
REMARK  3 active torsions:
REMARK  status: ('A' for Active; 'I' for Inactive)
REMARK    1  A    between atoms: C_3  and  N_4 
REMARK       I    between atoms: N_4  and  C_5 
REMARK    2  A    between atoms: C_5  and  C_6 
REMARK    3  A    between atoms: C_6  and  C_7 
ROOT
HETATM    1  C   UNL     1      27.316  42.189  52.149  1.00  0.00     0.286 C 
HETATM    2  N   UNL     1      26.174  41.679  51.273  1.00  0.00    -0.056 N 
HETATM    3  H   UNL     1      25.609  41.046  51.853  1.00  0.00     0.278 HD
HETATM    4  H   UNL     1      25.524  42.474  51.085  1.00  0.00     0.278 HD
HETATM    5  C   UNL     1      26.522  40.963  50.004  1.00  0.00     0.209 C 
HETATM    6  C   UNL     1      27.605  39.903  50.298  1.00  0.00     0.115 C 
HETATM    7  N   UNL     1      28.738  40.465  51.026  1.00  0.00    -0.353 N 
HETATM    8  C   UNL     1      28.616  41.374  52.045  1.00  0.00     0.249 C 
HETATM    9  O   UNL     1      29.559  41.568  52.806  1.00  0.00    -0.271 OA
HETATM   10  C   UNL     1      26.930  41.956  48.917  1.00  0.00     0.035 C 
HETATM   11  C   UNL     1      27.337  41.221  47.642  1.00  0.00     0.002 C 
HETATM   12  C   UNL     1      28.451  40.213  47.913  1.00  0.00     0.002 C 
HETATM   13  C   UNL     1      28.063  39.217  49.006  1.00  0.00     0.027 C 
HETATM   14  H   UNL     1      29.602  39.928  51.076  1.00  0.00     0.163 HD
ENDROOT
BRANCH   1  15
HETATM   15  C   UNL     1      27.647  43.675  51.930  1.00  0.00     0.146 C 
BRANCH  15  16
HETATM   16  C   UNL     1      27.646  44.460  53.221  1.00  0.00     0.224 C 
HETATM   17  N   UNL     1      28.704  44.165  54.049  1.00  0.00    -0.327 N 
HETATM   18  H   UNL     1      29.293  43.381  53.797  1.00  0.00     0.169 HD
HETATM   19  O   UNL     1      26.760  45.295  53.401  1.00  0.00    -0.273 OA
BRANCH  17  20
HETATM   20  C   UNL     1      29.040  44.795  55.275  1.00  0.00     0.040 A 
HETATM   21  C   UNL     1      30.224  44.403  55.940  1.00  0.00    -0.035 A 
HETATM   22  C   UNL     1      31.125  43.313  55.424  1.00  0.00     0.050 C 
HETATM   23  C   UNL     1      30.580  45.038  57.144  1.00  0.00     0.009 A 
HETATM   24  C   UNL     1      29.785  46.045  57.685  1.00  0.00     0.001 A 
HETATM   25  C   UNL     1      28.623  46.431  57.030  1.00  0.00     0.002 A 
HETATM   26  C   UNL     1      28.253  45.810  55.834  1.00  0.00     0.030 A 
ENDBRANCH  17  20
ENDBRANCH  15  16
ENDBRANCH   1  15
TORSDOF 3
ENDMDL
MODEL 8
REMARK VINA RESULT:      -7.5      2.342      3.831
REMARK  3 active torsions:
REMARK  status: ('A' for Active; 'I' for Inactive)
REMARK    1  A    between atoms: C_3  and  N_4 
REMARK       I    between atoms: N_4  and  C_5 
REMARK    2  A    between atoms: C_5  and  C_6 
REMARK    3  A    between atoms: C_6  and  C_7 
ROOT
HETATM    1  C   UNL     1      24.389  45.332  50.283  1.00  0.00     0.286 C 
HETATM    2  N   UNL     1      24.830  46.511  51.149  1.00  0.00    -0.056 N 
HETATM    3  H   UNL     1      24.150  46.594  51.914  1.00  0.00     0.278 HD
HETATM    4  H   UNL     1      25.712  46.246  51.640  1.00  0.00     0.278 HD
HETATM    5  C   UNL     1      24.966  47.853  50.497  1.00  0.00     0.209 C 
HETATM    6  C   UNL     1      23.707  48.138  49.649  1.00  0.00     0.115 C 
HETATM    7  N   UNL     1      23.397  47.036  48.744  1.00  0.00    -0.353 N 
HETATM    8  C   UNL     1      23.499  45.713  49.088  1.00  0.00     0.249 C 
HETATM    9  O   UNL     1      22.940  44.859  48.405  1.00  0.00    -0.271 OA
HETATM   10  C   UNL     1      26.264  47.938  49.696  1.00  0.00     0.035 C 
HETATM   11  C   UNL     1      26.373  49.287  48.989  1.00  0.00     0.002 C 
HETATM   12  C   UNL     1      25.160  49.549  48.101  1.00  0.00     0.002 C 
HETATM   13  C   UNL     1      23.850  49.458  48.884  1.00  0.00     0.027 C 
HETATM   14  H   UNL     1      22.737  47.198  47.985  1.00  0.00     0.163 HD
ENDROOT
BRANCH   1  15
HETATM   15  C   UNL     1      25.555  44.469  49.775  1.00  0.00     0.146 C 
BRANCH  15  16
HETATM   16  C   UNL     1      26.257  43.736  50.894  1.00  0.00     0.224 C 
HETATM   17  N   UNL     1      27.435  44.326  51.291  1.00  0.00    -0.327 N 
HETATM   18  H   UNL     1      27.786  45.093  50.730  1.00  0.00     0.169 HD
HETATM   19  O   UNL     1      25.721  42.734  51.369  1.00  0.00    -0.273 OA
BRANCH  17  20
HETATM   20  C   UNL     1      28.270  43.944  52.371  1.00  0.00     0.040 A 
HETATM   21  C   UNL     1      28.064  44.541  53.636  1.00  0.00    -0.035 A 
HETATM   22  C   UNL     1      27.021  45.599  53.877  1.00  0.00     0.050 C 
HETATM   23  C   UNL     1      28.870  44.151  54.721  1.00  0.00     0.009 A 
HETATM   24  C   UNL     1      29.862  43.186  54.566  1.00  0.00     0.001 A 
HETATM   25  C   UNL     1      30.063  42.600  53.323  1.00  0.00     0.002 A 
HETATM   26  C   UNL     1      29.273  42.976  52.234  1.00  0.00     0.030 A 
ENDBRANCH  17  20
ENDBRANCH  15  16
ENDBRANCH   1  15
TORSDOF 3
ENDMDL
MODEL 9
REMARK VINA RESULT:      -7.4      3.452      8.374
REMARK  3 active torsions:
REMARK  status: ('A' for Active; 'I' for Inactive)
REMARK    1  A    between atoms: C_3  and  N_4 
REMARK       I    between atoms: N_4  and  C_5 
REMARK    2  A    between atoms: C_5  and  C_6 
REMARK    3  A    between atoms: C_6  and  C_7 
ROOT
HETATM    1  C   UNL     1      25.279  46.456  51.696  1.00  0.00     0.286 C 
HETATM    2  N   UNL     1      25.251  44.964  51.366  1.00  0.00    -0.056 N 
HETATM    3  H   UNL     1      24.275  44.655  51.453  1.00  0.00     0.278 HD
HETATM    4  H   UNL     1      25.447  44.850  50.347  1.00  0.00     0.278 HD
HETATM    5  C   UNL     1      26.107  44.044  52.180  1.00  0.00     0.209 C 
HETATM    6  C   UNL     1      25.908  44.356  53.679  1.00  0.00     0.115 C 
HETATM    7  N   UNL     1      26.071  45.777  53.969  1.00  0.00    -0.353 N 
HETATM    8  C   UNL     1      25.594  46.780  53.166  1.00  0.00     0.249 C 
HETATM    9  O   UNL     1      25.491  47.920  53.609  1.00  0.00    -0.271 OA
HETATM   10  C   UNL     1      27.567  44.129  51.736  1.00  0.00     0.035 C 
HETATM   11  C   UNL     1      28.446  43.231  52.604  1.00  0.00     0.002 C 
HETATM   12  C   UNL     1      28.300  43.573  54.084  1.00  0.00     0.002 C 
HETATM   13  C   UNL     1      26.844  43.504  54.544  1.00  0.00     0.027 C 
HETATM   14  H   UNL     1      26.188  46.067  54.939  1.00  0.00     0.163 HD
ENDROOT
BRANCH   1  15
HETATM   15  C   UNL     1      26.225  47.270  50.798  1.00  0.00     0.146 C 
BRANCH  15  16
HETATM   16  C   UNL     1      25.485  48.024  49.719  1.00  0.00     0.224 C 
HETATM   17  N   UNL     1      24.139  48.164  49.963  1.00  0.00    -0.327 N 
HETATM   18  H   UNL     1      23.749  47.651  50.745  1.00  0.00     0.169 HD
HETATM   19  O   UNL     1      26.127  48.471  48.768  1.00  0.00    -0.273 OA
BRANCH  17  20
HETATM   20  C   UNL     1      23.195  48.899  49.201  1.00  0.00     0.040 A 
HETATM   21  C   UNL     1      22.244  48.193  48.431  1.00  0.00    -0.035 A 
HETATM   22  C   UNL     1      22.213  46.690  48.351  1.00  0.00     0.050 C 
HETATM   23  C   UNL     1      21.288  48.912  47.690  1.00  0.00     0.009 A 
HETATM   24  C   UNL     1      21.266  50.304  47.707  1.00  0.00     0.001 A 
HETATM   25  C   UNL     1      22.201  50.996  48.465  1.00  0.00     0.002 A 
HETATM   26  C   UNL     1      23.159  50.299  49.206  1.00  0.00     0.030 A 
ENDBRANCH  17  20
ENDBRANCH  15  16
ENDBRANCH   1  15
TORSDOF 3
ENDMDL
MODEL 10
REMARK VINA RESULT:      -7.4      2.882      5.172
REMARK  3 active torsions:
REMARK  status: ('A' for Active; 'I' for Inactive)
REMARK    1  A    between atoms: C_3  and  N_4 
REMARK       I    between atoms: N_4  and  C_5 
REMARK    2  A    between atoms: C_5  and  C_6 
REMARK    3  A    between atoms: C_6  and  C_7 
ROOT
HETATM    1  C   UNL     1      26.809  41.617  51.685  1.00  0.00     0.286 C 
HETATM    2  N   UNL     1      26.019  40.440  51.115  1.00  0.00    -0.056 N 
HETATM    3  H   UNL     1      25.903  39.758  51.875  1.00  0.00     0.278 HD
HETATM    4  H   UNL     1      25.043  40.759  50.930  1.00  0.00     0.278 HD
HETATM    5  C   UNL     1      26.580  39.722  49.926  1.00  0.00     0.209 C 
HETATM    6  C   UNL     1      28.072  39.411  50.176  1.00  0.00     0.115 C 
HETATM    7  N   UNL     1      28.815  40.594  50.597  1.00  0.00    -0.353 N 
HETATM    8  C   UNL     1      28.330  41.530  51.473  1.00  0.00     0.249 C 
HETATM    9  O   UNL     1      29.100  42.317  52.015  1.00  0.00    -0.271 OA
HETATM   10  C   UNL     1      26.338  40.522  48.647  1.00  0.00     0.035 C 
HETATM   11  C   UNL     1      26.959  39.814  47.445  1.00  0.00     0.002 C 
HETATM   12  C   UNL     1      28.448  39.557  47.659  1.00  0.00     0.002 C 
HETATM   13  C   UNL     1      28.710  38.766  48.941  1.00  0.00     0.027 C 
HETATM   14  H   UNL     1      29.833  40.566  50.570  1.00  0.00     0.163 HD
ENDROOT
BRANCH   1  15
HETATM   15  C   UNL     1      26.319  42.987  51.190  1.00  0.00     0.146 C 
BRANCH  15  16
HETATM   16  C   UNL     1      25.987  43.924  52.328  1.00  0.00     0.224 C 
HETATM   17  N   UNL     1      27.039  44.721  52.715  1.00  0.00    -0.327 N 
HETATM   18  H   UNL     1      27.949  44.524  52.315  1.00  0.00     0.169 HD
HETATM   19  O   UNL     1      24.839  43.927  52.771  1.00  0.00    -0.273 OA
BRANCH  17  20
HETATM   20  C   UNL     1      27.023  45.763  53.677  1.00  0.00     0.040 A 
HETATM   21  C   UNL     1      27.952  45.723  54.741  1.00  0.00    -0.035 A 
HETATM   22  C   UNL     1      28.934  44.597  54.923  1.00  0.00     0.050 C 
HETATM   23  C   UNL     1      27.961  46.765  55.687  1.00  0.00     0.009 A 
HETATM   24  C   UNL     1      27.071  47.831  55.587  1.00  0.00     0.001 A 
HETATM   25  C   UNL     1      26.160  47.870  54.540  1.00  0.00     0.002 A 
HETATM   26  C   UNL     1      26.135  46.844  53.592  1.00  0.00     0.030 A 
ENDBRANCH  17  20
ENDBRANCH  15  16
ENDBRANCH   1  15
TORSDOF 3
ENDMDL
