MODEL 1
REMARK VINA RESULT:     -10.3      0.000      0.000
REMARK  7 active torsions:
REMARK  status: ('A' for Active; 'I' for Inactive)
REMARK    1  A    between atoms: C_3  and  C_4 
REMARK       I    between atoms: C_4  and  N_5 
REMARK    2  A    between atoms: N_5  and  C_6 
REMARK    3  A    between atoms: C_6  and  C_7 
REMARK    4  A    between atoms: C_7  and  O_8 
REMARK    5  A    between atoms: C_7  and  C_9 
REMARK    6  A    between atoms: C_18  and  N_19 
REMARK       I    between atoms: N_19  and  C_20 
REMARK    7  A    between atoms: C_20  and  C_21 
ROOT
HETATM    1  C   UNL     1      27.228  49.064  49.040  1.00  0.00     0.050 C 
HETATM    2  C   UNL     1      25.833  48.562  49.235  1.00  0.00    -0.037 A 
HETATM    3  C   UNL     1      25.491  47.280  49.654  1.00  0.00     0.080 A 
HETATM    4  S   UNL     1      23.789  47.090  49.741  1.00  0.00    -0.066 SA
HETATM    5  C   UNL     1      23.495  48.693  49.294  1.00  0.00     0.078 A 
HETATM    6  C   UNL     1      24.664  49.371  49.037  1.00  0.00     0.045 A 
ENDROOT
BRANCH   3   7
HETATM    7  C   UNL     1      26.392  46.190  50.019  1.00  0.00     0.259 C 
HETATM    8  N   UNL     1      26.199  45.621  51.262  1.00  0.00    -0.354 N 
HETATM    9  H   UNL     1      25.488  46.047  51.847  1.00  0.00     0.162 HD
HETATM   10  O   UNL     1      27.299  45.789  49.292  1.00  0.00    -0.267 OA
BRANCH   8  11
HETATM   11  C   UNL     1      27.194  44.767  51.902  1.00  0.00     0.159 C 
BRANCH  11  12
HETATM   12  C   UNL     1      26.907  44.427  53.384  1.00  0.00     0.169 C 
BRANCH  12  13
HETATM   13  O   UNL     1      26.233  43.177  53.532  1.00  0.00    -0.389 OA
HETATM   14  H   UNL     1      26.005  42.862  52.631  1.00  0.00     0.210 HD
ENDBRANCH  12  13
BRANCH  12  15
HETATM   15  C   UNL     1      28.209  44.335  54.161  1.00  0.00    -0.028 A 
HETATM   16  C   UNL     1      29.094  43.268  53.940  1.00  0.00     0.013 A 
HETATM   17  C   UNL     1      30.275  43.166  54.678  1.00  0.00     0.043 A 
HETATM   18  C   UNL     1      30.573  44.126  55.638  1.00  0.00     0.116 A 
HETATM   19  F   UNL     1      31.706  44.024  56.346  1.00  0.00    -0.206 F 
HETATM   20  C   UNL     1      29.713  45.190  55.875  1.00  0.00     0.043 A 
HETATM   21  C   UNL     1      28.532  45.294  55.139  1.00  0.00     0.013 A 
ENDBRANCH  12  15
ENDBRANCH  11  12
ENDBRANCH   8  11
ENDBRANCH   3   7
BRANCH   5  22
HETATM   22  N   UNL     1      22.226  49.239  49.245  1.00  0.00    -0.317 N 
HETATM   23  C   UNL     1      21.766  50.345  49.932  1.00  0.00     0.258 C 
HETATM   24  O   UNL     1      22.387  50.981  50.779  1.00  0.00    -0.267 OA
HETATM   25  H   UNL     1      21.572  48.752  48.644  1.00  0.00     0.169 HD
BRANCH  23  26
HETATM   26  C   UNL     1      20.394  50.833  49.567  1.00  0.00     0.054 A 
HETATM   27  C   UNL     1      19.180  50.355  50.087  1.00  0.00     0.049 A 
HETATM   28 CL   UNL     1      19.063  49.150  51.323  1.00  0.00    -0.083 Cl
HETATM   29  C   UNL     1      17.962  50.875  49.624  1.00  0.00     0.025 A 
HETATM   30  C   UNL     1      17.938  51.879  48.656  1.00  0.00     0.002 A 
HETATM   31  C   UNL     1      19.133  52.375  48.149  1.00  0.00     0.001 A 
HETATM   32  C   UNL     1      20.348  51.858  48.601  1.00  0.00     0.019 A 
ENDBRANCH  23  26
ENDBRANCH   5  22
TORSDOF 7
ENDMDL
MODEL 2
REMARK VINA RESULT:      -9.7      1.799      2.221
REMARK  7 active torsions:
REMARK  status: ('A' for Active; 'I' for Inactive)
REMARK    1  A    between atoms: C_3  and  C_4 
REMARK       I    between atoms: C_4  and  N_5 
REMARK    2  A    between atoms: N_5  and  C_6 
REMARK    3  A    between atoms: C_6  and  C_7 
REMARK    4  A    between atoms: C_7  and  O_8 
REMARK    5  A    between atoms: C_7  and  C_9 
REMARK    6  A    between atoms: C_18  and  N_19 
REMARK       I    between atoms: N_19  and  C_20 
REMARK    7  A    between atoms: C_20  and  C_21 
ROOT
HETATM    1  C   UNL     1      23.979  43.559  48.322  1.00  0.00     0.050 C 
HETATM    2  C   UNL     1      23.937  44.947  48.877  1.00  0.00    -0.037 A 
HETATM    3  C   UNL     1      24.952  45.551  49.613  1.00  0.00     0.080 A 
HETATM    4  S   UNL     1      24.515  47.142  50.080  1.00  0.00    -0.066 SA
HETATM    5  C   UNL     1      23.032  47.071  49.274  1.00  0.00     0.078 A 
HETATM    6  C   UNL     1      22.833  45.844  48.684  1.00  0.00     0.045 A 
ENDROOT
BRANCH   3   7
HETATM    7  C   UNL     1      26.255  44.993  49.961  1.00  0.00     0.259 C 
HETATM    8  N   UNL     1      26.294  44.155  51.058  1.00  0.00    -0.354 N 
HETATM    9  H   UNL     1      25.426  44.045  51.570  1.00  0.00     0.162 HD
HETATM   10  O   UNL     1      27.289  45.251  49.346  1.00  0.00    -0.267 OA
BRANCH   8  11
HETATM   11  C   UNL     1      27.538  43.785  51.724  1.00  0.00     0.159 C 
BRANCH  11  12
HETATM   12  C   UNL     1      27.363  43.121  53.111  1.00  0.00     0.169 C 
BRANCH  12  13
HETATM   13  O   UNL     1      27.441  41.697  53.043  1.00  0.00    -0.389 OA
HETATM   14  H   UNL     1      27.302  41.354  53.951  1.00  0.00     0.210 HD
ENDBRANCH  12  13
BRANCH  12  15
HETATM   15  C   UNL     1      28.456  43.590  54.056  1.00  0.00    -0.028 A 
HETATM   16  C   UNL     1      29.582  42.786  54.296  1.00  0.00     0.013 A 
HETATM   17  C   UNL     1      30.570  43.203  55.190  1.00  0.00     0.043 A 
HETATM   18  C   UNL     1      30.435  44.421  55.847  1.00  0.00     0.116 A 
HETATM   19  F   UNL     1      31.384  44.817  56.707  1.00  0.00    -0.206 F 
HETATM   20  C   UNL     1      29.330  45.233  55.627  1.00  0.00     0.043 A 
HETATM   21  C   UNL     1      28.342  44.818  54.734  1.00  0.00     0.013 A 
ENDBRANCH  12  15
ENDBRANCH  11  12
ENDBRANCH   8  11
ENDBRANCH   3   7
BRANCH   5  22
HETATM   22  N   UNL     1      22.165  48.145  49.198  1.00  0.00    -0.317 N 
HETATM   23  C   UNL     1      22.233  49.212  48.324  1.00  0.00     0.258 C 
HETATM   24  O   UNL     1      23.134  49.434  47.520  1.00  0.00    -0.267 OA
HETATM   25  H   UNL     1      21.412  48.138  49.875  1.00  0.00     0.169 HD
BRANCH  23  26
HETATM   26  C   UNL     1      21.067  50.158  48.336  1.00  0.00     0.054 A 
HETATM   27  C   UNL     1      20.705  51.013  49.388  1.00  0.00     0.049 A 
HETATM   28 CL   UNL     1      21.611  51.182  50.854  1.00  0.00    -0.083 Cl
HETATM   29  C   UNL     1      19.561  51.819  49.281  1.00  0.00     0.025 A 
HETATM   30  C   UNL     1      18.778  51.793  48.127  1.00  0.00     0.002 A 
HETATM   31  C   UNL     1      19.137  50.966  47.070  1.00  0.00     0.001 A 
HETATM   32  C   UNL     1      20.271  50.158  47.173  1.00  0.00     0.019 A 
ENDBRANCH  23  26
ENDBRANCH   5  22
TORSDOF 7
ENDMDL
MODEL 3
REMARK VINA RESULT:      -9.4      4.285     10.863
REMARK  7 active torsions:
REMARK  status: ('A' for Active; 'I' for Inactive)
REMARK    1  A    between atoms: C_3  and  C_4 
REMARK       I    between atoms: C_4  and  N_5 
REMARK    2  A    between atoms: N_5  and  C_6 
REMARK    3  A    between atoms: C_6  and  C_7 
REMARK    4  A    between atoms: C_7  and  O_8 
REMARK    5  A    between atoms: C_7  and  C_9 
REMARK    6  A    between atoms: C_18  and  N_19 
REMARK       I    between atoms: N_19  and  C_20 
REMARK    7  A    between atoms: C_20  and  C_21 
ROOT
HETATM    1  C   UNL     1      23.021  43.563  50.070  1.00  0.00     0.050 C 
HETATM    2  C   UNL     1      24.070  44.433  50.685  1.00  0.00    -0.037 A 
HETATM    3  C   UNL     1      24.278  45.777  50.387  1.00  0.00     0.080 A 
HETATM    4  S   UNL     1      25.586  46.418  51.292  1.00  0.00    -0.066 SA
HETATM    5  C   UNL     1      25.845  44.966  52.117  1.00  0.00     0.078 A 
HETATM    6  C   UNL     1      24.983  43.980  51.695  1.00  0.00     0.045 A 
ENDROOT
BRANCH   3   7
HETATM    7  C   UNL     1      23.515  46.615  49.465  1.00  0.00     0.259 C 
HETATM    8  N   UNL     1      23.325  47.930  49.841  1.00  0.00    -0.354 N 
HETATM    9  H   UNL     1      23.676  48.192  50.756  1.00  0.00     0.162 HD
HETATM   10  O   UNL     1      23.034  46.199  48.413  1.00  0.00    -0.267 OA
BRANCH   8  11
HETATM   11  C   UNL     1      22.331  48.794  49.213  1.00  0.00     0.159 C 
BRANCH  11  12
HETATM   12  C   UNL     1      22.148  50.175  49.886  1.00  0.00     0.169 C 
BRANCH  12  13
HETATM   13  O   UNL     1      23.102  51.133  49.425  1.00  0.00    -0.389 OA
HETATM   14  H   UNL     1      22.738  51.535  48.608  1.00  0.00     0.210 HD
ENDBRANCH  12  13
BRANCH  12  15
HETATM   15  C   UNL     1      20.767  50.727  49.578  1.00  0.00    -0.028 A 
HETATM   16  C   UNL     1      20.591  51.675  48.559  1.00  0.00     0.013 A 
HETATM   17  C   UNL     1      19.326  52.207  48.298  1.00  0.00     0.043 A 
HETATM   18  C   UNL     1      18.236  51.794  49.057  1.00  0.00     0.116 A 
HETATM   19  F   UNL     1      17.024  52.308  48.806  1.00  0.00    -0.206 F 
HETATM   20  C   UNL     1      18.385  50.858  50.071  1.00  0.00     0.043 A 
HETATM   21  C   UNL     1      19.648  50.326  50.333  1.00  0.00     0.013 A 
ENDBRANCH  12  15
ENDBRANCH  11  12
ENDBRANCH   8  11
ENDBRANCH   3   7
BRANCH   5  22
HETATM   22  N   UNL     1      26.787  44.830  53.120  1.00  0.00    -0.317 N 
HETATM   23  C   UNL     1      28.007  44.188  53.038  1.00  0.00     0.258 C 
HETATM   24  O   UNL     1      28.426  43.547  52.079  1.00  0.00    -0.267 OA
HETATM   25  H   UNL     1      26.529  45.240  54.010  1.00  0.00     0.169 HD
BRANCH  23  26
HETATM   26  C   UNL     1      28.917  44.334  54.224  1.00  0.00     0.054 A 
HETATM   27  C   UNL     1      29.041  45.471  55.037  1.00  0.00     0.049 A 
HETATM   28 CL   UNL     1      28.086  46.903  54.853  1.00  0.00    -0.083 Cl
HETATM   29  C   UNL     1      29.966  45.486  56.092  1.00  0.00     0.025 A 
HETATM   30  C   UNL     1      30.762  44.372  56.357  1.00  0.00     0.002 A 
HETATM   31  C   UNL     1      30.634  43.232  55.572  1.00  0.00     0.001 A 
HETATM   32  C   UNL     1      29.720  43.214  54.518  1.00  0.00     0.019 A 
ENDBRANCH  23  26
ENDBRANCH   5  22
TORSDOF 7
ENDMDL
MODEL 4
REMARK VINA RESULT:      -9.2      4.547     10.915
REMARK  7 active torsions:
REMARK  status: ('A' for Active; 'I' for Inactive)
REMARK    1  A    between atoms: C_3  and  C_4 
REMARK       I    between atoms: C_4  and  N_5 
REMARK    2  A    between atoms: N_5  and  C_6 
REMARK    3  A    between atoms: C_6  and  C_7 
REMARK    4  A    between atoms: C_7  and  O_8 
REMARK    5  A    between atoms: C_7  and  C_9 
REMARK    6  A    between atoms: C_18  and  N_19 
REMARK       I    between atoms: N_19  and  C_20 
REMARK    7  A    between atoms: C_20  and  C_21 
ROOT
HETATM    1  C   UNL     1      22.858  44.909  48.487  1.00  0.00     0.050 C 
HETATM    2  C   UNL     1      23.816  45.653  49.362  1.00  0.00    -0.037 A 
HETATM    3  C   UNL     1      23.851  47.035  49.523  1.00  0.00     0.080 A 
HETATM    4  S   UNL     1      25.103  47.502  50.598  1.00  0.00    -0.066 SA
HETATM    5  C   UNL     1      25.562  45.904  50.903  1.00  0.00     0.078 A 
HETATM    6  C   UNL     1      24.810  45.012  50.174  1.00  0.00     0.045 A 
ENDROOT
BRANCH   3   7
HETATM    7  C   UNL     1      22.963  48.027  48.922  1.00  0.00     0.259 C 
HETATM    8  N   UNL     1      21.769  48.260  49.574  1.00  0.00    -0.354 N 
HETATM    9  H   UNL     1      21.576  47.679  50.383  1.00  0.00     0.162 HD
HETATM   10  O   UNL     1      23.224  48.625  47.880  1.00  0.00    -0.267 OA
BRANCH   8  11
HETATM   11  C   UNL     1      20.651  48.958  48.946  1.00  0.00     0.159 C 
BRANCH  11  12
HETATM   12  C   UNL     1      19.250  48.423  49.329  1.00  0.00     0.169 C 
BRANCH  12  13
HETATM   13  O   UNL     1      19.219  47.885  50.652  1.00  0.00    -0.389 OA
HETATM   14  H   UNL     1      19.894  47.174  50.692  1.00  0.00     0.210 HD
ENDBRANCH  12  13
BRANCH  12  15
HETATM   15  C   UNL     1      18.230  49.546  49.273  1.00  0.00    -0.028 A 
HETATM   16  C   UNL     1      17.058  49.405  48.512  1.00  0.00     0.013 A 
HETATM   17  C   UNL     1      16.136  50.451  48.433  1.00  0.00     0.043 A 
HETATM   18  C   UNL     1      16.384  51.640  49.112  1.00  0.00     0.116 A 
HETATM   19  F   UNL     1      15.498  52.642  49.032  1.00  0.00    -0.206 F 
HETATM   20  C   UNL     1      17.536  51.803  49.870  1.00  0.00     0.043 A 
HETATM   21  C   UNL     1      18.458  50.760  49.949  1.00  0.00     0.013 A 
ENDBRANCH  12  15
ENDBRANCH  11  12
ENDBRANCH   8  11
ENDBRANCH   3   7
BRANCH   5  22
HETATM   22  N   UNL     1      26.545  45.566  51.813  1.00  0.00    -0.317 N 
HETATM   23  C   UNL     1      26.371  45.198  53.133  1.00  0.00     0.258 C 
HETATM   24  O   UNL     1      25.310  45.198  53.751  1.00  0.00    -0.267 OA
HETATM   25  H   UNL     1      27.493  45.612  51.458  1.00  0.00     0.169 HD
BRANCH  23  26
HETATM   26  C   UNL     1      27.594  44.712  53.857  1.00  0.00     0.054 A 
HETATM   27  C   UNL     1      28.371  45.453  54.760  1.00  0.00     0.049 A 
HETATM   28 CL   UNL     1      27.996  47.066  55.264  1.00  0.00    -0.083 Cl
HETATM   29  C   UNL     1      29.518  44.885  55.335  1.00  0.00     0.025 A 
HETATM   30  C   UNL     1      29.894  43.577  55.030  1.00  0.00     0.002 A 
HETATM   31  C   UNL     1      29.122  42.825  54.153  1.00  0.00     0.001 A 
HETATM   32  C   UNL     1      27.983  43.387  53.574  1.00  0.00     0.019 A 
ENDBRANCH  23  26
ENDBRANCH   5  22
TORSDOF 7
ENDMDL
MODEL 5
REMARK VINA RESULT:      -8.9      2.233      3.024
REMARK  7 active torsions:
REMARK  status: ('A' for Active; 'I' for Inactive)
REMARK    1  A    between atoms: C_3  and  C_4 
REMARK       I    between atoms: C_4  and  N_5 
REMARK    2  A    between atoms: N_5  and  C_6 
REMARK    3  A    between atoms: C_6  and  C_7 
REMARK    4  A    between atoms: C_7  and  O_8 
REMARK    5  A    between atoms: C_7  and  C_9 
REMARK    6  A    between atoms: C_18  and  N_19 
REMARK       I    between atoms: N_19  and  C_20 
REMARK    7  A    between atoms: C_20  and  C_21 
ROOT
HETATM    1  C   UNL     1      25.356  42.718  49.240  1.00  0.00     0.050 C 
HETATM    2  C   UNL     1      25.015  44.081  49.753  1.00  0.00    -0.037 A 
HETATM    3  C   UNL     1      25.681  44.744  50.780  1.00  0.00     0.080 A 
HETATM    4  S   UNL     1      24.980  46.279  51.083  1.00  0.00    -0.066 SA
HETATM    5  C   UNL     1      23.849  46.110  49.839  1.00  0.00     0.078 A 
HETATM    6  C   UNL     1      23.960  44.890  49.213  1.00  0.00     0.045 A 
ENDROOT
BRANCH   3   7
HETATM    7  C   UNL     1      26.845  44.284  51.533  1.00  0.00     0.259 C 
HETATM    8  N   UNL     1      26.649  44.027  52.875  1.00  0.00    -0.354 N 
HETATM    9  H   UNL     1      25.729  44.238  53.244  1.00  0.00     0.162 HD
HETATM   10  O   UNL     1      27.960  44.142  51.034  1.00  0.00    -0.267 OA
BRANCH   8  11
HETATM   11  C   UNL     1      27.752  43.882  53.819  1.00  0.00     0.159 C 
BRANCH  11  12
HETATM   12  C   UNL     1      28.380  45.213  54.299  1.00  0.00     0.169 C 
BRANCH  12  13
HETATM   13  O   UNL     1      27.403  46.116  54.816  1.00  0.00    -0.389 OA
HETATM   14  H   UNL     1      27.887  46.860  55.234  1.00  0.00     0.210 HD
ENDBRANCH  12  13
BRANCH  12  15
HETATM   15  C   UNL     1      29.383  44.946  55.407  1.00  0.00    -0.028 A 
HETATM   16  C   UNL     1      30.260  43.853  55.325  1.00  0.00     0.013 A 
HETATM   17  C   UNL     1      31.160  43.590  56.361  1.00  0.00     0.043 A 
HETATM   18  C   UNL     1      31.183  44.415  57.480  1.00  0.00     0.116 A 
HETATM   19  F   UNL     1      32.045  44.157  58.473  1.00  0.00    -0.206 F 
HETATM   20  C   UNL     1      30.324  45.501  57.584  1.00  0.00     0.043 A 
HETATM   21  C   UNL     1      29.425  45.766  56.551  1.00  0.00     0.013 A 
ENDBRANCH  12  15
ENDBRANCH  11  12
ENDBRANCH   8  11
ENDBRANCH   3   7
BRANCH   5  22
HETATM   22  N   UNL     1      22.964  47.112  49.487  1.00  0.00    -0.317 N 
HETATM   23  C   UNL     1      23.268  48.334  48.918  1.00  0.00     0.258 C 
HETATM   24  O   UNL     1      24.394  48.776  48.711  1.00  0.00    -0.267 OA
HETATM   25  H   UNL     1      21.991  46.916  49.689  1.00  0.00     0.169 HD
BRANCH  23  26
HETATM   26  C   UNL     1      22.103  49.171  48.475  1.00  0.00     0.054 A 
HETATM   27  C   UNL     1      21.051  48.752  47.646  1.00  0.00     0.049 A 
HETATM   28 CL   UNL     1      20.873  47.137  47.047  1.00  0.00    -0.083 Cl
HETATM   29  C   UNL     1      20.043  49.655  47.275  1.00  0.00     0.025 A 
HETATM   30  C   UNL     1      20.064  50.972  47.732  1.00  0.00     0.002 A 
HETATM   31  C   UNL     1      21.089  51.394  48.569  1.00  0.00     0.001 A 
HETATM   32  C   UNL     1      22.097  50.502  48.938  1.00  0.00     0.019 A 
ENDBRANCH  23  26
ENDBRANCH   5  22
TORSDOF 7
ENDMDL
MODEL 6
REMARK VINA RESULT:      -8.8      4.455     10.530
REMARK  7 active torsions:
REMARK  status: ('A' for Active; 'I' for Inactive)
REMARK    1  A    between atoms: C_3  and  C_4 
REMARK       I    between atoms: C_4  and  N_5 
REMARK    2  A    between atoms: N_5  and  C_6 
REMARK    3  A    between atoms: C_6  and  C_7 
REMARK    4  A    between atoms: C_7  and  O_8 
REMARK    5  A    between atoms: C_7  and  C_9 
REMARK    6  A    between atoms: C_18  and  N_19 
REMARK       I    between atoms: N_19  and  C_20 
REMARK    7  A    between atoms: C_20  and  C_21 
ROOT
HETATM    1  C   UNL     1      22.736  43.608  47.241  1.00  0.00     0.050 C 
HETATM    2  C   UNL     1      23.473  44.424  48.254  1.00  0.00    -0.037 A 
HETATM    3  C   UNL     1      23.152  45.726  48.626  1.00  0.00     0.080 A 
HETATM    4  S   UNL     1      24.244  46.321  49.806  1.00  0.00    -0.066 SA
HETATM    5  C   UNL     1      25.100  44.866  49.880  1.00  0.00     0.078 A 
HETATM    6  C   UNL     1      24.602  43.938  48.995  1.00  0.00     0.045 A 
ENDROOT
BRANCH   3   7
HETATM    7  C   UNL     1      22.036  46.541  48.152  1.00  0.00     0.259 C 
HETATM    8  N   UNL     1      20.867  46.472  48.883  1.00  0.00    -0.354 N 
HETATM    9  H   UNL     1      20.857  45.814  49.655  1.00  0.00     0.162 HD
HETATM   10  O   UNL     1      22.093  47.245  47.145  1.00  0.00    -0.267 OA
BRANCH   8  11
HETATM   11  C   UNL     1      19.588  46.953  48.372  1.00  0.00     0.159 C 
BRANCH  11  12
HETATM   12  C   UNL     1      18.751  47.778  49.379  1.00  0.00     0.169 C 
BRANCH  12  13
HETATM   13  O   UNL     1      19.215  47.625  50.721  1.00  0.00    -0.389 OA
HETATM   14  H   UNL     1      18.924  48.417  51.221  1.00  0.00     0.210 HD
ENDBRANCH  12  13
BRANCH  12  15
HETATM   15  C   UNL     1      18.833  49.256  49.038  1.00  0.00    -0.028 A 
HETATM   16  C   UNL     1      19.380  49.673  47.813  1.00  0.00     0.013 A 
HETATM   17  C   UNL     1      19.486  51.033  47.514  1.00  0.00     0.043 A 
HETATM   18  C   UNL     1      19.049  51.978  48.436  1.00  0.00     0.116 A 
HETATM   19  F   UNL     1      19.155  53.282  48.147  1.00  0.00    -0.206 F 
HETATM   20  C   UNL     1      18.507  51.589  49.654  1.00  0.00     0.043 A 
HETATM   21  C   UNL     1      18.400  50.231  49.955  1.00  0.00     0.013 A 
ENDBRANCH  12  15
ENDBRANCH  11  12
ENDBRANCH   8  11
ENDBRANCH   3   7
BRANCH   5  22
HETATM   22  N   UNL     1      26.141  44.650  50.763  1.00  0.00    -0.317 N 
HETATM   23  C   UNL     1      26.049  44.221  52.073  1.00  0.00     0.258 C 
HETATM   24  O   UNL     1      25.013  44.044  52.706  1.00  0.00    -0.267 OA
HETATM   25  H   UNL     1      27.064  44.848  50.396  1.00  0.00     0.169 HD
BRANCH  23  26
HETATM   26  C   UNL     1      27.345  43.901  52.762  1.00  0.00     0.054 A 
HETATM   27  C   UNL     1      27.853  44.534  53.906  1.00  0.00     0.049 A 
HETATM   28 CL   UNL     1      27.013  45.768  54.784  1.00  0.00    -0.083 Cl
HETATM   29  C   UNL     1      29.103  44.161  54.423  1.00  0.00     0.025 A 
HETATM   30  C   UNL     1      29.850  43.150  53.819  1.00  0.00     0.002 A 
HETATM   31  C   UNL     1      29.349  42.501  52.697  1.00  0.00     0.001 A 
HETATM   32  C   UNL     1      28.109  42.872  52.175  1.00  0.00     0.019 A 
ENDBRANCH  23  26
ENDBRANCH   5  22
TORSDOF 7
ENDMDL
MODEL 7
REMARK VINA RESULT:      -8.7      1.459      1.866
REMARK  7 active torsions:
REMARK  status: ('A' for Active; 'I' for Inactive)
REMARK    1  A    between atoms: C_3  and  C_4 
REMARK       I    between atoms: C_4  and  N_5 
REMARK    2  A    between atoms: N_5  and  C_6 
REMARK    3  A    between atoms: C_6  and  C_7 
REMARK    4  A    between atoms: C_7  and  O_8 
REMARK    5  A    between atoms: C_7  and  C_9 
REMARK    6  A    between atoms: C_18  and  N_19 
REMARK       I    between atoms: N_19  and  C_20 
REMARK    7  A    between atoms: C_20  and  C_21 
ROOT
HETATM    1  C   UNL     1      26.852  49.811  48.409  1.00  0.00     0.050 C 
HETATM    2  C   UNL     1      25.444  49.416  48.722  1.00  0.00    -0.037 A 
HETATM    3  C   UNL     1      25.056  48.210  49.298  1.00  0.00     0.080 A 
HETATM    4  S   UNL     1      23.353  48.130  49.483  1.00  0.00    -0.066 SA
HETATM    5  C   UNL     1      23.123  49.689  48.871  1.00  0.00     0.078 A 
HETATM    6  C   UNL     1      24.311  50.265  48.487  1.00  0.00     0.045 A 
ENDROOT
BRANCH   3   7
HETATM    7  C   UNL     1      25.915  47.116  49.744  1.00  0.00     0.259 C 
HETATM    8  N   UNL     1      25.395  46.276  50.707  1.00  0.00    -0.354 N 
HETATM    9  H   UNL     1      24.482  46.523  51.074  1.00  0.00     0.162 HD
HETATM   10  O   UNL     1      27.056  46.936  49.321  1.00  0.00    -0.267 OA
BRANCH   8  11
HETATM   11  C   UNL     1      26.221  45.356  51.483  1.00  0.00     0.159 C 
BRANCH  11  12
HETATM   12  C   UNL     1      25.771  45.153  52.950  1.00  0.00     0.169 C 
BRANCH  12  13
HETATM   13  O   UNL     1      25.251  43.844  53.180  1.00  0.00    -0.389 OA
HETATM   14  H   UNL     1      24.533  43.929  53.843  1.00  0.00     0.210 HD
ENDBRANCH  12  13
BRANCH  12  15
HETATM   15  C   UNL     1      26.951  45.344  53.887  1.00  0.00    -0.028 A 
HETATM   16  C   UNL     1      27.136  46.563  54.558  1.00  0.00     0.013 A 
HETATM   17  C   UNL     1      28.240  46.749  55.395  1.00  0.00     0.043 A 
HETATM   18  C   UNL     1      29.159  45.719  55.560  1.00  0.00     0.116 A 
HETATM   19  F   UNL     1      30.218  45.902  56.361  1.00  0.00    -0.206 F 
HETATM   20  C   UNL     1      28.998  44.505  54.906  1.00  0.00     0.043 A 
HETATM   21  C   UNL     1      27.897  44.318  54.070  1.00  0.00     0.013 A 
ENDBRANCH  12  15
ENDBRANCH  11  12
ENDBRANCH   8  11
ENDBRANCH   3   7
BRANCH   5  22
HETATM   22  N   UNL     1      21.884  50.299  48.817  1.00  0.00    -0.317 N 
HETATM   23  C   UNL     1      20.766  49.861  48.134  1.00  0.00     0.258 C 
HETATM   24  O   UNL     1      20.710  48.894  47.380  1.00  0.00    -0.267 OA
HETATM   25  H   UNL     1      21.812  51.170  49.329  1.00  0.00     0.169 HD
BRANCH  23  26
HETATM   26  C   UNL     1      19.494  50.620  48.382  1.00  0.00     0.054 A 
HETATM   27  C   UNL     1      18.729  50.592  49.558  1.00  0.00     0.049 A 
HETATM   28 CL   UNL     1      19.175  49.718  50.984  1.00  0.00    -0.083 Cl
HETATM   29  C   UNL     1      17.533  51.322  49.639  1.00  0.00     0.025 A 
HETATM   30  C   UNL     1      17.096  52.094  48.563  1.00  0.00     0.002 A 
HETATM   31  C   UNL     1      17.855  52.146  47.400  1.00  0.00     0.001 A 
HETATM   32  C   UNL     1      19.042  51.418  47.311  1.00  0.00     0.019 A 
ENDBRANCH  23  26
ENDBRANCH   5  22
TORSDOF 7
ENDMDL
MODEL 8
REMARK VINA RESULT:      -8.7     13.083     16.529
REMARK  7 active torsions:
REMARK  status: ('A' for Active; 'I' for Inactive)
REMARK    1  A    between atoms: C_3  and  C_4 
REMARK       I    between atoms: C_4  and  N_5 
REMARK    2  A    between atoms: N_5  and  C_6 
REMARK    3  A    between atoms: C_6  and  C_7 
REMARK    4  A    between atoms: C_7  and  O_8 
REMARK    5  A    between atoms: C_7  and  C_9 
REMARK    6  A    between atoms: C_18  and  N_19 
REMARK       I    between atoms: N_19  and  C_20 
REMARK    7  A    between atoms: C_20  and  C_21 
ROOT
HETATM    1  C   UNL     1      31.283  51.636  43.123  1.00  0.00     0.050 C 
HETATM    2  C   UNL     1      32.761  51.446  42.997  1.00  0.00    -0.037 A 
HETATM    3  C   UNL     1      33.402  50.795  41.947  1.00  0.00     0.080 A 
HETATM    4  S   UNL     1      35.101  50.772  42.177  1.00  0.00    -0.066 SA
HETATM    5  C   UNL     1      35.011  51.663  43.610  1.00  0.00     0.078 A 
HETATM    6  C   UNL     1      33.709  51.949  43.950  1.00  0.00     0.045 A 
ENDROOT
BRANCH   3   7
HETATM    7  C   UNL     1      32.793  50.207  40.757  1.00  0.00     0.259 C 
HETATM    8  N   UNL     1      32.962  50.896  39.573  1.00  0.00    -0.354 N 
HETATM    9  H   UNL     1      33.442  51.787  39.636  1.00  0.00     0.162 HD
HETATM   10  O   UNL     1      32.139  49.165  40.776  1.00  0.00    -0.267 OA
BRANCH   8  11
HETATM   11  C   UNL     1      32.161  50.629  38.383  1.00  0.00     0.159 C 
BRANCH  11  12
HETATM   12  C   UNL     1      31.215  51.779  37.961  1.00  0.00     0.169 C 
BRANCH  12  13
HETATM   13  O   UNL     1      30.639  51.561  36.673  1.00  0.00    -0.389 OA
HETATM   14  H   UNL     1      30.335  50.629  36.645  1.00  0.00     0.210 HD
ENDBRANCH  12  13
BRANCH  12  15
HETATM   15  C   UNL     1      30.073  51.906  38.954  1.00  0.00    -0.028 A 
HETATM   16  C   UNL     1      29.037  50.958  38.970  1.00  0.00     0.013 A 
HETATM   17  C   UNL     1      27.969  51.094  39.861  1.00  0.00     0.043 A 
HETATM   18  C   UNL     1      27.933  52.175  40.734  1.00  0.00     0.116 A 
HETATM   19  F   UNL     1      26.906  52.304  41.585  1.00  0.00    -0.206 F 
HETATM   20  C   UNL     1      28.945  53.126  40.735  1.00  0.00     0.043 A 
HETATM   21  C   UNL     1      30.012  52.993  39.846  1.00  0.00     0.013 A 
ENDBRANCH  12  15
ENDBRANCH  11  12
ENDBRANCH   8  11
ENDBRANCH   3   7
BRANCH   5  22
HETATM   22  N   UNL     1      36.129  52.076  44.310  1.00  0.00    -0.317 N 
HETATM   23  C   UNL     1      36.937  53.160  44.027  1.00  0.00     0.258 C 
HETATM   24  O   UNL     1      36.849  53.894  43.047  1.00  0.00    -0.267 OA
HETATM   25  H   UNL     1      36.376  51.499  45.104  1.00  0.00     0.169 HD
BRANCH  23  26
HETATM   26  C   UNL     1      37.989  53.491  45.047  1.00  0.00     0.054 A 
HETATM   27  C   UNL     1      39.116  52.714  45.355  1.00  0.00     0.049 A 
HETATM   28 CL   UNL     1      39.536  51.248  44.535  1.00  0.00    -0.083 Cl
HETATM   29  C   UNL     1      40.001  53.123  46.364  1.00  0.00     0.025 A 
HETATM   30  C   UNL     1      39.782  54.310  47.064  1.00  0.00     0.002 A 
HETATM   31  C   UNL     1      38.680  55.098  46.755  1.00  0.00     0.001 A 
HETATM   32  C   UNL     1      37.794  54.693  45.756  1.00  0.00     0.019 A 
ENDBRANCH  23  26
ENDBRANCH   5  22
TORSDOF 7
ENDMDL
MODEL 9
REMARK VINA RESULT:      -8.5      5.266     11.044
REMARK  7 active torsions:
REMARK  status: ('A' for Active; 'I' for Inactive)
REMARK    1  A    between atoms: C_3  and  C_4 
REMARK       I    between atoms: C_4  and  N_5 
REMARK    2  A    between atoms: N_5  and  C_6 
REMARK    3  A    between atoms: C_6  and  C_7 
REMARK    4  A    between atoms: C_7  and  O_8 
REMARK    5  A    between atoms: C_7  and  C_9 
REMARK    6  A    between atoms: C_18  and  N_19 
REMARK       I    between atoms: N_19  and  C_20 
REMARK    7  A    between atoms: C_20  and  C_21 
ROOT
HETATM    1  C   UNL     1      25.930  47.218  52.876  1.00  0.00     0.050 C 
HETATM    2  C   UNL     1      25.979  46.211  51.772  1.00  0.00    -0.037 A 
HETATM    3  C   UNL     1      25.461  46.393  50.493  1.00  0.00     0.080 A 
HETATM    4  S   UNL     1      25.704  45.000  49.522  1.00  0.00    -0.066 SA
HETATM    5  C   UNL     1      26.536  44.181  50.743  1.00  0.00     0.078 A 
HETATM    6  C   UNL     1      26.606  44.925  51.899  1.00  0.00     0.045 A 
ENDROOT
BRANCH   3   7
HETATM    7  C   UNL     1      24.811  47.584  49.955  1.00  0.00     0.259 C 
HETATM    8  N   UNL     1      23.449  47.502  49.746  1.00  0.00    -0.354 N 
HETATM    9  H   UNL     1      23.020  46.601  49.924  1.00  0.00     0.162 HD
HETATM   10  O   UNL     1      25.417  48.616  49.671  1.00  0.00    -0.267 OA
BRANCH   8  11
HETATM   11  C   UNL     1      22.717  48.462  48.925  1.00  0.00     0.159 C 
BRANCH  11  12
HETATM   12  C   UNL     1      22.308  49.765  49.654  1.00  0.00     0.169 C 
BRANCH  12  13
HETATM   13  O   UNL     1      23.345  50.745  49.633  1.00  0.00    -0.389 OA
HETATM   14  H   UNL     1      24.109  50.370  50.122  1.00  0.00     0.210 HD
ENDBRANCH  12  13
BRANCH  12  15
HETATM   15  C   UNL     1      21.092  50.378  48.982  1.00  0.00    -0.028 A 
HETATM   16  C   UNL     1      20.756  50.029  47.664  1.00  0.00     0.013 A 
HETATM   17  C   UNL     1      19.657  50.618  47.035  1.00  0.00     0.043 A 
HETATM   18  C   UNL     1      18.894  51.558  47.719  1.00  0.00     0.116 A 
HETATM   19  F   UNL     1      17.842  52.123  47.111  1.00  0.00    -0.206 F 
HETATM   20  C   UNL     1      19.207  51.920  49.022  1.00  0.00     0.043 A 
HETATM   21  C   UNL     1      20.304  51.332  49.652  1.00  0.00     0.013 A 
ENDBRANCH  12  15
ENDBRANCH  11  12
ENDBRANCH   8  11
ENDBRANCH   3   7
BRANCH   5  22
HETATM   22  N   UNL     1      27.106  42.935  50.560  1.00  0.00    -0.317 N 
HETATM   23  C   UNL     1      26.449  41.726  50.439  1.00  0.00     0.258 C 
HETATM   24  O   UNL     1      25.242  41.542  50.565  1.00  0.00    -0.267 OA
HETATM   25  H   UNL     1      28.118  42.927  50.527  1.00  0.00     0.169 HD
BRANCH  23  26
HETATM   26  C   UNL     1      27.296  40.542  50.072  1.00  0.00     0.054 A 
HETATM   27  C   UNL     1      28.382  40.041  50.807  1.00  0.00     0.049 A 
HETATM   28 CL   UNL     1      28.890  40.673  52.337  1.00  0.00    -0.083 Cl
HETATM   29  C   UNL     1      29.116  38.947  50.325  1.00  0.00     0.025 A 
HETATM   30  C   UNL     1      28.770  38.333  49.121  1.00  0.00     0.002 A 
HETATM   31  C   UNL     1      27.685  38.806  48.394  1.00  0.00     0.001 A 
HETATM   32  C   UNL     1      26.954  39.898  48.866  1.00  0.00     0.019 A 
ENDBRANCH  23  26
ENDBRANCH   5  22
TORSDOF 7
ENDMDL
MODEL 10
REMARK VINA RESULT:      -8.5      1.971      2.594
REMARK  7 active torsions:
REMARK  status: ('A' for Active; 'I' for Inactive)
REMARK    1  A    between atoms: C_3  and  C_4 
REMARK       I    between atoms: C_4  and  N_5 
REMARK    2  A    between atoms: N_5  and  C_6 
REMARK    3  A    between atoms: C_6  and  C_7 
REMARK    4  A    between atoms: C_7  and  O_8 
REMARK    5  A    between atoms: C_7  and  C_9 
REMARK    6  A    between atoms: C_18  and  N_19 
REMARK       I    between atoms: N_19  and  C_20 
REMARK    7  A    between atoms: C_20  and  C_21 
ROOT
HETATM    1  C   UNL     1      25.673  50.017  48.301  1.00  0.00     0.050 C 
HETATM    2  C   UNL     1      24.364  49.315  48.475  1.00  0.00    -0.037 A 
HETATM    3  C   UNL     1      24.180  48.109  49.145  1.00  0.00     0.080 A 
HETATM    4  S   UNL     1      22.535  47.627  49.113  1.00  0.00    -0.066 SA
HETATM    5  C   UNL     1      22.049  49.016  48.282  1.00  0.00     0.078 A 
HETATM    6  C   UNL     1      23.117  49.831  47.986  1.00  0.00     0.045 A 
ENDROOT
BRANCH   3   7
HETATM    7  C   UNL     1      25.188  47.309  49.836  1.00  0.00     0.259 C 
HETATM    8  N   UNL     1      25.059  47.205  51.206  1.00  0.00    -0.354 N 
HETATM    9  H   UNL     1      24.312  47.743  51.630  1.00  0.00     0.162 HD
HETATM   10  O   UNL     1      26.128  46.762  49.262  1.00  0.00    -0.267 OA
BRANCH   8  11
HETATM   11  C   UNL     1      26.139  46.731  52.066  1.00  0.00     0.159 C 
BRANCH  11  12
HETATM   12  C   UNL     1      25.839  45.415  52.824  1.00  0.00     0.169 C 
BRANCH  12  13
HETATM   13  O   UNL     1      25.042  44.516  52.053  1.00  0.00    -0.389 OA
HETATM   14  H   UNL     1      25.613  44.161  51.338  1.00  0.00     0.210 HD
ENDBRANCH  12  13
BRANCH  12  15
HETATM   15  C   UNL     1      27.136  44.698  53.157  1.00  0.00    -0.028 A 
HETATM   16  C   UNL     1      27.702  44.812  54.437  1.00  0.00     0.013 A 
HETATM   17  C   UNL     1      28.913  44.180  54.732  1.00  0.00     0.043 A 
HETATM   18  C   UNL     1      29.560  43.437  53.751  1.00  0.00     0.116 A 
HETATM   19  F   UNL     1      30.722  42.834  54.037  1.00  0.00    -0.206 F 
HETATM   20  C   UNL     1      29.020  43.312  52.478  1.00  0.00     0.043 A 
HETATM   21  C   UNL     1      27.811  43.942  52.181  1.00  0.00     0.013 A 
ENDBRANCH  12  15
ENDBRANCH  11  12
ENDBRANCH   8  11
ENDBRANCH   3   7
BRANCH   5  22
HETATM   22  N   UNL     1      20.727  49.292  47.988  1.00  0.00    -0.317 N 
HETATM   23  C   UNL     1      19.688  49.450  48.885  1.00  0.00     0.258 C 
HETATM   24  O   UNL     1      19.747  49.282  50.099  1.00  0.00    -0.267 OA
HETATM   25  H   UNL     1      20.513  49.369  47.001  1.00  0.00     0.169 HD
BRANCH  23  26
HETATM   26  C   UNL     1      18.380  49.917  48.314  1.00  0.00     0.054 A 
HETATM   27  C   UNL     1      18.016  51.249  48.059  1.00  0.00     0.049 A 
HETATM   28 CL   UNL     1      19.070  52.602  48.292  1.00  0.00    -0.083 Cl
HETATM   29  C   UNL     1      16.740  51.548  47.560  1.00  0.00     0.025 A 
HETATM   30  C   UNL     1      15.822  50.531  47.297  1.00  0.00     0.002 A 
HETATM   31  C   UNL     1      16.177  49.207  47.526  1.00  0.00     0.001 A 
HETATM   32  C   UNL     1      17.443  48.904  48.027  1.00  0.00     0.019 A 
ENDBRANCH  23  26
ENDBRANCH   5  22
TORSDOF 7
ENDMDL
