MODEL 1
REMARK VINA RESULT:      -9.5      0.000      0.000
REMARK  3 active torsions:
REMARK  status: ('A' for Active; 'I' for Inactive)
REMARK    1  A    between atoms: C_7  and  C_10 
REMARK    2  A    between atoms: C_10  and  N_11 
REMARK    3  A    between atoms: N_11  and  C_12 
ROOT
HETATM    1  C   UNL     1      31.351  43.187  56.211  1.00  0.00     0.002 A 
HETATM    2  C   UNL     1      30.416  43.275  55.174  1.00  0.00     0.033 A 
HETATM    3  C   UNL     1      29.495  44.342  55.152  1.00  0.00     0.075 A 
HETATM    4  C   UNL     1      29.540  45.290  56.170  1.00  0.00     0.035 A 
HETATM    5  S   UNL     1      28.318  46.463  55.892  1.00  0.00    -0.067 SA
HETATM    6  C   UNL     1      27.813  45.641  54.447  1.00  0.00     0.121 A 
HETATM    7  C   UNL     1      26.726  46.143  53.647  1.00  0.00     0.095 C 
HETATM    8  C   UNL     1      26.017  47.329  53.998  1.00  0.00     0.103 C 
HETATM    9  N   UNL     1      25.418  48.292  54.254  1.00  0.00    -0.191 NA
HETATM   10  N   UNL     1      28.521  44.552  54.193  1.00  0.00    -0.239 NA
HETATM   11  C   UNL     1      30.474  45.213  57.216  1.00  0.00     0.021 A 
HETATM   12  C   UNL     1      31.378  44.146  57.218  1.00  0.00     0.002 A 
ENDROOT
BRANCH   7  13
HETATM   13  C   UNL     1      26.378  45.461  52.535  1.00  0.00     0.114 C 
BRANCH  13  14
HETATM   14  N   UNL     1      26.574  45.793  51.210  1.00  0.00    -0.364 N 
HETATM   15  H   UNL     1      27.203  45.195  50.679  1.00  0.00     0.165 HD
BRANCH  14  16
HETATM   16  C   UNL     1      26.011  46.850  50.468  1.00  0.00     0.034 A 
HETATM   17  C   UNL     1      24.632  47.051  50.318  1.00  0.00     0.069 A 
HETATM   18  C   UNL     1      24.141  48.127  49.573  1.00  0.00     0.104 A 
HETATM   19  C   UNL     1      25.020  49.005  48.938  1.00  0.00     0.102 A 
HETATM   20  O   UNL     1      22.775  48.251  49.502  1.00  0.00    -0.346 OA
HETATM   21  O   UNL     1      24.608  50.059  48.166  1.00  0.00    -0.346 OA
HETATM   22  C   UNL     1      26.391  48.832  49.087  1.00  0.00     0.042 A 
HETATM   23  C   UNL     1      23.225  49.936  47.813  1.00  0.00     0.202 C 
HETATM   24  C   UNL     1      22.395  49.547  49.023  1.00  0.00     0.202 C 
HETATM   25  C   UNL     1      26.879  47.763  49.844  1.00  0.00     0.032 A 
ENDBRANCH  14  16
ENDBRANCH  13  14
ENDBRANCH   7  13
TORSDOF 3
ENDMDL
MODEL 2
REMARK VINA RESULT:      -9.4      4.218      5.957
REMARK  3 active torsions:
REMARK  status: ('A' for Active; 'I' for Inactive)
REMARK    1  A    between atoms: C_7  and  C_10 
REMARK    2  A    between atoms: C_10  and  N_11 
REMARK    3  A    between atoms: N_11  and  C_12 
ROOT
HETATM    1  C   UNL     1      31.772  43.461  57.113  1.00  0.00     0.002 A 
HETATM    2  C   UNL     1      30.925  43.384  56.003  1.00  0.00     0.033 A 
HETATM    3  C   UNL     1      29.929  44.363  55.813  1.00  0.00     0.075 A 
HETATM    4  C   UNL     1      29.812  45.392  56.744  1.00  0.00     0.035 A 
HETATM    5  S   UNL     1      28.531  46.430  56.268  1.00  0.00    -0.067 SA
HETATM    6  C   UNL     1      28.217  45.452  54.866  1.00  0.00     0.121 A 
HETATM    7  C   UNL     1      27.167  45.792  53.942  1.00  0.00     0.095 C 
HETATM    8  C   UNL     1      26.340  46.939  54.129  1.00  0.00     0.103 C 
HETATM    9  N   UNL     1      25.648  47.864  54.252  1.00  0.00    -0.191 NA
HETATM   10  N   UNL     1      29.027  44.411  54.766  1.00  0.00    -0.239 NA
HETATM   11  C   UNL     1      30.657  45.481  57.863  1.00  0.00     0.021 A 
HETATM   12  C   UNL     1      31.638  44.498  58.031  1.00  0.00     0.002 A 
ENDROOT
BRANCH   7  13
HETATM   13  C   UNL     1      26.969  44.995  52.870  1.00  0.00     0.114 C 
BRANCH  13  14
HETATM   14  N   UNL     1      26.573  43.674  52.827  1.00  0.00    -0.364 N 
HETATM   15  H   UNL     1      25.703  43.444  53.302  1.00  0.00     0.165 HD
BRANCH  14  16
HETATM   16  C   UNL     1      27.198  42.580  52.197  1.00  0.00     0.034 A 
HETATM   17  C   UNL     1      27.122  42.323  50.821  1.00  0.00     0.069 A 
HETATM   18  C   UNL     1      27.776  41.222  50.260  1.00  0.00     0.104 A 
HETATM   19  C   UNL     1      28.494  40.341  51.069  1.00  0.00     0.102 A 
HETATM   20  O   UNL     1      27.659  41.067  48.901  1.00  0.00    -0.346 OA
HETATM   21  O   UNL     1      29.129  39.225  50.591  1.00  0.00    -0.346 OA
HETATM   22  C   UNL     1      28.595  40.586  52.432  1.00  0.00     0.042 A 
HETATM   23  C   UNL     1      28.681  38.896  49.270  1.00  0.00     0.202 C 
HETATM   24  C   UNL     1      28.626  40.138  48.398  1.00  0.00     0.202 C 
HETATM   25  C   UNL     1      27.951  41.696  52.989  1.00  0.00     0.032 A 
ENDBRANCH  14  16
ENDBRANCH  13  14
ENDBRANCH   7  13
TORSDOF 3
ENDMDL
MODEL 3
REMARK VINA RESULT:      -9.1      3.364      4.509
REMARK  3 active torsions:
REMARK  status: ('A' for Active; 'I' for Inactive)
REMARK    1  A    between atoms: C_7  and  C_10 
REMARK    2  A    between atoms: C_10  and  N_11 
REMARK    3  A    between atoms: N_11  and  C_12 
ROOT
HETATM    1  C   UNL     1      31.513  43.148  56.093  1.00  0.00     0.002 A 
HETATM    2  C   UNL     1      30.571  43.661  55.194  1.00  0.00     0.033 A 
HETATM    3  C   UNL     1      29.729  44.719  55.591  1.00  0.00     0.075 A 
HETATM    4  C   UNL     1      29.856  45.232  56.879  1.00  0.00     0.035 A 
HETATM    5  S   UNL     1      28.717  46.499  57.088  1.00  0.00    -0.067 SA
HETATM    6  C   UNL     1      28.133  46.285  55.465  1.00  0.00     0.121 A 
HETATM    7  C   UNL     1      27.074  47.106  54.941  1.00  0.00     0.095 C 
HETATM    8  C   UNL     1      26.456  48.128  55.721  1.00  0.00     0.103 C 
HETATM    9  N   UNL     1      25.931  48.968  56.329  1.00  0.00    -0.191 NA
HETATM   10  N   UNL     1      28.758  45.319  54.810  1.00  0.00    -0.239 NA
HETATM   11  C   UNL     1      30.798  44.727  57.790  1.00  0.00     0.021 A 
HETATM   12  C   UNL     1      31.623  43.677  57.375  1.00  0.00     0.002 A 
ENDROOT
BRANCH   7  13
HETATM   13  C   UNL     1      26.661  46.893  53.673  1.00  0.00     0.114 C 
BRANCH  13  14
HETATM   14  N   UNL     1      25.905  45.858  53.163  1.00  0.00    -0.364 N 
HETATM   15  H   UNL     1      24.980  45.728  53.566  1.00  0.00     0.165 HD
BRANCH  14  16
HETATM   16  C   UNL     1      26.227  44.947  52.138  1.00  0.00     0.034 A 
HETATM   17  C   UNL     1      26.430  43.576  52.347  1.00  0.00     0.069 A 
HETATM   18  C   UNL     1      26.739  42.726  51.281  1.00  0.00     0.104 A 
HETATM   19  C   UNL     1      26.880  43.236  49.990  1.00  0.00     0.102 A 
HETATM   20  O   UNL     1      26.898  41.396  51.583  1.00  0.00    -0.346 OA
HETATM   21  O   UNL     1      27.215  42.467  48.907  1.00  0.00    -0.346 OA
HETATM   22  C   UNL     1      26.669  44.589  49.759  1.00  0.00     0.042 A 
HETATM   23  C   UNL     1      27.731  41.193  49.312  1.00  0.00     0.202 C 
HETATM   24  C   UNL     1      26.866  40.586  50.402  1.00  0.00     0.202 C 
HETATM   25  C   UNL     1      26.346  45.435  50.825  1.00  0.00     0.032 A 
ENDBRANCH  14  16
ENDBRANCH  13  14
ENDBRANCH   7  13
TORSDOF 3
ENDMDL
MODEL 4
REMARK VINA RESULT:      -9.0      1.710      2.676
REMARK  3 active torsions:
REMARK  status: ('A' for Active; 'I' for Inactive)
REMARK    1  A    between atoms: C_7  and  C_10 
REMARK    2  A    between atoms: C_10  and  N_11 
REMARK    3  A    between atoms: N_11  and  C_12 
ROOT
HETATM    1  C   UNL     1      29.994  45.335  56.516  1.00  0.00     0.002 A 
HETATM    2  C   UNL     1      29.006  45.655  55.580  1.00  0.00     0.033 A 
HETATM    3  C   UNL     1      28.792  44.811  54.472  1.00  0.00     0.075 A 
HETATM    4  C   UNL     1      29.578  43.670  54.335  1.00  0.00     0.035 A 
HETATM    5  S   UNL     1      29.106  42.837  52.910  1.00  0.00    -0.067 SA
HETATM    6  C   UNL     1      27.897  44.038  52.570  1.00  0.00     0.121 A 
HETATM    7  C   UNL     1      27.057  43.938  51.406  1.00  0.00     0.095 C 
HETATM    8  C   UNL     1      27.172  42.858  50.482  1.00  0.00     0.103 C 
HETATM    9  N   UNL     1      27.240  41.992  49.710  1.00  0.00    -0.191 NA
HETATM   10  N   UNL     1      27.855  45.004  53.474  1.00  0.00    -0.239 NA
HETATM   11  C   UNL     1      30.573  43.337  55.268  1.00  0.00     0.021 A 
HETATM   12  C   UNL     1      30.767  44.188  56.360  1.00  0.00     0.002 A 
ENDROOT
BRANCH   7  13
HETATM   13  C   UNL     1      26.135  44.903  51.193  1.00  0.00     0.114 C 
BRANCH  13  14
HETATM   14  N   UNL     1      26.265  46.272  51.295  1.00  0.00    -0.364 N 
HETATM   15  H   UNL     1      26.820  46.620  52.074  1.00  0.00     0.165 HD
BRANCH  14  16
HETATM   16  C   UNL     1      25.745  47.278  50.457  1.00  0.00     0.034 A 
HETATM   17  C   UNL     1      24.376  47.511  50.274  1.00  0.00     0.069 A 
HETATM   18  C   UNL     1      23.929  48.533  49.431  1.00  0.00     0.104 A 
HETATM   19  C   UNL     1      24.843  49.322  48.732  1.00  0.00     0.102 A 
HETATM   20  O   UNL     1      22.569  48.697  49.333  1.00  0.00    -0.346 OA
HETATM   21  O   UNL     1      24.475  50.317  47.865  1.00  0.00    -0.346 OA
HETATM   22  C   UNL     1      26.206  49.117  48.911  1.00  0.00     0.042 A 
HETATM   23  C   UNL     1      23.091  50.209  47.507  1.00  0.00     0.202 C 
HETATM   24  C   UNL     1      22.238  49.957  48.738  1.00  0.00     0.202 C 
HETATM   25  C   UNL     1      26.650  48.102  49.765  1.00  0.00     0.032 A 
ENDBRANCH  14  16
ENDBRANCH  13  14
ENDBRANCH   7  13
TORSDOF 3
ENDMDL
MODEL 5
REMARK VINA RESULT:      -8.8      1.547      1.902
REMARK  3 active torsions:
REMARK  status: ('A' for Active; 'I' for Inactive)
REMARK    1  A    between atoms: C_7  and  C_10 
REMARK    2  A    between atoms: C_10  and  N_11 
REMARK    3  A    between atoms: N_11  and  C_12 
ROOT
HETATM    1  C   UNL     1      31.514  43.278  56.637  1.00  0.00     0.002 A 
HETATM    2  C   UNL     1      30.637  43.299  55.547  1.00  0.00     0.033 A 
HETATM    3  C   UNL     1      29.677  44.325  55.442  1.00  0.00     0.075 A 
HETATM    4  C   UNL     1      29.624  45.300  56.434  1.00  0.00     0.035 A 
HETATM    5  S   UNL     1      28.373  46.413  56.054  1.00  0.00    -0.067 SA
HETATM    6  C   UNL     1      27.986  45.532  54.607  1.00  0.00     0.121 A 
HETATM    7  C   UNL     1      26.927  45.966  53.733  1.00  0.00     0.095 C 
HETATM    8  C   UNL     1      26.151  47.130  54.010  1.00  0.00     0.103 C 
HETATM    9  N   UNL     1      25.499  48.072  54.204  1.00  0.00    -0.191 NA
HETATM   10  N   UNL     1      28.751  44.468  54.424  1.00  0.00    -0.239 NA
HETATM   11  C   UNL     1      30.499  45.291  57.533  1.00  0.00     0.021 A 
HETATM   12  C   UNL     1      31.444  44.263  57.616  1.00  0.00     0.002 A 
ENDROOT
BRANCH   7  13
HETATM   13  C   UNL     1      26.671  45.241  52.623  1.00  0.00     0.114 C 
BRANCH  13  14
HETATM   14  N   UNL     1      26.609  45.653  51.307  1.00  0.00    -0.364 N 
HETATM   15  H   UNL     1      27.485  45.658  50.790  1.00  0.00     0.165 HD
BRANCH  14  16
HETATM   16  C   UNL     1      25.488  46.060  50.558  1.00  0.00     0.034 A 
HETATM   17  C   UNL     1      24.531  45.176  50.041  1.00  0.00     0.069 A 
HETATM   18  C   UNL     1      23.437  45.650  49.312  1.00  0.00     0.104 A 
HETATM   19  C   UNL     1      23.294  47.016  49.060  1.00  0.00     0.102 A 
HETATM   20  O   UNL     1      22.543  44.709  48.865  1.00  0.00    -0.346 OA
HETATM   21  O   UNL     1      22.266  47.545  48.325  1.00  0.00    -0.346 OA
HETATM   22  C   UNL     1      24.224  47.910  49.577  1.00  0.00     0.042 A 
HETATM   23  C   UNL     1      21.585  46.530  47.577  1.00  0.00     0.202 C 
HETATM   24  C   UNL     1      21.314  45.315  48.446  1.00  0.00     0.202 C 
HETATM   25  C   UNL     1      25.310  47.434  50.318  1.00  0.00     0.032 A 
ENDBRANCH  14  16
ENDBRANCH  13  14
ENDBRANCH   7  13
TORSDOF 3
ENDMDL
MODEL 6
REMARK VINA RESULT:      -8.8      4.259      5.768
REMARK  3 active torsions:
REMARK  status: ('A' for Active; 'I' for Inactive)
REMARK    1  A    between atoms: C_7  and  C_10 
REMARK    2  A    between atoms: C_10  and  N_11 
REMARK    3  A    between atoms: N_11  and  C_12 
ROOT
HETATM    1  C   UNL     1      31.382  43.145  56.321  1.00  0.00     0.002 A 
HETATM    2  C   UNL     1      30.426  43.106  55.301  1.00  0.00     0.033 A 
HETATM    3  C   UNL     1      29.503  44.162  55.167  1.00  0.00     0.075 A 
HETATM    4  C   UNL     1      29.566  45.227  56.061  1.00  0.00     0.035 A 
HETATM    5  S   UNL     1      28.335  46.358  55.667  1.00  0.00    -0.067 SA
HETATM    6  C   UNL     1      27.803  45.365  54.343  1.00  0.00     0.121 A 
HETATM    7  C   UNL     1      26.699  45.765  53.511  1.00  0.00     0.095 C 
HETATM    8  C   UNL     1      25.994  46.986  53.729  1.00  0.00     0.103 C 
HETATM    9  N   UNL     1      25.398  47.972  53.878  1.00  0.00    -0.191 NA
HETATM   10  N   UNL     1      28.508  44.253  54.210  1.00  0.00    -0.239 NA
HETATM   11  C   UNL     1      30.521  45.279  57.089  1.00  0.00     0.021 A 
HETATM   12  C   UNL     1      31.427  44.220  57.203  1.00  0.00     0.002 A 
ENDROOT
BRANCH   7  13
HETATM   13  C   UNL     1      26.329  44.952  52.497  1.00  0.00     0.114 C 
BRANCH  13  14
HETATM   14  N   UNL     1      26.043  43.603  52.521  1.00  0.00    -0.364 N 
HETATM   15  H   UNL     1      25.556  43.255  53.344  1.00  0.00     0.165 HD
BRANCH  14  16
HETATM   16  C   UNL     1      26.317  42.621  51.549  1.00  0.00     0.034 A 
HETATM   17  C   UNL     1      27.389  41.722  51.629  1.00  0.00     0.069 A 
HETATM   18  C   UNL     1      27.599  40.765  50.631  1.00  0.00     0.104 A 
HETATM   19  C   UNL     1      26.758  40.710  49.519  1.00  0.00     0.102 A 
HETATM   20  O   UNL     1      28.662  39.915  50.809  1.00  0.00    -0.346 OA
HETATM   21  O   UNL     1      26.925  39.823  48.489  1.00  0.00    -0.346 OA
HETATM   22  C   UNL     1      25.681  41.583  49.428  1.00  0.00     0.042 A 
HETATM   23  C   UNL     1      28.227  39.226  48.523  1.00  0.00     0.202 C 
HETATM   24  C   UNL     1      28.578  38.785  49.933  1.00  0.00     0.202 C 
HETATM   25  C   UNL     1      25.465  42.530  50.435  1.00  0.00     0.032 A 
ENDBRANCH  14  16
ENDBRANCH  13  14
ENDBRANCH   7  13
TORSDOF 3
ENDMDL
MODEL 7
REMARK VINA RESULT:      -8.7      2.315      3.130
REMARK  3 active torsions:
REMARK  status: ('A' for Active; 'I' for Inactive)
REMARK    1  A    between atoms: C_7  and  C_10 
REMARK    2  A    between atoms: C_10  and  N_11 
REMARK    3  A    between atoms: N_11  and  C_12 
ROOT
HETATM    1  C   UNL     1      31.646  43.420  56.937  1.00  0.00     0.002 A 
HETATM    2  C   UNL     1      30.802  43.322  55.827  1.00  0.00     0.033 A 
HETATM    3  C   UNL     1      29.810  44.299  55.613  1.00  0.00     0.075 A 
HETATM    4  C   UNL     1      29.693  45.348  56.522  1.00  0.00     0.035 A 
HETATM    5  S   UNL     1      28.416  46.379  56.020  1.00  0.00    -0.067 SA
HETATM    6  C   UNL     1      28.103  45.373  54.638  1.00  0.00     0.121 A 
HETATM    7  C   UNL     1      27.057  45.696  53.704  1.00  0.00     0.095 C 
HETATM    8  C   UNL     1      26.232  46.848  53.865  1.00  0.00     0.103 C 
HETATM    9  N   UNL     1      25.543  47.778  53.965  1.00  0.00    -0.191 NA
HETATM   10  N   UNL     1      28.911  44.327  54.563  1.00  0.00    -0.239 NA
HETATM   11  C   UNL     1      30.535  45.459  57.640  1.00  0.00     0.021 A 
HETATM   12  C   UNL     1      31.513  44.477  57.832  1.00  0.00     0.002 A 
ENDROOT
BRANCH   7  13
HETATM   13  C   UNL     1      26.860  44.876  52.649  1.00  0.00     0.114 C 
BRANCH  13  14
HETATM   14  N   UNL     1      25.825  43.995  52.410  1.00  0.00    -0.364 N 
HETATM   15  H   UNL     1      25.716  43.230  53.072  1.00  0.00     0.165 HD
BRANCH  14  16
HETATM   16  C   UNL     1      24.872  44.007  51.373  1.00  0.00     0.034 A 
HETATM   17  C   UNL     1      24.433  45.172  50.730  1.00  0.00     0.069 A 
HETATM   18  C   UNL     1      23.488  45.112  49.701  1.00  0.00     0.104 A 
HETATM   19  C   UNL     1      22.943  43.886  49.316  1.00  0.00     0.102 A 
HETATM   20  O   UNL     1      23.137  46.305  49.119  1.00  0.00    -0.346 OA
HETATM   21  O   UNL     1      21.989  43.757  48.340  1.00  0.00    -0.346 OA
HETATM   22  C   UNL     1      23.376  42.718  49.931  1.00  0.00     0.042 A 
HETATM   23  C   UNL     1      21.388  45.020  48.030  1.00  0.00     0.202 C 
HETATM   24  C   UNL     1      22.449  46.097  47.880  1.00  0.00     0.202 C 
HETATM   25  C   UNL     1      24.331  42.780  50.950  1.00  0.00     0.032 A 
ENDBRANCH  14  16
ENDBRANCH  13  14
ENDBRANCH   7  13
TORSDOF 3
ENDMDL
MODEL 8
REMARK VINA RESULT:      -8.6      2.548      3.485
REMARK  3 active torsions:
REMARK  status: ('A' for Active; 'I' for Inactive)
REMARK    1  A    between atoms: C_7  and  C_10 
REMARK    2  A    between atoms: C_10  and  N_11 
REMARK    3  A    between atoms: N_11  and  C_12 
ROOT
HETATM    1  C   UNL     1      29.614  45.630  55.945  1.00  0.00     0.002 A 
HETATM    2  C   UNL     1      28.758  45.485  54.849  1.00  0.00     0.033 A 
HETATM    3  C   UNL     1      28.819  44.318  54.062  1.00  0.00     0.075 A 
HETATM    4  C   UNL     1      29.738  43.328  54.399  1.00  0.00     0.035 A 
HETATM    5  S   UNL     1      29.595  42.032  53.282  1.00  0.00    -0.067 SA
HETATM    6  C   UNL     1      28.330  42.865  52.430  1.00  0.00     0.121 A 
HETATM    7  C   UNL     1      27.702  42.280  51.275  1.00  0.00     0.095 C 
HETATM    8  C   UNL     1      28.083  40.999  50.776  1.00  0.00     0.103 C 
HETATM    9  N   UNL     1      28.368  39.958  50.345  1.00  0.00    -0.191 NA
HETATM   10  N   UNL     1      28.036  44.044  52.955  1.00  0.00    -0.239 NA
HETATM   11  C   UNL     1      30.603  43.460  55.498  1.00  0.00     0.021 A 
HETATM   12  C   UNL     1      30.525  44.627  56.264  1.00  0.00     0.002 A 
ENDROOT
BRANCH   7  13
HETATM   13  C   UNL     1      26.724  42.974  50.652  1.00  0.00     0.114 C 
BRANCH  13  14
HETATM   14  N   UNL     1      25.766  43.808  51.192  1.00  0.00    -0.364 N 
HETATM   15  H   UNL     1      25.296  43.477  52.032  1.00  0.00     0.165 HD
BRANCH  14  16
HETATM   16  C   UNL     1      25.348  45.078  50.753  1.00  0.00     0.034 A 
HETATM   17  C   UNL     1      24.217  45.295  49.954  1.00  0.00     0.069 A 
HETATM   18  C   UNL     1      23.853  46.586  49.560  1.00  0.00     0.104 A 
HETATM   19  C   UNL     1      24.631  47.683  49.933  1.00  0.00     0.102 A 
HETATM   20  O   UNL     1      22.718  46.697  48.795  1.00  0.00    -0.346 OA
HETATM   21  O   UNL     1      24.353  48.970  49.554  1.00  0.00    -0.346 OA
HETATM   22  C   UNL     1      25.748  47.492  50.737  1.00  0.00     0.042 A 
HETATM   23  C   UNL     1      23.410  49.002  48.476  1.00  0.00     0.202 C 
HETATM   24  C   UNL     1      22.256  48.052  48.744  1.00  0.00     0.202 C 
HETATM   25  C   UNL     1      26.101  46.200  51.142  1.00  0.00     0.032 A 
ENDBRANCH  14  16
ENDBRANCH  13  14
ENDBRANCH   7  13
TORSDOF 3
ENDMDL
MODEL 9
REMARK VINA RESULT:      -8.6      4.011      9.429
REMARK  3 active torsions:
REMARK  status: ('A' for Active; 'I' for Inactive)
REMARK    1  A    between atoms: C_7  and  C_10 
REMARK    2  A    between atoms: C_10  and  N_11 
REMARK    3  A    between atoms: N_11  and  C_12 
ROOT
HETATM    1  C   UNL     1      18.251  50.591  49.863  1.00  0.00     0.002 A 
HETATM    2  C   UNL     1      19.290  49.668  50.013  1.00  0.00     0.033 A 
HETATM    3  C   UNL     1      20.555  49.943  49.455  1.00  0.00     0.075 A 
HETATM    4  C   UNL     1      20.740  51.137  48.763  1.00  0.00     0.035 A 
HETATM    5  S   UNL     1      22.359  51.207  48.198  1.00  0.00    -0.067 SA
HETATM    6  C   UNL     1      22.707  49.658  48.905  1.00  0.00     0.121 A 
HETATM    7  C   UNL     1      24.014  49.066  48.793  1.00  0.00     0.095 C 
HETATM    8  C   UNL     1      25.080  49.716  48.103  1.00  0.00     0.103 C 
HETATM    9  N   UNL     1      25.969  50.218  47.549  1.00  0.00    -0.191 NA
HETATM   10  N   UNL     1      21.667  49.124  49.526  1.00  0.00    -0.239 NA
HETATM   11  C   UNL     1      19.704  52.072  48.607  1.00  0.00     0.021 A 
HETATM   12  C   UNL     1      18.458  51.779  49.168  1.00  0.00     0.002 A 
ENDROOT
BRANCH   7  13
HETATM   13  C   UNL     1      24.226  47.859  49.361  1.00  0.00     0.114 C 
BRANCH  13  14
HETATM   14  N   UNL     1      24.204  47.507  50.695  1.00  0.00    -0.364 N 
HETATM   15  H   UNL     1      23.444  47.889  51.255  1.00  0.00     0.165 HD
BRANCH  14  16
HETATM   16  C   UNL     1      25.087  46.671  51.406  1.00  0.00     0.034 A 
HETATM   17  C   UNL     1      25.726  47.043  52.596  1.00  0.00     0.069 A 
HETATM   18  C   UNL     1      26.586  46.159  53.255  1.00  0.00     0.104 A 
HETATM   19  C   UNL     1      26.846  44.897  52.720  1.00  0.00     0.102 A 
HETATM   20  O   UNL     1      27.148  46.607  54.425  1.00  0.00    -0.346 OA
HETATM   21  O   UNL     1      27.702  43.994  53.294  1.00  0.00    -0.346 OA
HETATM   22  C   UNL     1      26.210  44.503  51.549  1.00  0.00     0.042 A 
HETATM   23  C   UNL     1      28.537  44.621  54.275  1.00  0.00     0.202 C 
HETATM   24  C   UNL     1      27.717  45.528  55.176  1.00  0.00     0.202 C 
HETATM   25  C   UNL     1      25.340  45.385  50.899  1.00  0.00     0.032 A 
ENDBRANCH  14  16
ENDBRANCH  13  14
ENDBRANCH   7  13
TORSDOF 3
ENDMDL
MODEL 10
REMARK VINA RESULT:      -8.6      3.693      4.329
REMARK  3 active torsions:
REMARK  status: ('A' for Active; 'I' for Inactive)
REMARK    1  A    between atoms: C_7  and  C_10 
REMARK    2  A    between atoms: C_10  and  N_11 
REMARK    3  A    between atoms: N_11  and  C_12 
ROOT
HETATM    1  C   UNL     1      31.556  43.336  56.724  1.00  0.00     0.002 A 
HETATM    2  C   UNL     1      30.713  43.341  55.609  1.00  0.00     0.033 A 
HETATM    3  C   UNL     1      29.734  44.347  55.476  1.00  0.00     0.075 A 
HETATM    4  C   UNL     1      29.632  45.319  56.468  1.00  0.00     0.035 A 
HETATM    5  S   UNL     1      28.370  46.406  56.053  1.00  0.00    -0.067 SA
HETATM    6  C   UNL     1      28.044  45.521  54.593  1.00  0.00     0.121 A 
HETATM    7  C   UNL     1      27.004  45.935  53.689  1.00  0.00     0.095 C 
HETATM    8  C   UNL     1      26.195  47.082  53.943  1.00  0.00     0.103 C 
HETATM    9  N   UNL     1      25.519  48.010  54.120  1.00  0.00    -0.191 NA
HETATM   10  N   UNL     1      28.837  44.473  54.431  1.00  0.00    -0.239 NA
HETATM   11  C   UNL     1      30.473  45.325  57.592  1.00  0.00     0.021 A 
HETATM   12  C   UNL     1      31.437  44.318  57.702  1.00  0.00     0.002 A 
ENDROOT
BRANCH   7  13
HETATM   13  C   UNL     1      26.796  45.207  52.570  1.00  0.00     0.114 C 
BRANCH  13  14
HETATM   14  N   UNL     1      26.117  44.016  52.417  1.00  0.00    -0.364 N 
HETATM   15  H   UNL     1      25.803  43.558  53.269  1.00  0.00     0.165 HD
BRANCH  14  16
HETATM   16  C   UNL     1      25.775  43.336  51.232  1.00  0.00     0.034 A 
HETATM   17  C   UNL     1      24.461  43.010  50.869  1.00  0.00     0.069 A 
HETATM   18  C   UNL     1      24.193  42.340  49.672  1.00  0.00     0.104 A 
HETATM   19  C   UNL     1      25.236  41.957  48.828  1.00  0.00     0.102 A 
HETATM   20  O   UNL     1      22.872  42.084  49.394  1.00  0.00    -0.346 OA
HETATM   21  O   UNL     1      25.048  41.269  47.658  1.00  0.00    -0.346 OA
HETATM   22  C   UNL     1      26.545  42.283  49.162  1.00  0.00     0.042 A 
HETATM   23  C   UNL     1      23.733  40.703  47.594  1.00  0.00     0.202 C 
HETATM   24  C   UNL     1      22.690  41.720  48.021  1.00  0.00     0.202 C 
HETATM   25  C   UNL     1      26.809  42.966  50.354  1.00  0.00     0.032 A 
ENDBRANCH  14  16
ENDBRANCH  13  14
ENDBRANCH   7  13
TORSDOF 3
ENDMDL
