MODEL 1
REMARK VINA RESULT:      -9.7      0.000      0.000
REMARK  8 active torsions:
REMARK  status: ('A' for Active; 'I' for Inactive)
REMARK    1  A    between atoms: C_3  and  N_4 
REMARK       I    between atoms: N_4  and  C_5 
REMARK    2  A    between atoms: C_5  and  C_6 
REMARK    3  A    between atoms: C_6  and  N_7 
REMARK    4  A    between atoms: C_10  and  C_11 
REMARK       I    between atoms: C_11  and  N_12 
REMARK    5  A    between atoms: N_12  and  C_13 
REMARK    6  A    between atoms: C_13  and  C_14 
REMARK    7  A    between atoms: C_17  and  O_18 
REMARK    8  A    between atoms: C_23  and  N_24 
ROOT
HETATM    1  N   UNL     1      24.595  45.780  50.768  1.00  0.00    -0.248 N 
HETATM    2  N   UNL     1      25.056  46.896  51.373  1.00  0.00     0.007 NA
HETATM    3  N   UNL     1      24.595  47.934  50.691  1.00  0.00    -0.150 NA
HETATM    4  C   UNL     1      23.830  47.462  49.643  1.00  0.00     0.186 A 
HETATM    5  C   UNL     1      23.831  46.076  49.670  1.00  0.00     0.151 A 
ENDROOT
BRANCH   1   6
HETATM    6  C   UNL     1      24.955  44.490  51.307  1.00  0.00     0.251 C 
BRANCH   6   7
HETATM    7  C   UNL     1      25.506  44.612  52.709  1.00  0.00     0.241 C 
HETATM    8  N   UNL     1      26.788  45.132  52.764  1.00  0.00    -0.325 N 
HETATM    9  H   UNL     1      27.129  45.540  51.896  1.00  0.00     0.169 HD
HETATM   10  O   UNL     1      24.787  44.359  53.672  1.00  0.00    -0.271 OA
BRANCH   8  11
HETATM   11  C   UNL     1      27.605  45.361  53.894  1.00  0.00     0.042 A 
HETATM   12  C   UNL     1      27.513  46.446  54.785  1.00  0.00    -0.035 A 
HETATM   13  C   UNL     1      26.442  47.501  54.748  1.00  0.00     0.050 C 
HETATM   14  C   UNL     1      28.451  46.545  55.836  1.00  0.00     0.011 A 
HETATM   15  C   UNL     1      29.420  45.564  56.042  1.00  0.00     0.024 A 
HETATM   16  C   UNL     1      29.459  44.465  55.198  1.00  0.00     0.036 A 
HETATM   17  C   UNL     1      28.558  44.357  54.141  1.00  0.00     0.053 A 
HETATM   18 CL   UNL     1      30.634  43.232  55.451  1.00  0.00    -0.084 Cl
ENDBRANCH   8  11
ENDBRANCH   6   7
ENDBRANCH   1   6
BRANCH   5  19
HETATM   19  N   UNL     1      23.250  45.147  48.878  1.00  0.00    -0.382 N 
HETATM   20  H   UNL     1      22.350  44.754  49.168  1.00  0.00     0.157 HD
HETATM   21  H   UNL     1      23.408  45.070  47.876  1.00  0.00     0.157 HD
ENDBRANCH   5  19
BRANCH   4  22
HETATM   22  C   UNL     1      23.153  48.335  48.696  1.00  0.00     0.275 C 
HETATM   23  N   UNL     1      23.054  49.642  49.121  1.00  0.00    -0.351 N 
HETATM   24  H   UNL     1      23.440  49.874  50.029  1.00  0.00     0.163 HD
HETATM   25  O   UNL     1      22.703  47.934  47.625  1.00  0.00    -0.266 OA
BRANCH  23  26
HETATM   26  C   UNL     1      22.309  50.641  48.396  1.00  0.00     0.161 C 
BRANCH  26  27
HETATM   27  C   UNL     1      20.909  50.888  48.904  1.00  0.00    -0.040 A 
HETATM   28  C   UNL     1      20.288  50.111  49.889  1.00  0.00     0.011 A 
HETATM   29  C   UNL     1      18.986  50.406  50.310  1.00  0.00     0.037 A 
HETATM   30  C   UNL     1      18.282  51.481  49.765  1.00  0.00     0.068 A 
HETATM   31  C   UNL     1      18.889  52.260  48.784  1.00  0.00     0.037 A 
HETATM   32  C   UNL     1      20.189  51.964  48.359  1.00  0.00     0.011 A 
BRANCH  30  33
HETATM   33  O   UNL     1      17.023  51.662  50.271  1.00  0.00    -0.356 OA
HETATM   34  C   UNL     1      16.014  52.056  49.350  1.00  0.00     0.210 C 
ENDBRANCH  30  33
ENDBRANCH  26  27
ENDBRANCH  23  26
ENDBRANCH   4  22
TORSDOF 8
ENDMDL
MODEL 2
REMARK VINA RESULT:      -9.4      1.311      2.001
REMARK  8 active torsions:
REMARK  status: ('A' for Active; 'I' for Inactive)
REMARK    1  A    between atoms: C_3  and  N_4 
REMARK       I    between atoms: N_4  and  C_5 
REMARK    2  A    between atoms: C_5  and  C_6 
REMARK    3  A    between atoms: C_6  and  N_7 
REMARK    4  A    between atoms: C_10  and  C_11 
REMARK       I    between atoms: C_11  and  N_12 
REMARK    5  A    between atoms: N_12  and  C_13 
REMARK    6  A    between atoms: C_13  and  C_14 
REMARK    7  A    between atoms: C_17  and  O_18 
REMARK    8  A    between atoms: C_23  and  N_24 
ROOT
HETATM    1  N   UNL     1      24.606  45.717  50.589  1.00  0.00    -0.248 N 
HETATM    2  N   UNL     1      25.068  46.785  51.275  1.00  0.00     0.007 NA
HETATM    3  N   UNL     1      24.619  47.872  50.665  1.00  0.00    -0.150 NA
HETATM    4  C   UNL     1      23.859  47.480  49.581  1.00  0.00     0.186 A 
HETATM    5  C   UNL     1      23.853  46.096  49.509  1.00  0.00     0.151 A 
ENDROOT
BRANCH   1   6
HETATM    6  C   UNL     1      24.954  44.390  51.036  1.00  0.00     0.251 C 
BRANCH   6   7
HETATM    7  C   UNL     1      26.406  44.312  51.454  1.00  0.00     0.241 C 
HETATM    8  N   UNL     1      26.590  43.949  52.777  1.00  0.00    -0.325 N 
HETATM    9  H   UNL     1      25.760  43.599  53.251  1.00  0.00     0.169 HD
HETATM   10  O   UNL     1      27.290  44.460  50.614  1.00  0.00    -0.271 OA
BRANCH   8  11
HETATM   11  C   UNL     1      27.796  43.801  53.497  1.00  0.00     0.042 A 
HETATM   12  C   UNL     1      28.728  42.755  53.360  1.00  0.00    -0.035 A 
HETATM   13  C   UNL     1      28.648  41.660  52.331  1.00  0.00     0.050 C 
HETATM   14  C   UNL     1      29.861  42.738  54.203  1.00  0.00     0.011 A 
HETATM   15  C   UNL     1      30.103  43.761  55.117  1.00  0.00     0.024 A 
HETATM   16  C   UNL     1      29.214  44.822  55.197  1.00  0.00     0.036 A 
HETATM   17  C   UNL     1      28.078  44.849  54.391  1.00  0.00     0.053 A 
HETATM   18 CL   UNL     1      29.509  46.107  56.304  1.00  0.00    -0.084 Cl
ENDBRANCH   8  11
ENDBRANCH   6   7
ENDBRANCH   1   6
BRANCH   5  19
HETATM   19  N   UNL     1      23.273  45.229  48.649  1.00  0.00    -0.382 N 
HETATM   20  H   UNL     1      23.856  44.506  48.218  1.00  0.00     0.157 HD
HETATM   21  H   UNL     1      22.287  44.977  48.667  1.00  0.00     0.157 HD
ENDBRANCH   5  19
BRANCH   4  22
HETATM   22  C   UNL     1      23.194  48.422  48.693  1.00  0.00     0.275 C 
HETATM   23  N   UNL     1      23.139  49.706  49.190  1.00  0.00    -0.351 N 
HETATM   24  H   UNL     1      23.544  49.877  50.104  1.00  0.00     0.163 HD
HETATM   25  O   UNL     1      22.719  48.094  47.609  1.00  0.00    -0.266 OA
BRANCH  23  26
HETATM   26  C   UNL     1      22.413  50.764  48.532  1.00  0.00     0.161 C 
BRANCH  26  27
HETATM   27  C   UNL     1      20.986  50.941  48.992  1.00  0.00    -0.040 A 
HETATM   28  C   UNL     1      20.370  50.133  49.955  1.00  0.00     0.011 A 
HETATM   29  C   UNL     1      19.041  50.363  50.331  1.00  0.00     0.037 A 
HETATM   30  C   UNL     1      18.305  51.404  49.763  1.00  0.00     0.068 A 
HETATM   31  C   UNL     1      18.907  52.214  48.804  1.00  0.00     0.037 A 
HETATM   32  C   UNL     1      20.234  51.982  48.423  1.00  0.00     0.011 A 
BRANCH  30  33
HETATM   33  O   UNL     1      17.022  51.522  50.224  1.00  0.00    -0.356 OA
HETATM   34  C   UNL     1      16.327  52.716  49.886  1.00  0.00     0.210 C 
ENDBRANCH  30  33
ENDBRANCH  26  27
ENDBRANCH  23  26
ENDBRANCH   4  22
TORSDOF 8
ENDMDL
MODEL 3
REMARK VINA RESULT:      -9.4      1.556      2.072
REMARK  8 active torsions:
REMARK  status: ('A' for Active; 'I' for Inactive)
REMARK    1  A    between atoms: C_3  and  N_4 
REMARK       I    between atoms: N_4  and  C_5 
REMARK    2  A    between atoms: C_5  and  C_6 
REMARK    3  A    between atoms: C_6  and  N_7 
REMARK    4  A    between atoms: C_10  and  C_11 
REMARK       I    between atoms: C_11  and  N_12 
REMARK    5  A    between atoms: N_12  and  C_13 
REMARK    6  A    between atoms: C_13  and  C_14 
REMARK    7  A    between atoms: C_17  and  O_18 
REMARK    8  A    between atoms: C_23  and  N_24 
ROOT
HETATM    1  N   UNL     1      26.287  45.249  51.692  1.00  0.00    -0.248 N 
HETATM    2  N   UNL     1      25.980  46.140  52.660  1.00  0.00     0.007 NA
HETATM    3  N   UNL     1      25.310  47.130  52.088  1.00  0.00    -0.150 NA
HETATM    4  C   UNL     1      25.190  46.853  50.740  1.00  0.00     0.186 A 
HETATM    5  C   UNL     1      25.826  45.652  50.466  1.00  0.00     0.151 A 
ENDROOT
BRANCH   1   6
HETATM    6  C   UNL     1      27.030  44.062  52.040  1.00  0.00     0.251 C 
BRANCH   6   7
HETATM    7  C   UNL     1      27.391  44.048  53.508  1.00  0.00     0.241 C 
HETATM    8  N   UNL     1      28.481  44.840  53.825  1.00  0.00    -0.325 N 
HETATM    9  H   UNL     1      28.786  45.474  53.089  1.00  0.00     0.169 HD
HETATM   10  O   UNL     1      26.671  43.454  54.307  1.00  0.00    -0.271 OA
BRANCH   8  11
HETATM   11  C   UNL     1      29.095  45.043  55.082  1.00  0.00     0.042 A 
HETATM   12  C   UNL     1      28.793  46.062  56.005  1.00  0.00    -0.035 A 
HETATM   13  C   UNL     1      27.673  47.054  55.855  1.00  0.00     0.050 C 
HETATM   14  C   UNL     1      29.547  46.146  57.196  1.00  0.00     0.011 A 
HETATM   15  C   UNL     1      30.535  45.211  57.499  1.00  0.00     0.024 A 
HETATM   16  C   UNL     1      30.779  44.172  56.614  1.00  0.00     0.036 A 
HETATM   17  C   UNL     1      30.063  44.081  55.423  1.00  0.00     0.053 A 
HETATM   18 CL   UNL     1      31.979  42.995  56.984  1.00  0.00    -0.084 Cl
ENDBRANCH   8  11
ENDBRANCH   6   7
ENDBRANCH   1   6
BRANCH   5  19
HETATM   19  N   UNL     1      25.999  44.951  49.323  1.00  0.00    -0.382 N 
HETATM   20  H   UNL     1      26.675  44.182  49.321  1.00  0.00     0.157 HD
HETATM   21  H   UNL     1      25.290  44.852  48.600  1.00  0.00     0.157 HD
ENDBRANCH   5  19
BRANCH   4  22
HETATM   22  C   UNL     1      24.491  47.725  49.808  1.00  0.00     0.275 C 
HETATM   23  N   UNL     1      23.263  47.241  49.413  1.00  0.00    -0.351 N 
HETATM   24  H   UNL     1      22.965  46.346  49.785  1.00  0.00     0.163 HD
HETATM   25  O   UNL     1      24.964  48.785  49.406  1.00  0.00    -0.266 OA
BRANCH  23  26
HETATM   26  C   UNL     1      22.465  47.883  48.397  1.00  0.00     0.161 C 
BRANCH  26  27
HETATM   27  C   UNL     1      21.304  48.696  48.916  1.00  0.00    -0.040 A 
HETATM   28  C   UNL     1      20.080  48.144  49.314  1.00  0.00     0.011 A 
HETATM   29  C   UNL     1      19.051  48.967  49.788  1.00  0.00     0.037 A 
HETATM   30  C   UNL     1      19.222  50.349  49.881  1.00  0.00     0.068 A 
HETATM   31  C   UNL     1      20.434  50.908  49.487  1.00  0.00     0.037 A 
HETATM   32  C   UNL     1      21.462  50.089  49.009  1.00  0.00     0.011 A 
BRANCH  30  33
HETATM   33  O   UNL     1      18.140  51.032  50.366  1.00  0.00    -0.356 OA
HETATM   34  C   UNL     1      17.914  52.332  49.836  1.00  0.00     0.210 C 
ENDBRANCH  30  33
ENDBRANCH  26  27
ENDBRANCH  23  26
ENDBRANCH   4  22
TORSDOF 8
ENDMDL
MODEL 4
REMARK VINA RESULT:      -9.1      3.931     10.569
REMARK  8 active torsions:
REMARK  status: ('A' for Active; 'I' for Inactive)
REMARK    1  A    between atoms: C_3  and  N_4 
REMARK       I    between atoms: N_4  and  C_5 
REMARK    2  A    between atoms: C_5  and  C_6 
REMARK    3  A    between atoms: C_6  and  N_7 
REMARK    4  A    between atoms: C_10  and  C_11 
REMARK       I    between atoms: C_11  and  N_12 
REMARK    5  A    between atoms: N_12  and  C_13 
REMARK    6  A    between atoms: C_13  and  C_14 
REMARK    7  A    between atoms: C_17  and  O_18 
REMARK    8  A    between atoms: C_23  and  N_24 
ROOT
HETATM    1  N   UNL     1      25.623  48.293  49.690  1.00  0.00    -0.248 N 
HETATM    2  N   UNL     1      24.594  47.786  50.405  1.00  0.00     0.007 NA
HETATM    3  N   UNL     1      24.936  46.561  50.775  1.00  0.00    -0.150 NA
HETATM    4  C   UNL     1      26.201  46.296  50.289  1.00  0.00     0.186 A 
HETATM    5  C   UNL     1      26.652  47.396  49.576  1.00  0.00     0.151 A 
ENDROOT
BRANCH   1   6
HETATM    6  C   UNL     1      25.515  49.628  49.152  1.00  0.00     0.251 C 
BRANCH   6   7
HETATM    7  C   UNL     1      24.308  49.763  48.251  1.00  0.00     0.241 C 
HETATM    8  N   UNL     1      23.098  49.663  48.916  1.00  0.00    -0.325 N 
HETATM    9  H   UNL     1      23.156  49.703  49.932  1.00  0.00     0.169 HD
HETATM   10  O   UNL     1      24.460  50.045  47.065  1.00  0.00    -0.271 OA
BRANCH   8  11
HETATM   11  C   UNL     1      21.788  49.722  48.389  1.00  0.00     0.042 A 
HETATM   12  C   UNL     1      21.116  48.693  47.704  1.00  0.00    -0.035 A 
HETATM   13  C   UNL     1      21.647  47.300  47.509  1.00  0.00     0.050 C 
HETATM   14  C   UNL     1      19.822  48.945  47.198  1.00  0.00     0.011 A 
HETATM   15  C   UNL     1      19.179  50.162  47.416  1.00  0.00     0.024 A 
HETATM   16  C   UNL     1      19.823  51.145  48.152  1.00  0.00     0.036 A 
HETATM   17  C   UNL     1      21.108  50.928  48.642  1.00  0.00     0.053 A 
HETATM   18 CL   UNL     1      19.035  52.646  48.452  1.00  0.00    -0.084 Cl
ENDBRANCH   8  11
ENDBRANCH   6   7
ENDBRANCH   1   6
BRANCH   5  19
HETATM   19  N   UNL     1      27.801  47.642  48.908  1.00  0.00    -0.382 N 
HETATM   20  H   UNL     1      27.824  48.426  48.250  1.00  0.00     0.157 HD
HETATM   21  H   UNL     1      28.726  47.389  49.249  1.00  0.00     0.157 HD
ENDBRANCH   5  19
BRANCH   4  22
HETATM   22  C   UNL     1      26.897  45.039  50.525  1.00  0.00     0.275 C 
HETATM   23  N   UNL     1      27.016  44.716  51.859  1.00  0.00    -0.351 N 
HETATM   24  H   UNL     1      26.631  45.362  52.539  1.00  0.00     0.163 HD
HETATM   25  O   UNL     1      27.344  44.345  49.616  1.00  0.00    -0.266 OA
BRANCH  23  26
HETATM   26  C   UNL     1      27.781  43.584  52.319  1.00  0.00     0.161 C 
BRANCH  26  27
HETATM   27  C   UNL     1      28.651  43.847  53.524  1.00  0.00    -0.040 A 
HETATM   28  C   UNL     1      29.756  43.063  53.876  1.00  0.00     0.011 A 
HETATM   29  C   UNL     1      30.516  43.375  55.010  1.00  0.00     0.037 A 
HETATM   30  C   UNL     1      30.195  44.474  55.809  1.00  0.00     0.068 A 
HETATM   31  C   UNL     1      29.098  45.259  55.469  1.00  0.00     0.037 A 
HETATM   32  C   UNL     1      28.334  44.947  54.339  1.00  0.00     0.011 A 
BRANCH  30  33
HETATM   33  O   UNL     1      31.022  44.668  56.882  1.00  0.00    -0.356 OA
HETATM   34  C   UNL     1      30.552  45.537  57.904  1.00  0.00     0.210 C 
ENDBRANCH  30  33
ENDBRANCH  26  27
ENDBRANCH  23  26
ENDBRANCH   4  22
TORSDOF 8
ENDMDL
MODEL 5
REMARK VINA RESULT:      -9.1      1.787      2.582
REMARK  8 active torsions:
REMARK  status: ('A' for Active; 'I' for Inactive)
REMARK    1  A    between atoms: C_3  and  N_4 
REMARK       I    between atoms: N_4  and  C_5 
REMARK    2  A    between atoms: C_5  and  C_6 
REMARK    3  A    between atoms: C_6  and  N_7 
REMARK    4  A    between atoms: C_10  and  C_11 
REMARK       I    between atoms: C_11  and  N_12 
REMARK    5  A    between atoms: N_12  and  C_13 
REMARK    6  A    between atoms: C_13  and  C_14 
REMARK    7  A    between atoms: C_17  and  O_18 
REMARK    8  A    between atoms: C_23  and  N_24 
ROOT
HETATM    1  N   UNL     1      25.456  45.367  52.016  1.00  0.00    -0.248 N 
HETATM    2  N   UNL     1      25.782  46.396  52.828  1.00  0.00     0.007 NA
HETATM    3  N   UNL     1      25.735  47.503  52.102  1.00  0.00    -0.150 NA
HETATM    4  C   UNL     1      25.370  47.164  50.814  1.00  0.00     0.186 A 
HETATM    5  C   UNL     1      25.200  45.790  50.738  1.00  0.00     0.151 A 
ENDROOT
BRANCH   1   6
HETATM    6  C   UNL     1      25.434  44.027  52.554  1.00  0.00     0.251 C 
BRANCH   6   7
HETATM    7  C   UNL     1      26.338  43.902  53.759  1.00  0.00     0.241 C 
HETATM    8  N   UNL     1      27.660  44.224  53.504  1.00  0.00    -0.325 N 
HETATM    9  H   UNL     1      27.832  44.680  52.610  1.00  0.00     0.169 HD
HETATM   10  O   UNL     1      25.856  43.642  54.859  1.00  0.00    -0.271 OA
BRANCH   8  11
HETATM   11  C   UNL     1      28.765  44.198  54.383  1.00  0.00     0.042 A 
HETATM   12  C   UNL     1      29.912  43.391  54.262  1.00  0.00    -0.035 A 
HETATM   13  C   UNL     1      30.206  42.484  53.099  1.00  0.00     0.050 C 
HETATM   14  C   UNL     1      30.901  43.458  55.267  1.00  0.00     0.011 A 
HETATM   15  C   UNL     1      30.793  44.347  56.336  1.00  0.00     0.024 A 
HETATM   16  C   UNL     1      29.693  45.186  56.410  1.00  0.00     0.036 A 
HETATM   17  C   UNL     1      28.693  45.122  55.442  1.00  0.00     0.053 A 
HETATM   18 CL   UNL     1      29.555  46.306  57.710  1.00  0.00    -0.084 Cl
ENDBRANCH   8  11
ENDBRANCH   6   7
ENDBRANCH   1   6
BRANCH   5  19
HETATM   19  N   UNL     1      24.856  44.967  49.723  1.00  0.00    -0.382 N 
HETATM   20  H   UNL     1      25.424  44.979  48.871  1.00  0.00     0.157 HD
HETATM   21  H   UNL     1      24.345  44.095  49.841  1.00  0.00     0.157 HD
ENDBRANCH   5  19
BRANCH   4  22
HETATM   22  C   UNL     1      25.205  48.142  49.749  1.00  0.00     0.275 C 
HETATM   23  N   UNL     1      23.889  48.454  49.485  1.00  0.00    -0.351 N 
HETATM   24  H   UNL     1      23.173  47.984  50.028  1.00  0.00     0.163 HD
HETATM   25  O   UNL     1      26.153  48.631  49.141  1.00  0.00    -0.266 OA
BRANCH  23  26
HETATM   26  C   UNL     1      23.498  49.300  48.385  1.00  0.00     0.161 C 
BRANCH  26  27
HETATM   27  C   UNL     1      22.072  49.794  48.436  1.00  0.00    -0.040 A 
HETATM   28  C   UNL     1      21.712  51.147  48.404  1.00  0.00     0.011 A 
HETATM   29  C   UNL     1      20.365  51.524  48.452  1.00  0.00     0.037 A 
HETATM   30  C   UNL     1      19.353  50.566  48.525  1.00  0.00     0.068 A 
HETATM   31  C   UNL     1      19.699  49.218  48.558  1.00  0.00     0.037 A 
HETATM   32  C   UNL     1      21.045  48.838  48.515  1.00  0.00     0.011 A 
BRANCH  30  33
HETATM   33  O   UNL     1      18.081  51.071  48.559  1.00  0.00    -0.356 OA
HETATM   34  C   UNL     1      17.605  51.522  49.821  1.00  0.00     0.210 C 
ENDBRANCH  30  33
ENDBRANCH  26  27
ENDBRANCH  23  26
ENDBRANCH   4  22
TORSDOF 8
ENDMDL
MODEL 6
REMARK VINA RESULT:      -9.0      3.432     10.539
REMARK  8 active torsions:
REMARK  status: ('A' for Active; 'I' for Inactive)
REMARK    1  A    between atoms: C_3  and  N_4 
REMARK       I    between atoms: N_4  and  C_5 
REMARK    2  A    between atoms: C_5  and  C_6 
REMARK    3  A    between atoms: C_6  and  N_7 
REMARK    4  A    between atoms: C_10  and  C_11 
REMARK       I    between atoms: C_11  and  N_12 
REMARK    5  A    between atoms: N_12  and  C_13 
REMARK    6  A    between atoms: C_13  and  C_14 
REMARK    7  A    between atoms: C_17  and  O_18 
REMARK    8  A    between atoms: C_23  and  N_24 
ROOT
HETATM    1  N   UNL     1      24.302  47.092  49.868  1.00  0.00    -0.248 N 
HETATM    2  N   UNL     1      23.536  46.094  49.375  1.00  0.00     0.007 NA
HETATM    3  N   UNL     1      23.802  45.005  50.080  1.00  0.00    -0.150 NA
HETATM    4  C   UNL     1      24.748  45.324  51.034  1.00  0.00     0.186 A 
HETATM    5  C   UNL     1      25.092  46.661  50.902  1.00  0.00     0.151 A 
ENDROOT
BRANCH   1   6
HETATM    6  C   UNL     1      24.216  48.404  49.273  1.00  0.00     0.251 C 
BRANCH   6   7
HETATM    7  C   UNL     1      22.866  48.631  48.632  1.00  0.00     0.241 C 
HETATM    8  N   UNL     1      21.804  48.543  49.516  1.00  0.00    -0.325 N 
HETATM    9  H   UNL     1      22.059  48.527  50.502  1.00  0.00     0.169 HD
HETATM   10  O   UNL     1      22.799  48.969  47.453  1.00  0.00    -0.271 OA
BRANCH   8  11
HETATM   11  C   UNL     1      20.421  48.679  49.259  1.00  0.00     0.042 A 
HETATM   12  C   UNL     1      19.681  49.875  49.282  1.00  0.00    -0.035 A 
HETATM   13  C   UNL     1      20.266  51.246  49.481  1.00  0.00     0.050 C 
HETATM   14  C   UNL     1      18.289  49.818  49.050  1.00  0.00     0.011 A 
HETATM   15  C   UNL     1      17.651  48.618  48.741  1.00  0.00     0.024 A 
HETATM   16  C   UNL     1      18.401  47.456  48.653  1.00  0.00     0.036 A 
HETATM   17  C   UNL     1      19.772  47.484  48.900  1.00  0.00     0.053 A 
HETATM   18 CL   UNL     1      17.634  45.969  48.249  1.00  0.00    -0.084 Cl
ENDBRANCH   8  11
ENDBRANCH   6   7
ENDBRANCH   1   6
BRANCH   5  19
HETATM   19  N   UNL     1      25.958  47.452  51.574  1.00  0.00    -0.382 N 
HETATM   20  H   UNL     1      25.596  48.039  52.331  1.00  0.00     0.157 HD
HETATM   21  H   UNL     1      26.953  47.260  51.668  1.00  0.00     0.157 HD
ENDBRANCH   5  19
BRANCH   4  22
HETATM   22  C   UNL     1      25.261  44.363  51.999  1.00  0.00     0.275 C 
HETATM   23  N   UNL     1      26.537  43.925  51.718  1.00  0.00    -0.351 N 
HETATM   24  H   UNL     1      26.990  44.289  50.887  1.00  0.00     0.163 HD
HETATM   25  O   UNL     1      24.608  43.975  52.964  1.00  0.00    -0.266 OA
BRANCH  23  26
HETATM   26  C   UNL     1      27.183  42.878  52.470  1.00  0.00     0.161 C 
BRANCH  26  27
HETATM   27  C   UNL     1      28.204  43.351  53.476  1.00  0.00    -0.040 A 
HETATM   28  C   UNL     1      28.031  44.473  54.296  1.00  0.00     0.011 A 
HETATM   29  C   UNL     1      29.025  44.847  55.207  1.00  0.00     0.037 A 
HETATM   30  C   UNL     1      30.205  44.109  55.326  1.00  0.00     0.068 A 
HETATM   31  C   UNL     1      30.388  42.993  54.515  1.00  0.00     0.037 A 
HETATM   32  C   UNL     1      29.397  42.620  53.600  1.00  0.00     0.011 A 
BRANCH  30  33
HETATM   33  O   UNL     1      31.088  44.580  56.259  1.00  0.00    -0.356 OA
HETATM   34  C   UNL     1      31.603  43.634  57.187  1.00  0.00     0.210 C 
ENDBRANCH  30  33
ENDBRANCH  26  27
ENDBRANCH  23  26
ENDBRANCH   4  22
TORSDOF 8
ENDMDL
MODEL 7
REMARK VINA RESULT:      -8.8      4.012      9.984
REMARK  8 active torsions:
REMARK  status: ('A' for Active; 'I' for Inactive)
REMARK    1  A    between atoms: C_3  and  N_4 
REMARK       I    between atoms: N_4  and  C_5 
REMARK    2  A    between atoms: C_5  and  C_6 
REMARK    3  A    between atoms: C_6  and  N_7 
REMARK    4  A    between atoms: C_10  and  C_11 
REMARK       I    between atoms: C_11  and  N_12 
REMARK    5  A    between atoms: N_12  and  C_13 
REMARK    6  A    between atoms: C_13  and  C_14 
REMARK    7  A    between atoms: C_17  and  O_18 
REMARK    8  A    between atoms: C_23  and  N_24 
ROOT
HETATM    1  N   UNL     1      23.551  44.113  49.926  1.00  0.00    -0.248 N 
HETATM    2  N   UNL     1      23.542  44.508  51.218  1.00  0.00     0.007 NA
HETATM    3  N   UNL     1      24.660  44.066  51.774  1.00  0.00    -0.150 NA
HETATM    4  C   UNL     1      25.384  43.385  50.815  1.00  0.00     0.186 A 
HETATM    5  C   UNL     1      24.677  43.393  49.623  1.00  0.00     0.151 A 
ENDROOT
BRANCH   1   6
HETATM    6  C   UNL     1      22.435  44.458  49.078  1.00  0.00     0.251 C 
BRANCH   6   7
HETATM    7  C   UNL     1      22.648  45.796  48.405  1.00  0.00     0.241 C 
HETATM    8  N   UNL     1      22.764  46.855  49.289  1.00  0.00    -0.325 N 
HETATM    9  H   UNL     1      22.884  46.595  50.266  1.00  0.00     0.169 HD
HETATM   10  O   UNL     1      22.804  45.848  47.188  1.00  0.00    -0.271 OA
BRANCH   8  11
HETATM   11  C   UNL     1      22.948  48.228  49.009  1.00  0.00     0.042 A 
HETATM   12  C   UNL     1      24.167  48.930  49.034  1.00  0.00    -0.035 A 
HETATM   13  C   UNL     1      25.516  48.304  49.257  1.00  0.00     0.050 C 
HETATM   14  C   UNL     1      24.158  50.319  48.777  1.00  0.00     0.011 A 
HETATM   15  C   UNL     1      22.982  50.989  48.443  1.00  0.00     0.024 A 
HETATM   16  C   UNL     1      21.797  50.275  48.355  1.00  0.00     0.036 A 
HETATM   17  C   UNL     1      21.778  48.909  48.625  1.00  0.00     0.053 A 
HETATM   18 CL   UNL     1      20.340  51.082  47.921  1.00  0.00    -0.084 Cl
ENDBRANCH   8  11
ENDBRANCH   6   7
ENDBRANCH   1   6
BRANCH   5  19
HETATM   19  N   UNL     1      24.938  42.873  48.402  1.00  0.00    -0.382 N 
HETATM   20  H   UNL     1      25.442  43.451  47.724  1.00  0.00     0.157 HD
HETATM   21  H   UNL     1      25.026  41.878  48.212  1.00  0.00     0.157 HD
ENDBRANCH   5  19
BRANCH   4  22
HETATM   22  C   UNL     1      26.681  42.778  51.078  1.00  0.00     0.275 C 
HETATM   23  N   UNL     1      27.459  43.498  51.958  1.00  0.00    -0.351 N 
HETATM   24  H   UNL     1      27.080  44.363  52.327  1.00  0.00     0.163 HD
HETATM   25  O   UNL     1      27.044  41.729  50.553  1.00  0.00    -0.266 OA
BRANCH  23  26
HETATM   26  C   UNL     1      28.825  43.144  52.255  1.00  0.00     0.161 C 
BRANCH  26  27
HETATM   27  C   UNL     1      29.328  43.613  53.599  1.00  0.00    -0.040 A 
HETATM   28  C   UNL     1      30.424  43.049  54.263  1.00  0.00     0.011 A 
HETATM   29  C   UNL     1      30.831  43.543  55.508  1.00  0.00     0.037 A 
HETATM   30  C   UNL     1      30.163  44.609  56.111  1.00  0.00     0.068 A 
HETATM   31  C   UNL     1      29.071  45.177  55.461  1.00  0.00     0.037 A 
HETATM   32  C   UNL     1      28.659  44.682  54.218  1.00  0.00     0.011 A 
BRANCH  30  33
HETATM   33  O   UNL     1      30.668  44.997  57.322  1.00  0.00    -0.356 OA
HETATM   34  C   UNL     1      29.911  45.950  58.057  1.00  0.00     0.210 C 
ENDBRANCH  30  33
ENDBRANCH  26  27
ENDBRANCH  23  26
ENDBRANCH   4  22
TORSDOF 8
ENDMDL
MODEL 8
REMARK VINA RESULT:      -8.5      1.578      2.420
REMARK  8 active torsions:
REMARK  status: ('A' for Active; 'I' for Inactive)
REMARK    1  A    between atoms: C_3  and  N_4 
REMARK       I    between atoms: N_4  and  C_5 
REMARK    2  A    between atoms: C_5  and  C_6 
REMARK    3  A    between atoms: C_6  and  N_7 
REMARK    4  A    between atoms: C_10  and  C_11 
REMARK       I    between atoms: C_11  and  N_12 
REMARK    5  A    between atoms: N_12  and  C_13 
REMARK    6  A    between atoms: C_13  and  C_14 
REMARK    7  A    between atoms: C_17  and  O_18 
REMARK    8  A    between atoms: C_23  and  N_24 
ROOT
HETATM    1  N   UNL     1      24.258  45.694  49.701  1.00  0.00    -0.248 N 
HETATM    2  N   UNL     1      23.027  45.374  49.247  1.00  0.00     0.007 NA
HETATM    3  N   UNL     1      22.460  46.494  48.822  1.00  0.00    -0.150 NA
HETATM    4  C   UNL     1      23.351  47.532  49.008  1.00  0.00     0.186 A 
HETATM    5  C   UNL     1      24.509  47.036  49.587  1.00  0.00     0.151 A 
ENDROOT
BRANCH   1   6
HETATM    6  C   UNL     1      25.102  44.652  50.235  1.00  0.00     0.251 C 
BRANCH   6   7
HETATM    7  C   UNL     1      25.320  44.826  51.721  1.00  0.00     0.241 C 
HETATM    8  N   UNL     1      26.552  45.366  52.048  1.00  0.00    -0.325 N 
HETATM    9  H   UNL     1      27.078  45.752  51.267  1.00  0.00     0.169 HD
HETATM   10  O   UNL     1      24.402  44.593  52.504  1.00  0.00    -0.271 OA
BRANCH   8  11
HETATM   11  C   UNL     1      27.089  45.643  53.325  1.00  0.00     0.042 A 
HETATM   12  C   UNL     1      28.030  44.863  54.023  1.00  0.00    -0.035 A 
HETATM   13  C   UNL     1      28.714  43.642  53.471  1.00  0.00     0.050 C 
HETATM   14  C   UNL     1      28.420  45.264  55.319  1.00  0.00     0.011 A 
HETATM   15  C   UNL     1      27.940  46.442  55.891  1.00  0.00     0.024 A 
HETATM   16  C   UNL     1      27.066  47.238  55.168  1.00  0.00     0.036 A 
HETATM   17  C   UNL     1      26.650  46.851  53.897  1.00  0.00     0.053 A 
HETATM   18 CL   UNL     1      26.482  48.707  55.849  1.00  0.00    -0.084 Cl
ENDBRANCH   8  11
ENDBRANCH   6   7
ENDBRANCH   1   6
BRANCH   5  19
HETATM   19  N   UNL     1      25.663  47.626  49.970  1.00  0.00    -0.382 N 
HETATM   20  H   UNL     1      26.489  47.514  49.375  1.00  0.00     0.157 HD
HETATM   21  H   UNL     1      25.714  48.454  50.560  1.00  0.00     0.157 HD
ENDBRANCH   5  19
BRANCH   4  22
HETATM   22  C   UNL     1      23.060  48.907  48.632  1.00  0.00     0.275 C 
HETATM   23  N   UNL     1      22.468  49.641  49.637  1.00  0.00    -0.351 N 
HETATM   24  H   UNL     1      22.283  49.175  50.518  1.00  0.00     0.163 HD
HETATM   25  O   UNL     1      23.311  49.361  47.519  1.00  0.00    -0.266 OA
BRANCH  23  26
HETATM   26  C   UNL     1      21.981  50.983  49.435  1.00  0.00     0.161 C 
BRANCH  26  27
HETATM   27  C   UNL     1      20.478  51.119  49.401  1.00  0.00    -0.040 A 
HETATM   28  C   UNL     1      19.795  52.041  48.599  1.00  0.00     0.011 A 
HETATM   29  C   UNL     1      18.397  52.103  48.621  1.00  0.00     0.037 A 
HETATM   30  C   UNL     1      17.653  51.247  49.435  1.00  0.00     0.068 A 
HETATM   31  C   UNL     1      18.321  50.327  50.237  1.00  0.00     0.037 A 
HETATM   32  C   UNL     1      19.719  50.266  50.220  1.00  0.00     0.011 A 
BRANCH  30  33
HETATM   33  O   UNL     1      16.297  51.409  49.355  1.00  0.00    -0.356 OA
HETATM   34  C   UNL     1      15.829  52.571  48.682  1.00  0.00     0.210 C 
ENDBRANCH  30  33
ENDBRANCH  26  27
ENDBRANCH  23  26
ENDBRANCH   4  22
TORSDOF 8
ENDMDL
MODEL 9
REMARK VINA RESULT:      -8.5      5.379      8.455
REMARK  8 active torsions:
REMARK  status: ('A' for Active; 'I' for Inactive)
REMARK    1  A    between atoms: C_3  and  N_4 
REMARK       I    between atoms: N_4  and  C_5 
REMARK    2  A    between atoms: C_5  and  C_6 
REMARK    3  A    between atoms: C_6  and  N_7 
REMARK    4  A    between atoms: C_10  and  C_11 
REMARK       I    between atoms: C_11  and  N_12 
REMARK    5  A    between atoms: N_12  and  C_13 
REMARK    6  A    between atoms: C_13  and  C_14 
REMARK    7  A    between atoms: C_17  and  O_18 
REMARK    8  A    between atoms: C_23  and  N_24 
ROOT
HETATM    1  N   UNL     1      25.489  46.059  53.073  1.00  0.00    -0.248 N 
HETATM    2  N   UNL     1      24.924  44.979  53.656  1.00  0.00     0.007 NA
HETATM    3  N   UNL     1      24.631  44.119  52.692  1.00  0.00    -0.150 NA
HETATM    4  C   UNL     1      25.022  44.665  51.486  1.00  0.00     0.186 A 
HETATM    5  C   UNL     1      25.564  45.921  51.712  1.00  0.00     0.151 A 
ENDROOT
BRANCH   1   6
HETATM    6  C   UNL     1      25.904  47.167  53.900  1.00  0.00     0.251 C 
BRANCH   6   7
HETATM    7  C   UNL     1      27.283  46.937  54.478  1.00  0.00     0.241 C 
HETATM    8  N   UNL     1      27.607  45.601  54.641  1.00  0.00    -0.325 N 
HETATM    9  H   UNL     1      26.976  44.942  54.188  1.00  0.00     0.169 HD
HETATM   10  O   UNL     1      28.036  47.891  54.657  1.00  0.00    -0.271 OA
BRANCH   8  11
HETATM   11  C   UNL     1      28.788  45.032  55.166  1.00  0.00     0.042 A 
HETATM   12  C   UNL     1      29.542  43.991  54.591  1.00  0.00    -0.035 A 
HETATM   13  C   UNL     1      29.271  43.376  53.246  1.00  0.00     0.050 C 
HETATM   14  C   UNL     1      30.674  43.508  55.283  1.00  0.00     0.011 A 
HETATM   15  C   UNL     1      31.090  44.078  56.484  1.00  0.00     0.024 A 
HETATM   16  C   UNL     1      30.381  45.147  57.009  1.00  0.00     0.036 A 
HETATM   17  C   UNL     1      29.248  45.627  56.355  1.00  0.00     0.053 A 
HETATM   18 CL   UNL     1      30.895  45.879  58.479  1.00  0.00    -0.084 Cl
ENDBRANCH   8  11
ENDBRANCH   6   7
ENDBRANCH   1   6
BRANCH   5  19
HETATM   19  N   UNL     1      26.081  46.855  50.883  1.00  0.00    -0.382 N 
HETATM   20  H   UNL     1      25.717  47.811  50.937  1.00  0.00     0.157 HD
HETATM   21  H   UNL     1      27.019  46.815  50.490  1.00  0.00     0.157 HD
ENDBRANCH   5  19
BRANCH   4  22
HETATM   22  C   UNL     1      24.865  43.978  50.212  1.00  0.00     0.275 C 
HETATM   23  N   UNL     1      24.302  42.726  50.326  1.00  0.00    -0.351 N 
HETATM   24  H   UNL     1      24.062  42.397  51.255  1.00  0.00     0.163 HD
HETATM   25  O   UNL     1      25.215  44.470  49.143  1.00  0.00    -0.266 OA
BRANCH  23  26
HETATM   26  C   UNL     1      24.176  41.826  49.206  1.00  0.00     0.161 C 
BRANCH  26  27
HETATM   27  C   UNL     1      25.387  40.964  48.941  1.00  0.00    -0.040 A 
HETATM   28  C   UNL     1      25.865  40.662  47.660  1.00  0.00     0.011 A 
HETATM   29  C   UNL     1      26.997  39.856  47.496  1.00  0.00     0.037 A 
HETATM   30  C   UNL     1      27.678  39.341  48.601  1.00  0.00     0.068 A 
HETATM   31  C   UNL     1      27.210  39.634  49.879  1.00  0.00     0.037 A 
HETATM   32  C   UNL     1      26.076  40.436  50.045  1.00  0.00     0.011 A 
BRANCH  30  33
HETATM   33  O   UNL     1      28.771  38.576  48.300  1.00  0.00    -0.356 OA
HETATM   34  C   UNL     1      29.544  38.104  49.396  1.00  0.00     0.210 C 
ENDBRANCH  30  33
ENDBRANCH  26  27
ENDBRANCH  23  26
ENDBRANCH   4  22
TORSDOF 8
ENDMDL
MODEL 10
REMARK VINA RESULT:      -8.4      3.707     10.400
REMARK  8 active torsions:
REMARK  status: ('A' for Active; 'I' for Inactive)
REMARK    1  A    between atoms: C_3  and  N_4 
REMARK       I    between atoms: N_4  and  C_5 
REMARK    2  A    between atoms: C_5  and  C_6 
REMARK    3  A    between atoms: C_6  and  N_7 
REMARK    4  A    between atoms: C_10  and  C_11 
REMARK       I    between atoms: C_11  and  N_12 
REMARK    5  A    between atoms: N_12  and  C_13 
REMARK    6  A    between atoms: C_13  and  C_14 
REMARK    7  A    between atoms: C_17  and  O_18 
REMARK    8  A    between atoms: C_23  and  N_24 
ROOT
HETATM    1  N   UNL     1      23.698  46.329  49.435  1.00  0.00    -0.248 N 
HETATM    2  N   UNL     1      24.233  47.378  50.097  1.00  0.00     0.007 NA
HETATM    3  N   UNL     1      24.829  46.900  51.179  1.00  0.00    -0.150 NA
HETATM    4  C   UNL     1      24.668  45.529  51.195  1.00  0.00     0.186 A 
HETATM    5  C   UNL     1      23.930  45.146  50.086  1.00  0.00     0.151 A 
ENDROOT
BRANCH   1   6
HETATM    6  C   UNL     1      22.976  46.567  48.208  1.00  0.00     0.251 C 
BRANCH   6   7
HETATM    7  C   UNL     1      21.753  47.424  48.445  1.00  0.00     0.241 C 
HETATM    8  N   UNL     1      21.903  48.739  48.037  1.00  0.00    -0.325 N 
HETATM    9  H   UNL     1      22.725  48.925  47.465  1.00  0.00     0.169 HD
HETATM   10  O   UNL     1      20.719  46.910  48.862  1.00  0.00    -0.271 OA
BRANCH   8  11
HETATM   11  C   UNL     1      20.982  49.806  48.126  1.00  0.00     0.042 A 
HETATM   12  C   UNL     1      20.964  50.816  49.105  1.00  0.00    -0.035 A 
HETATM   13  C   UNL     1      22.005  50.994  50.176  1.00  0.00     0.050 C 
HETATM   14  C   UNL     1      19.933  51.780  49.070  1.00  0.00     0.011 A 
HETATM   15  C   UNL     1      18.976  51.786  48.056  1.00  0.00     0.024 A 
HETATM   16  C   UNL     1      19.043  50.827  47.057  1.00  0.00     0.036 A 
HETATM   17  C   UNL     1      20.038  49.853  47.084  1.00  0.00     0.053 A 
HETATM   18 CL   UNL     1      17.884  50.833  45.785  1.00  0.00    -0.084 Cl
ENDBRANCH   8  11
ENDBRANCH   6   7
ENDBRANCH   1   6
BRANCH   5  19
HETATM   19  N   UNL     1      23.501  43.942  49.646  1.00  0.00    -0.382 N 
HETATM   20  H   UNL     1      22.885  43.392  50.252  1.00  0.00     0.157 HD
HETATM   21  H   UNL     1      23.410  43.691  48.664  1.00  0.00     0.157 HD
ENDBRANCH   5  19
BRANCH   4  22
HETATM   22  C   UNL     1      25.215  44.675  52.240  1.00  0.00     0.275 C 
HETATM   23  N   UNL     1      26.555  44.395  52.080  1.00  0.00    -0.351 N 
HETATM   24  H   UNL     1      27.026  44.785  51.271  1.00  0.00     0.163 HD
HETATM   25  O   UNL     1      24.537  44.240  53.167  1.00  0.00    -0.266 OA
BRANCH  23  26
HETATM   26  C   UNL     1      27.261  43.466  52.927  1.00  0.00     0.161 C 
BRANCH  26  27
HETATM   27  C   UNL     1      28.143  44.101  53.975  1.00  0.00    -0.040 A 
HETATM   28  C   UNL     1      29.341  43.539  54.433  1.00  0.00     0.011 A 
HETATM   29  C   UNL     1      30.105  44.192  55.406  1.00  0.00     0.037 A 
HETATM   30  C   UNL     1      29.696  45.417  55.938  1.00  0.00     0.068 A 
HETATM   31  C   UNL     1      28.506  45.984  55.492  1.00  0.00     0.037 A 
HETATM   32  C   UNL     1      27.738  45.331  54.521  1.00  0.00     0.011 A 
BRANCH  30  33
HETATM   33  O   UNL     1      30.538  45.948  56.876  1.00  0.00    -0.356 OA
HETATM   34  C   UNL     1      30.209  45.712  58.239  1.00  0.00     0.210 C 
ENDBRANCH  30  33
ENDBRANCH  26  27
ENDBRANCH  23  26
ENDBRANCH   4  22
TORSDOF 8
ENDMDL
