MODEL 1
REMARK VINA RESULT:      -9.5      0.000      0.000
REMARK  5 active torsions:
REMARK  status: ('A' for Active; 'I' for Inactive)
REMARK    1  A    between atoms: C_5  and  S_6 
REMARK    2  A    between atoms: S_6  and  C_7 
REMARK    3  A    between atoms: C_7  and  C_8 
REMARK       I    between atoms: C_8  and  N_9 
REMARK    4  A    between atoms: N_9  and  N_10 
REMARK       I    between atoms: N_10  and  C_11 
REMARK    5  A    between atoms: C_11  and  C_12 
ROOT
HETATM    1  N   UNL     1      23.430  47.788  49.911  1.00  0.00    -0.262 N 
HETATM    2  C   UNL     1      23.496  48.928  49.140  1.00  0.00     0.286 C 
HETATM    3  O   UNL     1      24.514  49.241  48.524  1.00  0.00    -0.264 OA
HETATM    4  H   UNL     1      22.579  47.471  50.367  1.00  0.00     0.190 HD
ENDROOT
BRANCH   1   5
HETATM    5  N   UNL     1      24.504  46.890  49.907  1.00  0.00    -0.267 N 
HETATM    6  C   UNL     1      25.312  46.849  51.025  1.00  0.00     0.245 C 
HETATM    7  O   UNL     1      25.037  47.471  52.053  1.00  0.00    -0.271 OA
HETATM    8  H   UNL     1      24.819  46.550  48.997  1.00  0.00     0.190 HD
BRANCH   6   9
HETATM    9  C   UNL     1      26.493  45.904  50.938  1.00  0.00     0.184 C 
BRANCH   9  10
HETATM   10  S   UNL     1      26.076  44.266  51.620  1.00  0.00    -0.121 SA
BRANCH  10  11
HETATM   11  C   UNL     1      27.470  44.029  52.707  1.00  0.00     0.001 A 
HETATM   12  C   UNL     1      27.559  44.782  53.880  1.00  0.00     0.019 A 
HETATM   13  C   UNL     1      28.635  44.606  54.755  1.00  0.00     0.008 A 
HETATM   14  C   UNL     1      29.636  43.672  54.471  1.00  0.00    -0.062 A 
HETATM   15  C   UNL     1      30.788  43.461  55.407  1.00  0.00     0.048 C 
HETATM   16  C   UNL     1      29.535  42.905  53.304  1.00  0.00     0.008 A 
HETATM   17  C   UNL     1      28.458  43.079  52.432  1.00  0.00     0.019 A 
ENDBRANCH  10  11
ENDBRANCH   9  10
ENDBRANCH   6   9
ENDBRANCH   1   5
BRANCH   2  18
HETATM   18  C   UNL     1      22.288  49.720  49.101  1.00  0.00     0.103 A 
HETATM   19  N   UNL     1      21.190  49.396  49.871  1.00  0.00    -0.351 N 
HETATM   20  H   UNL     1      21.159  48.598  50.493  1.00  0.00     0.166 HD
HETATM   21  C   UNL     1      20.171  50.298  49.687  1.00  0.00     0.043 A 
HETATM   22  C   UNL     1      20.619  51.231  48.755  1.00  0.00    -0.007 A 
HETATM   23  C   UNL     1      18.900  50.361  50.269  1.00  0.00     0.030 A 
HETATM   24  C   UNL     1      21.942  50.859  48.392  1.00  0.00     0.049 A 
HETATM   25  C   UNL     1      19.758  52.282  48.379  1.00  0.00     0.014 A 
HETATM   26  C   UNL     1      18.483  52.360  48.952  1.00  0.00     0.001 A 
HETATM   27  C   UNL     1      18.063  51.412  49.882  1.00  0.00     0.002 A 
ENDBRANCH   2  18
TORSDOF 5
ENDMDL
MODEL 2
REMARK VINA RESULT:      -9.3      2.200     10.420
REMARK  5 active torsions:
REMARK  status: ('A' for Active; 'I' for Inactive)
REMARK    1  A    between atoms: C_5  and  S_6 
REMARK    2  A    between atoms: S_6  and  C_7 
REMARK    3  A    between atoms: C_7  and  C_8 
REMARK       I    between atoms: C_8  and  N_9 
REMARK    4  A    between atoms: N_9  and  N_10 
REMARK       I    between atoms: N_10  and  C_11 
REMARK    5  A    between atoms: C_11  and  C_12 
ROOT
HETATM    1  N   UNL     1      25.810  46.184  52.005  1.00  0.00    -0.262 N 
HETATM    2  C   UNL     1      26.110  46.789  53.206  1.00  0.00     0.286 C 
HETATM    3  O   UNL     1      25.469  47.751  53.630  1.00  0.00    -0.264 OA
HETATM    4  H   UNL     1      26.276  45.345  51.671  1.00  0.00     0.190 HD
ENDROOT
BRANCH   1   5
HETATM    5  N   UNL     1      24.674  46.589  51.294  1.00  0.00    -0.267 N 
HETATM    6  C   UNL     1      24.857  47.431  50.216  1.00  0.00     0.245 C 
HETATM    7  O   UNL     1      25.979  47.718  49.794  1.00  0.00    -0.271 OA
HETATM    8  H   UNL     1      23.776  46.507  51.772  1.00  0.00     0.190 HD
BRANCH   6   9
HETATM    9  C   UNL     1      23.587  47.884  49.524  1.00  0.00     0.184 C 
BRANCH   9  10
HETATM   10  S   UNL     1      23.874  49.398  48.550  1.00  0.00    -0.121 SA
BRANCH  10  11
HETATM   11  C   UNL     1      22.313  50.222  48.808  1.00  0.00     0.001 A 
HETATM   12  C   UNL     1      21.476  50.461  47.715  1.00  0.00     0.019 A 
HETATM   13  C   UNL     1      20.242  51.094  47.893  1.00  0.00     0.008 A 
HETATM   14  C   UNL     1      19.827  51.494  49.167  1.00  0.00    -0.062 A 
HETATM   15  C   UNL     1      18.500  52.160  49.376  1.00  0.00     0.048 C 
HETATM   16  C   UNL     1      20.659  51.236  50.263  1.00  0.00     0.008 A 
HETATM   17  C   UNL     1      21.890  50.601  50.085  1.00  0.00     0.019 A 
ENDBRANCH  10  11
ENDBRANCH   9  10
ENDBRANCH   6   9
ENDBRANCH   1   5
BRANCH   2  18
HETATM   18  C   UNL     1      27.218  46.211  53.932  1.00  0.00     0.103 A 
HETATM   19  N   UNL     1      27.657  44.930  53.672  1.00  0.00    -0.351 N 
HETATM   20  H   UNL     1      27.237  44.324  52.978  1.00  0.00     0.166 HD
HETATM   21  C   UNL     1      28.731  44.604  54.464  1.00  0.00     0.043 A 
HETATM   22  C   UNL     1      28.988  45.706  55.274  1.00  0.00    -0.007 A 
HETATM   23  C   UNL     1      29.489  43.428  54.523  1.00  0.00     0.030 A 
HETATM   24  C   UNL     1      28.034  46.705  54.937  1.00  0.00     0.049 A 
HETATM   25  C   UNL     1      30.052  45.639  56.195  1.00  0.00     0.014 A 
HETATM   26  C   UNL     1      30.821  44.472  56.268  1.00  0.00     0.001 A 
HETATM   27  C   UNL     1      30.541  43.384  55.443  1.00  0.00     0.002 A 
ENDBRANCH   2  18
TORSDOF 5
ENDMDL
MODEL 3
REMARK VINA RESULT:      -9.3      2.206     10.457
REMARK  5 active torsions:
REMARK  status: ('A' for Active; 'I' for Inactive)
REMARK    1  A    between atoms: C_5  and  S_6 
REMARK    2  A    between atoms: S_6  and  C_7 
REMARK    3  A    between atoms: C_7  and  C_8 
REMARK       I    between atoms: C_8  and  N_9 
REMARK    4  A    between atoms: N_9  and  N_10 
REMARK       I    between atoms: N_10  and  C_11 
REMARK    5  A    between atoms: C_11  and  C_12 
ROOT
HETATM    1  N   UNL     1      25.625  46.188  51.882  1.00  0.00    -0.262 N 
HETATM    2  C   UNL     1      25.639  44.993  52.570  1.00  0.00     0.286 C 
HETATM    3  O   UNL     1      24.678  44.224  52.563  1.00  0.00    -0.264 OA
HETATM    4  H   UNL     1      26.432  46.801  51.813  1.00  0.00     0.190 HD
ENDROOT
BRANCH   1   5
HETATM    5  N   UNL     1      24.540  46.491  51.052  1.00  0.00    -0.267 N 
HETATM    6  C   UNL     1      24.666  47.570  50.200  1.00  0.00     0.245 C 
HETATM    7  O   UNL     1      25.731  48.173  50.061  1.00  0.00    -0.271 OA
HETATM    8  H   UNL     1      23.630  46.119  51.324  1.00  0.00     0.190 HD
BRANCH   6   9
HETATM    9  C   UNL     1      23.438  47.888  49.370  1.00  0.00     0.184 C 
BRANCH   9  10
HETATM   10  S   UNL     1      23.673  49.419  48.408  1.00  0.00    -0.121 SA
BRANCH  10  11
HETATM   11  C   UNL     1      22.112  50.220  48.731  1.00  0.00     0.001 A 
HETATM   12  C   UNL     1      21.783  50.575  50.041  1.00  0.00     0.019 A 
HETATM   13  C   UNL     1      20.571  51.215  50.319  1.00  0.00     0.008 A 
HETATM   14  C   UNL     1      19.672  51.511  49.289  1.00  0.00    -0.062 A 
HETATM   15  C   UNL     1      18.376  52.210  49.569  1.00  0.00     0.048 C 
HETATM   16  C   UNL     1      20.012  51.170  47.974  1.00  0.00     0.008 A 
HETATM   17  C   UNL     1      21.225  50.534  47.697  1.00  0.00     0.019 A 
ENDBRANCH  10  11
ENDBRANCH   9  10
ENDBRANCH   6   9
ENDBRANCH   1   5
BRANCH   2  18
HETATM   18  C   UNL     1      26.860  44.708  53.289  1.00  0.00     0.103 A 
HETATM   19  N   UNL     1      27.385  45.601  54.199  1.00  0.00    -0.351 N 
HETATM   20  H   UNL     1      26.963  46.496  54.412  1.00  0.00     0.166 HD
HETATM   21  C   UNL     1      28.531  45.108  54.773  1.00  0.00     0.043 A 
HETATM   22  C   UNL     1      28.765  43.859  54.205  1.00  0.00    -0.007 A 
HETATM   23  C   UNL     1      29.372  45.667  55.743  1.00  0.00     0.030 A 
HETATM   24  C   UNL     1      27.716  43.618  53.275  1.00  0.00     0.049 A 
HETATM   25  C   UNL     1      29.894  43.125  54.620  1.00  0.00     0.014 A 
HETATM   26  C   UNL     1      30.745  43.668  55.589  1.00  0.00     0.001 A 
HETATM   27  C   UNL     1      30.485  44.921  56.141  1.00  0.00     0.002 A 
ENDBRANCH   2  18
TORSDOF 5
ENDMDL
MODEL 4
REMARK VINA RESULT:      -9.1      1.465      2.127
REMARK  5 active torsions:
REMARK  status: ('A' for Active; 'I' for Inactive)
REMARK    1  A    between atoms: C_5  and  S_6 
REMARK    2  A    between atoms: S_6  and  C_7 
REMARK    3  A    between atoms: C_7  and  C_8 
REMARK       I    between atoms: C_8  and  N_9 
REMARK    4  A    between atoms: N_9  and  N_10 
REMARK       I    between atoms: N_10  and  C_11 
REMARK    5  A    between atoms: C_11  and  C_12 
ROOT
HETATM    1  N   UNL     1      24.272  46.557  50.662  1.00  0.00    -0.262 N 
HETATM    2  C   UNL     1      24.611  47.642  49.882  1.00  0.00     0.286 C 
HETATM    3  O   UNL     1      25.775  47.873  49.556  1.00  0.00    -0.264 OA
HETATM    4  H   UNL     1      23.312  46.305  50.879  1.00  0.00     0.190 HD
ENDROOT
BRANCH   1   5
HETATM    5  N   UNL     1      25.254  45.620  51.002  1.00  0.00    -0.267 N 
HETATM    6  C   UNL     1      24.834  44.366  51.398  1.00  0.00     0.245 C 
HETATM    7  O   UNL     1      23.653  44.020  51.331  1.00  0.00    -0.271 OA
HETATM    8  H   UNL     1      26.178  45.982  51.239  1.00  0.00     0.190 HD
BRANCH   6   9
HETATM    9  C   UNL     1      25.938  43.413  51.813  1.00  0.00     0.184 C 
BRANCH   9  10
HETATM   10  S   UNL     1      27.552  43.953  51.160  1.00  0.00    -0.121 SA
BRANCH  10  11
HETATM   11  C   UNL     1      28.544  43.781  52.633  1.00  0.00     0.001 A 
HETATM   12  C   UNL     1      29.651  42.928  52.616  1.00  0.00     0.019 A 
HETATM   13  C   UNL     1      30.452  42.785  53.753  1.00  0.00     0.008 A 
HETATM   14  C   UNL     1      30.159  43.495  54.922  1.00  0.00    -0.062 A 
HETATM   15  C   UNL     1      31.018  43.364  56.144  1.00  0.00     0.048 C 
HETATM   16  C   UNL     1      29.061  44.363  54.930  1.00  0.00     0.008 A 
HETATM   17  C   UNL     1      28.263  44.508  53.793  1.00  0.00     0.019 A 
ENDBRANCH  10  11
ENDBRANCH   9  10
ENDBRANCH   6   9
ENDBRANCH   1   5
BRANCH   2  18
HETATM   18  C   UNL     1      23.506  48.476  49.468  1.00  0.00     0.103 A 
HETATM   19  N   UNL     1      22.214  47.996  49.437  1.00  0.00    -0.351 N 
HETATM   20  H   UNL     1      21.963  47.048  49.688  1.00  0.00     0.166 HD
HETATM   21  C   UNL     1      21.332  48.969  49.035  1.00  0.00     0.043 A 
HETATM   22  C   UNL     1      22.080  50.116  48.784  1.00  0.00    -0.007 A 
HETATM   23  C   UNL     1      19.942  48.923  48.877  1.00  0.00     0.030 A 
HETATM   24  C   UNL     1      23.440  49.797  49.055  1.00  0.00     0.049 A 
HETATM   25  C   UNL     1      21.415  51.280  48.351  1.00  0.00     0.014 A 
HETATM   26  C   UNL     1      20.025  51.253  48.188  1.00  0.00     0.001 A 
HETATM   27  C   UNL     1      19.302  50.090  48.447  1.00  0.00     0.002 A 
ENDBRANCH   2  18
TORSDOF 5
ENDMDL
MODEL 5
REMARK VINA RESULT:      -9.0      2.276      2.927
REMARK  5 active torsions:
REMARK  status: ('A' for Active; 'I' for Inactive)
REMARK    1  A    between atoms: C_5  and  S_6 
REMARK    2  A    between atoms: S_6  and  C_7 
REMARK    3  A    between atoms: C_7  and  C_8 
REMARK       I    between atoms: C_8  and  N_9 
REMARK    4  A    between atoms: N_9  and  N_10 
REMARK       I    between atoms: N_10  and  C_11 
REMARK    5  A    between atoms: C_11  and  C_12 
ROOT
HETATM    1  N   UNL     1      24.558  47.150  51.458  1.00  0.00    -0.262 N 
HETATM    2  C   UNL     1      24.830  47.594  50.182  1.00  0.00     0.286 C 
HETATM    3  O   UNL     1      25.938  47.451  49.664  1.00  0.00    -0.264 OA
HETATM    4  H   UNL     1      23.633  47.189  51.877  1.00  0.00     0.190 HD
ENDROOT
BRANCH   1   5
HETATM    5  N   UNL     1      25.523  46.409  52.150  1.00  0.00    -0.267 N 
HETATM    6  C   UNL     1      25.959  46.898  53.365  1.00  0.00     0.245 C 
HETATM    7  O   UNL     1      25.435  47.875  53.903  1.00  0.00    -0.271 OA
HETATM    8  H   UNL     1      26.070  45.739  51.607  1.00  0.00     0.190 HD
BRANCH   6   9
HETATM    9  C   UNL     1      27.048  46.086  54.038  1.00  0.00     0.184 C 
BRANCH   9  10
HETATM   10  S   UNL     1      27.755  46.985  55.458  1.00  0.00    -0.121 SA
BRANCH  10  11
HETATM   11  C   UNL     1      29.028  45.832  55.939  1.00  0.00     0.001 A 
HETATM   12  C   UNL     1      29.648  45.976  57.184  1.00  0.00     0.019 A 
HETATM   13  C   UNL     1      30.640  45.078  57.589  1.00  0.00     0.008 A 
HETATM   14  C   UNL     1      31.024  44.022  56.758  1.00  0.00    -0.062 A 
HETATM   15  C   UNL     1      32.076  43.042  57.186  1.00  0.00     0.048 C 
HETATM   16  C   UNL     1      30.389  43.868  55.520  1.00  0.00     0.008 A 
HETATM   17  C   UNL     1      29.395  44.763  55.116  1.00  0.00     0.019 A 
ENDBRANCH  10  11
ENDBRANCH   9  10
ENDBRANCH   6   9
ENDBRANCH   1   5
BRANCH   2  18
HETATM   18  C   UNL     1      23.726  48.227  49.498  1.00  0.00     0.103 A 
HETATM   19  N   UNL     1      22.491  47.620  49.412  1.00  0.00    -0.351 N 
HETATM   20  H   UNL     1      22.285  46.711  49.806  1.00  0.00     0.166 HD
HETATM   21  C   UNL     1      21.594  48.414  48.739  1.00  0.00     0.043 A 
HETATM   22  C   UNL     1      22.276  49.569  48.364  1.00  0.00    -0.007 A 
HETATM   23  C   UNL     1      20.244  48.201  48.436  1.00  0.00     0.030 A 
HETATM   24  C   UNL     1      23.610  49.441  48.840  1.00  0.00     0.049 A 
HETATM   25  C   UNL     1      21.582  50.565  47.649  1.00  0.00     0.014 A 
HETATM   26  C   UNL     1      20.232  50.369  47.339  1.00  0.00     0.001 A 
HETATM   27  C   UNL     1      19.575  49.203  47.727  1.00  0.00     0.002 A 
ENDBRANCH   2  18
TORSDOF 5
ENDMDL
MODEL 6
REMARK VINA RESULT:      -8.4      1.570      2.089
REMARK  5 active torsions:
REMARK  status: ('A' for Active; 'I' for Inactive)
REMARK    1  A    between atoms: C_5  and  S_6 
REMARK    2  A    between atoms: S_6  and  C_7 
REMARK    3  A    between atoms: C_7  and  C_8 
REMARK       I    between atoms: C_8  and  N_9 
REMARK    4  A    between atoms: N_9  and  N_10 
REMARK       I    between atoms: N_10  and  C_11 
REMARK    5  A    between atoms: C_11  and  C_12 
ROOT
HETATM    1  N   UNL     1      22.744  47.744  49.438  1.00  0.00    -0.262 N 
HETATM    2  C   UNL     1      22.935  49.105  49.343  1.00  0.00     0.286 C 
HETATM    3  O   UNL     1      24.059  49.608  49.342  1.00  0.00    -0.264 OA
HETATM    4  H   UNL     1      21.831  47.302  49.365  1.00  0.00     0.190 HD
ENDROOT
BRANCH   1   5
HETATM    5  N   UNL     1      23.851  46.889  49.413  1.00  0.00    -0.267 N 
HETATM    6  C   UNL     1      23.619  45.542  49.216  1.00  0.00     0.245 C 
HETATM    7  O   UNL     1      22.502  45.106  48.933  1.00  0.00    -0.271 OA
HETATM    8  H   UNL     1      24.712  47.234  49.840  1.00  0.00     0.190 HD
BRANCH   6   9
HETATM    9  C   UNL     1      24.850  44.658  49.261  1.00  0.00     0.184 C 
BRANCH   9  10
HETATM   10  S   UNL     1      24.657  43.327  50.491  1.00  0.00    -0.121 SA
BRANCH  10  11
HETATM   11  C   UNL     1      25.814  43.890  51.727  1.00  0.00     0.001 A 
HETATM   12  C   UNL     1      27.135  43.438  51.685  1.00  0.00     0.019 A 
HETATM   13  C   UNL     1      28.064  43.874  52.634  1.00  0.00     0.008 A 
HETATM   14  C   UNL     1      27.685  44.772  53.638  1.00  0.00    -0.062 A 
HETATM   15  C   UNL     1      28.673  45.261  54.654  1.00  0.00     0.048 C 
HETATM   16  C   UNL     1      26.365  45.238  53.666  1.00  0.00     0.008 A 
HETATM   17  C   UNL     1      25.438  44.805  52.715  1.00  0.00     0.019 A 
ENDBRANCH  10  11
ENDBRANCH   9  10
ENDBRANCH   6   9
ENDBRANCH   1   5
BRANCH   2  18
HETATM   18  C   UNL     1      21.729  49.894  49.236  1.00  0.00     0.103 A 
HETATM   19  N   UNL     1      20.556  49.501  49.844  1.00  0.00    -0.351 N 
HETATM   20  H   UNL     1      20.464  48.650  50.385  1.00  0.00     0.166 HD
HETATM   21  C   UNL     1      19.553  50.414  49.625  1.00  0.00     0.043 A 
HETATM   22  C   UNL     1      20.092  51.427  48.837  1.00  0.00    -0.007 A 
HETATM   23  C   UNL     1      18.223  50.421  50.062  1.00  0.00     0.030 A 
HETATM   24  C   UNL     1      21.453  51.092  48.595  1.00  0.00     0.049 A 
HETATM   25  C   UNL     1      19.267  52.504  48.459  1.00  0.00     0.014 A 
HETATM   26  C   UNL     1      17.934  52.529  48.886  1.00  0.00     0.001 A 
HETATM   27  C   UNL     1      17.422  51.500  49.676  1.00  0.00     0.002 A 
ENDBRANCH   2  18
TORSDOF 5
ENDMDL
MODEL 7
REMARK VINA RESULT:      -7.6      2.753      3.173
REMARK  5 active torsions:
REMARK  status: ('A' for Active; 'I' for Inactive)
REMARK    1  A    between atoms: C_5  and  S_6 
REMARK    2  A    between atoms: S_6  and  C_7 
REMARK    3  A    between atoms: C_7  and  C_8 
REMARK       I    between atoms: C_8  and  N_9 
REMARK    4  A    between atoms: N_9  and  N_10 
REMARK       I    between atoms: N_10  and  C_11 
REMARK    5  A    between atoms: C_11  and  C_12 
ROOT
HETATM    1  N   UNL     1      23.114  44.968  50.262  1.00  0.00    -0.262 N 
HETATM    2  C   UNL     1      23.219  45.109  48.895  1.00  0.00     0.286 C 
HETATM    3  O   UNL     1      24.151  44.620  48.258  1.00  0.00    -0.264 OA
HETATM    4  H   UNL     1      22.316  45.298  50.798  1.00  0.00     0.190 HD
ENDROOT
BRANCH   1   5
HETATM    5  N   UNL     1      24.023  44.149  50.941  1.00  0.00    -0.267 N 
HETATM    6  C   UNL     1      24.970  44.761  51.737  1.00  0.00     0.245 C 
HETATM    7  O   UNL     1      24.950  45.972  51.963  1.00  0.00    -0.271 OA
HETATM    8  H   UNL     1      24.144  43.199  50.587  1.00  0.00     0.190 HD
BRANCH   6   9
HETATM    9  C   UNL     1      25.965  43.828  52.398  1.00  0.00     0.184 C 
BRANCH   9  10
HETATM   10  S   UNL     1      27.572  43.864  51.538  1.00  0.00    -0.121 SA
BRANCH  10  11
HETATM   11  C   UNL     1      28.666  43.754  52.943  1.00  0.00     0.001 A 
HETATM   12  C   UNL     1      28.403  44.526  54.078  1.00  0.00     0.019 A 
HETATM   13  C   UNL     1      29.238  44.449  55.196  1.00  0.00     0.008 A 
HETATM   14  C   UNL     1      30.347  43.597  55.197  1.00  0.00    -0.062 A 
HETATM   15  C   UNL     1      31.243  43.492  56.395  1.00  0.00     0.048 C 
HETATM   16  C   UNL     1      30.598  42.811  54.066  1.00  0.00     0.008 A 
HETATM   17  C   UNL     1      29.761  42.886  52.950  1.00  0.00     0.019 A 
ENDBRANCH  10  11
ENDBRANCH   9  10
ENDBRANCH   6   9
ENDBRANCH   1   5
BRANCH   2  18
HETATM   18  C   UNL     1      22.155  45.859  48.267  1.00  0.00     0.103 A 
HETATM   19  N   UNL     1      21.570  46.940  48.894  1.00  0.00    -0.351 N 
HETATM   20  H   UNL     1      21.836  47.264  49.815  1.00  0.00     0.166 HD
HETATM   21  C   UNL     1      20.603  47.508  48.101  1.00  0.00     0.043 A 
HETATM   22  C   UNL     1      20.550  46.763  46.927  1.00  0.00    -0.007 A 
HETATM   23  C   UNL     1      19.778  48.616  48.332  1.00  0.00     0.030 A 
HETATM   24  C   UNL     1      21.522  45.732  47.041  1.00  0.00     0.049 A 
HETATM   25  C   UNL     1      19.629  47.135  45.928  1.00  0.00     0.014 A 
HETATM   26  C   UNL     1      18.797  48.240  46.141  1.00  0.00     0.001 A 
HETATM   27  C   UNL     1      18.873  48.968  47.327  1.00  0.00     0.002 A 
ENDBRANCH   2  18
TORSDOF 5
ENDMDL
MODEL 8
REMARK VINA RESULT:      -7.5      2.368     10.144
REMARK  5 active torsions:
REMARK  status: ('A' for Active; 'I' for Inactive)
REMARK    1  A    between atoms: C_5  and  S_6 
REMARK    2  A    between atoms: S_6  and  C_7 
REMARK    3  A    between atoms: C_7  and  C_8 
REMARK       I    between atoms: C_8  and  N_9 
REMARK    4  A    between atoms: N_9  and  N_10 
REMARK       I    between atoms: N_10  and  C_11 
REMARK    5  A    between atoms: C_11  and  C_12 
ROOT
HETATM    1  N   UNL     1      25.039  44.874  49.590  1.00  0.00    -0.262 N 
HETATM    2  C   UNL     1      24.886  44.362  50.861  1.00  0.00     0.286 C 
HETATM    3  O   UNL     1      23.776  44.130  51.341  1.00  0.00    -0.264 OA
HETATM    4  H   UNL     1      25.945  45.002  49.146  1.00  0.00     0.190 HD
ENDROOT
BRANCH   1   5
HETATM    5  N   UNL     1      23.917  45.028  48.769  1.00  0.00    -0.267 N 
HETATM    6  C   UNL     1      23.345  46.282  48.691  1.00  0.00     0.245 C 
HETATM    7  O   UNL     1      23.867  47.272  49.207  1.00  0.00    -0.271 OA
HETATM    8  H   UNL     1      23.402  44.181  48.525  1.00  0.00     0.190 HD
BRANCH   6   9
HETATM    9  C   UNL     1      22.097  46.374  47.836  1.00  0.00     0.184 C 
BRANCH   9  10
HETATM   10  S   UNL     1      20.595  46.423  48.868  1.00  0.00    -0.121 SA
BRANCH  10  11
HETATM   11  C   UNL     1      20.230  48.167  48.785  1.00  0.00     0.001 A 
HETATM   12  C   UNL     1      20.756  48.927  47.738  1.00  0.00     0.019 A 
HETATM   13  C   UNL     1      20.475  50.294  47.643  1.00  0.00     0.008 A 
HETATM   14  C   UNL     1      19.661  50.918  48.594  1.00  0.00    -0.062 A 
HETATM   15  C   UNL     1      19.338  52.379  48.496  1.00  0.00     0.048 C 
HETATM   16  C   UNL     1      19.120  50.151  49.631  1.00  0.00     0.008 A 
HETATM   17  C   UNL     1      19.398  48.785  49.724  1.00  0.00     0.019 A 
ENDBRANCH  10  11
ENDBRANCH   9  10
ENDBRANCH   6   9
ENDBRANCH   1   5
BRANCH   2  18
HETATM   18  C   UNL     1      26.114  44.110  51.579  1.00  0.00     0.103 A 
HETATM   19  N   UNL     1      26.310  44.588  52.858  1.00  0.00    -0.351 N 
HETATM   20  H   UNL     1      25.627  45.141  53.360  1.00  0.00     0.166 HD
HETATM   21  C   UNL     1      27.536  44.208  53.347  1.00  0.00     0.043 A 
HETATM   22  C   UNL     1      28.161  43.468  52.346  1.00  0.00    -0.007 A 
HETATM   23  C   UNL     1      28.134  44.458  54.588  1.00  0.00     0.030 A 
HETATM   24  C   UNL     1      27.265  43.415  51.243  1.00  0.00     0.049 A 
HETATM   25  C   UNL     1      29.449  42.951  52.588  1.00  0.00     0.014 A 
HETATM   26  C   UNL     1      30.062  43.190  53.823  1.00  0.00     0.001 A 
HETATM   27  C   UNL     1      29.412  43.934  54.806  1.00  0.00     0.002 A 
ENDBRANCH   2  18
TORSDOF 5
ENDMDL
MODEL 9
REMARK VINA RESULT:      -7.5     13.588     14.550
REMARK  5 active torsions:
REMARK  status: ('A' for Active; 'I' for Inactive)
REMARK    1  A    between atoms: C_5  and  S_6 
REMARK    2  A    between atoms: S_6  and  C_7 
REMARK    3  A    between atoms: C_7  and  C_8 
REMARK       I    between atoms: C_8  and  N_9 
REMARK    4  A    between atoms: N_9  and  N_10 
REMARK       I    between atoms: N_10  and  C_11 
REMARK    5  A    between atoms: C_11  and  C_12 
ROOT
HETATM    1  N   UNL     1      34.038  51.900  43.312  1.00  0.00    -0.262 N 
HETATM    2  C   UNL     1      32.740  51.751  43.752  1.00  0.00     0.286 C 
HETATM    3  O   UNL     1      32.463  51.663  44.948  1.00  0.00    -0.264 OA
HETATM    4  H   UNL     1      34.282  52.050  42.336  1.00  0.00     0.190 HD
ENDROOT
BRANCH   1   5
HETATM    5  N   UNL     1      35.066  52.077  44.244  1.00  0.00    -0.267 N 
HETATM    6  C   UNL     1      36.229  52.681  43.811  1.00  0.00     0.245 C 
HETATM    7  O   UNL     1      36.329  53.177  42.688  1.00  0.00    -0.271 OA
HETATM    8  H   UNL     1      35.037  51.494  45.081  1.00  0.00     0.190 HD
BRANCH   6   9
HETATM    9  C   UNL     1      37.329  52.790  44.849  1.00  0.00     0.184 C 
BRANCH   9  10
HETATM   10  S   UNL     1      37.577  54.521  45.365  1.00  0.00    -0.121 SA
BRANCH  10  11
HETATM   11  C   UNL     1      39.094  54.345  46.287  1.00  0.00     0.001 A 
HETATM   12  C   UNL     1      39.035  54.121  47.665  1.00  0.00     0.019 A 
HETATM   13  C   UNL     1      40.209  53.968  48.408  1.00  0.00     0.008 A 
HETATM   14  C   UNL     1      41.459  54.032  47.783  1.00  0.00    -0.062 A 
HETATM   15  C   UNL     1      42.726  53.854  48.565  1.00  0.00     0.048 C 
HETATM   16  C   UNL     1      41.514  54.237  46.400  1.00  0.00     0.008 A 
HETATM   17  C   UNL     1      40.341  54.387  45.657  1.00  0.00     0.019 A 
ENDBRANCH  10  11
ENDBRANCH   9  10
ENDBRANCH   6   9
ENDBRANCH   1   5
BRANCH   2  18
HETATM   18  C   UNL     1      31.735  51.715  42.714  1.00  0.00     0.103 A 
HETATM   19  N   UNL     1      31.373  52.852  42.024  1.00  0.00    -0.351 N 
HETATM   20  H   UNL     1      31.773  53.765  42.200  1.00  0.00     0.166 HD
HETATM   21  C   UNL     1      30.420  52.574  41.075  1.00  0.00     0.043 A 
HETATM   22  C   UNL     1      30.144  51.212  41.162  1.00  0.00    -0.007 A 
HETATM   23  C   UNL     1      29.786  53.416  40.152  1.00  0.00     0.030 A 
HETATM   24  C   UNL     1      30.969  50.684  42.193  1.00  0.00     0.049 A 
HETATM   25  C   UNL     1      29.189  50.655  40.291  1.00  0.00     0.014 A 
HETATM   26  C   UNL     1      28.546  51.481  39.362  1.00  0.00     0.001 A 
HETATM   27  C   UNL     1      28.842  52.841  39.296  1.00  0.00     0.002 A 
ENDBRANCH   2  18
TORSDOF 5
ENDMDL
MODEL 10
REMARK VINA RESULT:      -7.4      3.785     10.311
REMARK  5 active torsions:
REMARK  status: ('A' for Active; 'I' for Inactive)
REMARK    1  A    between atoms: C_5  and  S_6 
REMARK    2  A    between atoms: S_6  and  C_7 
REMARK    3  A    between atoms: C_7  and  C_8 
REMARK       I    between atoms: C_8  and  N_9 
REMARK    4  A    between atoms: N_9  and  N_10 
REMARK       I    between atoms: N_10  and  C_11 
REMARK    5  A    between atoms: C_11  and  C_12 
ROOT
HETATM    1  N   UNL     1      26.175  45.499  51.432  1.00  0.00    -0.262 N 
HETATM    2  C   UNL     1      25.921  44.945  52.668  1.00  0.00     0.286 C 
HETATM    3  O   UNL     1      24.797  44.564  52.995  1.00  0.00    -0.264 OA
HETATM    4  H   UNL     1      27.107  45.750  51.113  1.00  0.00     0.190 HD
ENDROOT
BRANCH   1   5
HETATM    5  N   UNL     1      25.160  45.528  50.469  1.00  0.00    -0.267 N 
HETATM    6  C   UNL     1      24.534  46.734  50.230  1.00  0.00     0.245 C 
HETATM    7  O   UNL     1      24.930  47.787  50.735  1.00  0.00    -0.271 OA
HETATM    8  H   UNL     1      24.728  44.635  50.225  1.00  0.00     0.190 HD
BRANCH   6   9
HETATM    9  C   UNL     1      23.403  46.691  49.222  1.00  0.00     0.184 C 
BRANCH   9  10
HETATM   10  S   UNL     1      23.044  44.978  48.711  1.00  0.00    -0.121 SA
BRANCH  10  11
HETATM   11  C   UNL     1      22.321  45.288  47.110  1.00  0.00     0.001 A 
HETATM   12  C   UNL     1      22.803  44.597  45.995  1.00  0.00     0.019 A 
HETATM   13  C   UNL     1      22.245  44.812  44.732  1.00  0.00     0.008 A 
HETATM   14  C   UNL     1      21.195  45.721  44.565  1.00  0.00    -0.062 A 
HETATM   15  C   UNL     1      20.576  45.951  43.219  1.00  0.00     0.048 C 
HETATM   16  C   UNL     1      20.701  46.398  45.686  1.00  0.00     0.008 A 
HETATM   17  C   UNL     1      21.256  46.180  46.949  1.00  0.00     0.019 A 
ENDBRANCH  10  11
ENDBRANCH   9  10
ENDBRANCH   6   9
ENDBRANCH   1   5
BRANCH   2  18
HETATM   18  C   UNL     1      27.066  44.834  53.543  1.00  0.00     0.103 A 
HETATM   19  N   UNL     1      27.916  43.750  53.483  1.00  0.00    -0.351 N 
HETATM   20  H   UNL     1      27.791  42.976  52.843  1.00  0.00     0.166 HD
HETATM   21  C   UNL     1      28.940  43.872  54.390  1.00  0.00     0.043 A 
HETATM   22  C   UNL     1      28.741  45.070  55.070  1.00  0.00    -0.007 A 
HETATM   23  C   UNL     1      30.020  43.021  54.657  1.00  0.00     0.030 A 
HETATM   24  C   UNL     1      27.564  45.663  54.536  1.00  0.00     0.049 A 
HETATM   25  C   UNL     1      29.659  45.444  56.070  1.00  0.00     0.014 A 
HETATM   26  C   UNL     1      30.745  44.607  56.350  1.00  0.00     0.001 A 
HETATM   27  C   UNL     1      30.920  43.413  55.652  1.00  0.00     0.002 A 
ENDBRANCH   2  18
TORSDOF 5
ENDMDL
