MODEL 1
REMARK VINA RESULT:      -8.2      0.000      0.000
REMARK  3 active torsions:
REMARK  status: ('A' for Active; 'I' for Inactive)
REMARK    1  A    between atoms: O_2  and  C_3 
REMARK    2  A    between atoms: C_4  and  C_5 
REMARK    3  A    between atoms: C_16  and  N_17 
ROOT
HETATM    1  C   UNL     1      25.965  45.901  53.591  1.00  0.00     0.246 C 
HETATM    2  N   UNL     1      27.261  45.418  54.018  1.00  0.00    -0.151 N 
HETATM    3  C   UNL     1      28.042  46.160  54.869  1.00  0.00     0.734 A 
HETATM    4  N   UNL     1      29.171  45.524  55.094  1.00  0.00    -0.060 NA
HETATM    5  C   UNL     1      29.082  44.327  54.430  1.00  0.00     0.103 A 
HETATM    6  C   UNL     1      27.868  44.219  53.757  1.00  0.00     0.083 A 
HETATM    7  C   UNL     1      30.005  43.275  54.360  1.00  0.00     0.034 A 
HETATM    8  C   UNL     1      29.672  42.138  53.615  1.00  0.00     0.002 A 
HETATM    9  C   UNL     1      28.444  42.051  52.954  1.00  0.00     0.002 A 
HETATM   10  C   UNL     1      27.510  43.093  53.009  1.00  0.00     0.033 A 
HETATM   11  N   UNL     1      27.652  47.352  55.374  1.00  0.00    -0.033 NA
HETATM   12  C   UNL     1      26.471  47.779  55.111  1.00  0.00     0.193 C 
HETATM   13  N   UNL     1      25.557  47.115  54.293  1.00  0.00    -0.338 N 
HETATM   14  H   UNL     1      24.609  47.436  54.167  1.00  0.00     0.164 HD
ENDROOT
BRANCH   1  15
HETATM   15  C   UNL     1      25.853  46.196  52.098  1.00  0.00     0.020 A 
HETATM   16  C   UNL     1      25.039  45.357  51.299  1.00  0.00     0.078 A 
HETATM   17  C   UNL     1      24.925  45.588  49.924  1.00  0.00     0.039 A 
HETATM   18  C   UNL     1      25.598  46.657  49.329  1.00  0.00     0.022 A 
HETATM   19  C   UNL     1      26.373  47.504  50.110  1.00  0.00     0.011 A 
HETATM   20  C   UNL     1      26.496  47.289  51.483  1.00  0.00     0.033 A 
HETATM   21 BR   UNL     1      27.272  48.959  49.306  1.00  0.00    -0.051 Br
BRANCH  16  22
HETATM   22  O   UNL     1      24.382  44.357  51.974  1.00  0.00    -0.355 OA
HETATM   23  C   UNL     1      24.200  43.118  51.290  1.00  0.00     0.210 C 
ENDBRANCH  16  22
ENDBRANCH   1  15
BRANCH  12  24
HETATM   24  N   UNL     1      25.980  48.933  55.606  1.00  0.00    -0.272 NA
HETATM   25  H   UNL     1      25.700  49.562  54.857  1.00  0.00     0.127 HD
HETATM   26  H   UNL     1      25.254  48.850  56.306  1.00  0.00     0.127 HD
ENDBRANCH  12  24
TORSDOF 3
ENDMDL
MODEL 2
REMARK VINA RESULT:      -7.1     12.640     13.914
REMARK  3 active torsions:
REMARK  status: ('A' for Active; 'I' for Inactive)
REMARK    1  A    between atoms: O_2  and  C_3 
REMARK    2  A    between atoms: C_4  and  C_5 
REMARK    3  A    between atoms: C_16  and  N_17 
ROOT
HETATM    1  C   UNL     1      30.396  49.160  41.738  1.00  0.00     0.246 C 
HETATM    2  N   UNL     1      29.760  48.215  40.845  1.00  0.00    -0.151 N 
HETATM    3  C   UNL     1      30.504  47.292  40.153  1.00  0.00     0.734 A 
HETATM    4  N   UNL     1      29.708  46.563  39.400  1.00  0.00    -0.060 NA
HETATM    5  C   UNL     1      28.430  46.983  39.667  1.00  0.00     0.103 A 
HETATM    6  C   UNL     1      28.428  48.015  40.601  1.00  0.00     0.083 A 
HETATM    7  C   UNL     1      27.213  46.521  39.146  1.00  0.00     0.034 A 
HETATM    8  C   UNL     1      26.025  47.114  39.590  1.00  0.00     0.002 A 
HETATM    9  C   UNL     1      26.049  48.144  40.534  1.00  0.00     0.002 A 
HETATM   10  C   UNL     1      27.255  48.620  41.064  1.00  0.00     0.033 A 
HETATM   11  N   UNL     1      31.847  47.190  40.274  1.00  0.00    -0.033 NA
HETATM   12  C   UNL     1      32.449  47.934  41.128  1.00  0.00     0.193 C 
HETATM   13  N   UNL     1      31.819  48.888  41.926  1.00  0.00    -0.338 N 
HETATM   14  H   UNL     1      32.305  49.403  42.643  1.00  0.00     0.164 HD
ENDROOT
BRANCH   1  15
HETATM   15  C   UNL     1      30.279  50.621  41.311  1.00  0.00     0.020 A 
HETATM   16  C   UNL     1      30.789  51.623  42.173  1.00  0.00     0.078 A 
HETATM   17  C   UNL     1      30.684  52.973  41.821  1.00  0.00     0.039 A 
HETATM   18  C   UNL     1      30.094  53.345  40.612  1.00  0.00     0.022 A 
HETATM   19  C   UNL     1      29.620  52.368  39.746  1.00  0.00     0.011 A 
HETATM   20  C   UNL     1      29.717  51.017  40.080  1.00  0.00     0.033 A 
HETATM   21 BR   UNL     1      28.835  52.873  38.104  1.00  0.00    -0.051 Br
BRANCH  16  22
HETATM   22  O   UNL     1      31.389  51.164  43.320  1.00  0.00    -0.355 OA
HETATM   23  C   UNL     1      32.532  51.878  43.789  1.00  0.00     0.210 C 
ENDBRANCH  16  22
ENDBRANCH   1  15
BRANCH  12  24
HETATM   24  N   UNL     1      33.778  47.869  41.350  1.00  0.00    -0.272 NA
HETATM   25  H   UNL     1      34.175  48.800  41.457  1.00  0.00     0.127 HD
HETATM   26  H   UNL     1      34.081  47.252  42.093  1.00  0.00     0.127 HD
ENDBRANCH  12  24
TORSDOF 3
ENDMDL
MODEL 3
REMARK VINA RESULT:      -7.1      3.702      6.529
REMARK  3 active torsions:
REMARK  status: ('A' for Active; 'I' for Inactive)
REMARK    1  A    between atoms: O_2  and  C_3 
REMARK    2  A    between atoms: C_4  and  C_5 
REMARK    3  A    between atoms: C_16  and  N_17 
ROOT
HETATM    1  C   UNL     1      26.018  46.952  49.504  1.00  0.00     0.246 C 
HETATM    2  N   UNL     1      24.831  47.689  49.126  1.00  0.00    -0.151 N 
HETATM    3  C   UNL     1      24.898  49.030  48.837  1.00  0.00     0.734 A 
HETATM    4  N   UNL     1      23.696  49.475  48.540  1.00  0.00    -0.060 NA
HETATM    5  C   UNL     1      22.860  48.388  48.575  1.00  0.00     0.103 A 
HETATM    6  C   UNL     1      23.556  47.234  48.920  1.00  0.00     0.083 A 
HETATM    7  C   UNL     1      21.484  48.313  48.319  1.00  0.00     0.034 A 
HETATM    8  C   UNL     1      20.851  47.069  48.412  1.00  0.00     0.002 A 
HETATM    9  C   UNL     1      21.574  45.922  48.753  1.00  0.00     0.002 A 
HETATM   10  C   UNL     1      22.948  45.978  49.016  1.00  0.00     0.033 A 
HETATM   11  N   UNL     1      26.054  49.730  48.861  1.00  0.00    -0.033 NA
HETATM   12  C   UNL     1      27.152  49.105  49.089  1.00  0.00     0.193 C 
HETATM   13  N   UNL     1      27.239  47.741  49.362  1.00  0.00    -0.338 N 
HETATM   14  H   UNL     1      28.122  47.262  49.461  1.00  0.00     0.164 HD
ENDROOT
BRANCH   1  15
HETATM   15  C   UNL     1      26.006  46.411  50.931  1.00  0.00     0.020 A 
HETATM   16  C   UNL     1      25.887  45.013  51.126  1.00  0.00     0.078 A 
HETATM   17  C   UNL     1      25.857  44.483  52.421  1.00  0.00     0.039 A 
HETATM   18  C   UNL     1      25.962  45.322  53.531  1.00  0.00     0.022 A 
HETATM   19  C   UNL     1      26.111  46.691  53.349  1.00  0.00     0.011 A 
HETATM   20  C   UNL     1      26.144  47.237  52.065  1.00  0.00     0.033 A 
HETATM   21 BR   UNL     1      26.267  47.825  54.852  1.00  0.00    -0.051 Br
BRANCH  16  22
HETATM   22  O   UNL     1      25.831  44.261  49.978  1.00  0.00    -0.355 OA
HETATM   23  C   UNL     1      26.799  43.222  49.831  1.00  0.00     0.210 C 
ENDBRANCH  16  22
ENDBRANCH   1  15
BRANCH  12  24
HETATM   24  N   UNL     1      28.356  49.711  49.088  1.00  0.00    -0.272 NA
HETATM   25  H   UNL     1      28.399  50.437  48.376  1.00  0.00     0.127 HD
HETATM   26  H   UNL     1      28.690  50.051  49.980  1.00  0.00     0.127 HD
ENDBRANCH  12  24
TORSDOF 3
ENDMDL
MODEL 4
REMARK VINA RESULT:      -7.1      3.640      5.470
REMARK  3 active torsions:
REMARK  status: ('A' for Active; 'I' for Inactive)
REMARK    1  A    between atoms: O_2  and  C_3 
REMARK    2  A    between atoms: C_4  and  C_5 
REMARK    3  A    between atoms: C_16  and  N_17 
ROOT
HETATM    1  C   UNL     1      25.384  45.905  49.630  1.00  0.00     0.246 C 
HETATM    2  N   UNL     1      25.267  45.383  50.975  1.00  0.00    -0.151 N 
HETATM    3  C   UNL     1      24.737  44.137  51.202  1.00  0.00     0.734 A 
HETATM    4  N   UNL     1      24.721  43.897  52.496  1.00  0.00    -0.060 NA
HETATM    5  C   UNL     1      25.310  44.979  53.099  1.00  0.00     0.103 A 
HETATM    6  C   UNL     1      25.691  45.930  52.157  1.00  0.00     0.083 A 
HETATM    7  C   UNL     1      25.557  45.217  54.458  1.00  0.00     0.034 A 
HETATM    8  C   UNL     1      26.189  46.410  54.827  1.00  0.00     0.002 A 
HETATM    9  C   UNL     1      26.569  47.346  53.860  1.00  0.00     0.002 A 
HETATM   10  C   UNL     1      26.328  47.127  52.498  1.00  0.00     0.033 A 
HETATM   11  N   UNL     1      24.322  43.322  50.207  1.00  0.00    -0.033 NA
HETATM   12  C   UNL     1      24.497  43.692  48.991  1.00  0.00     0.193 C 
HETATM   13  N   UNL     1      25.055  44.912  48.611  1.00  0.00    -0.338 N 
HETATM   14  H   UNL     1      25.252  45.143  47.649  1.00  0.00     0.164 HD
ENDROOT
BRANCH   1  15
HETATM   15  C   UNL     1      24.524  47.132  49.344  1.00  0.00     0.020 A 
HETATM   16  C   UNL     1      25.162  48.385  49.174  1.00  0.00     0.078 A 
HETATM   17  C   UNL     1      24.404  49.535  48.926  1.00  0.00     0.039 A 
HETATM   18  C   UNL     1      23.014  49.456  48.826  1.00  0.00     0.022 A 
HETATM   19  C   UNL     1      22.381  48.227  48.959  1.00  0.00     0.011 A 
HETATM   20  C   UNL     1      23.122  47.070  49.205  1.00  0.00     0.033 A 
HETATM   21 BR   UNL     1      20.500  48.119  48.808  1.00  0.00    -0.051 Br
BRANCH  16  22
HETATM   22  O   UNL     1      26.534  48.362  49.248  1.00  0.00    -0.355 OA
HETATM   23  C   UNL     1      27.230  49.530  48.816  1.00  0.00     0.210 C 
ENDBRANCH  16  22
ENDBRANCH   1  15
BRANCH  12  24
HETATM   24  N   UNL     1      24.157  42.926  47.934  1.00  0.00    -0.272 NA
HETATM   25  H   UNL     1      23.165  43.011  47.727  1.00  0.00     0.127 HD
HETATM   26  H   UNL     1      24.718  43.036  47.099  1.00  0.00     0.127 HD
ENDBRANCH  12  24
TORSDOF 3
ENDMDL
MODEL 5
REMARK VINA RESULT:      -7.1      5.186      7.207
REMARK  3 active torsions:
REMARK  status: ('A' for Active; 'I' for Inactive)
REMARK    1  A    between atoms: O_2  and  C_3 
REMARK    2  A    between atoms: C_4  and  C_5 
REMARK    3  A    between atoms: C_16  and  N_17 
ROOT
HETATM    1  C   UNL     1      22.730  46.948  48.021  1.00  0.00     0.246 C 
HETATM    2  N   UNL     1      23.165  46.081  49.096  1.00  0.00    -0.151 N 
HETATM    3  C   UNL     1      22.598  44.844  49.275  1.00  0.00     0.734 A 
HETATM    4  N   UNL     1      23.145  44.258  50.318  1.00  0.00    -0.060 NA
HETATM    5  C   UNL     1      24.123  45.106  50.772  1.00  0.00     0.103 A 
HETATM    6  C   UNL     1      24.178  46.263  50.000  1.00  0.00     0.083 A 
HETATM    7  C   UNL     1      25.012  44.950  51.845  1.00  0.00     0.034 A 
HETATM    8  C   UNL     1      25.937  45.968  52.103  1.00  0.00     0.002 A 
HETATM    9  C   UNL     1      25.976  47.117  51.309  1.00  0.00     0.002 A 
HETATM   10  C   UNL     1      25.095  47.292  50.235  1.00  0.00     0.033 A 
HETATM   11  N   UNL     1      21.634  44.352  48.465  1.00  0.00    -0.033 NA
HETATM   12  C   UNL     1      21.283  45.035  47.436  1.00  0.00     0.193 C 
HETATM   13  N   UNL     1      21.799  46.289  47.109  1.00  0.00    -0.338 N 
HETATM   14  H   UNL     1      21.561  46.767  46.253  1.00  0.00     0.164 HD
ENDROOT
BRANCH   1  15
HETATM   15  C   UNL     1      22.060  48.241  48.476  1.00  0.00     0.020 A 
HETATM   16  C   UNL     1      22.691  49.474  48.178  1.00  0.00     0.078 A 
HETATM   17  C   UNL     1      22.114  50.679  48.593  1.00  0.00     0.039 A 
HETATM   18  C   UNL     1      20.903  50.680  49.288  1.00  0.00     0.022 A 
HETATM   19  C   UNL     1      20.261  49.479  49.556  1.00  0.00     0.011 A 
HETATM   20  C   UNL     1      20.821  48.268  49.149  1.00  0.00     0.033 A 
HETATM   21 BR   UNL     1      18.615  49.483  50.484  1.00  0.00    -0.051 Br
BRANCH  16  22
HETATM   22  O   UNL     1      23.856  49.380  47.456  1.00  0.00    -0.355 OA
HETATM   23  C   UNL     1      24.983  50.112  47.937  1.00  0.00     0.210 C 
ENDBRANCH  16  22
ENDBRANCH   1  15
BRANCH  12  24
HETATM   24  N   UNL     1      20.364  44.605  46.548  1.00  0.00    -0.272 NA
HETATM   25  H   UNL     1      20.697  43.785  46.046  1.00  0.00     0.127 HD
HETATM   26  H   UNL     1      19.427  44.465  46.901  1.00  0.00     0.127 HD
ENDBRANCH  12  24
TORSDOF 3
ENDMDL
MODEL 6
REMARK VINA RESULT:      -7.1     11.253     13.498
REMARK  3 active torsions:
REMARK  status: ('A' for Active; 'I' for Inactive)
REMARK    1  A    between atoms: O_2  and  C_3 
REMARK    2  A    between atoms: C_4  and  C_5 
REMARK    3  A    between atoms: C_16  and  N_17 
ROOT
HETATM    1  C   UNL     1      16.194  50.723  46.769  1.00  0.00     0.246 C 
HETATM    2  N   UNL     1      17.079  50.089  47.722  1.00  0.00    -0.151 N 
HETATM    3  C   UNL     1      16.817  48.826  48.193  1.00  0.00     0.734 A 
HETATM    4  N   UNL     1      17.749  48.478  49.054  1.00  0.00    -0.060 NA
HETATM    5  C   UNL     1      18.656  49.507  49.083  1.00  0.00     0.103 A 
HETATM    6  C   UNL     1      18.271  50.535  48.228  1.00  0.00     0.083 A 
HETATM    7  C   UNL     1      19.842  49.630  49.820  1.00  0.00     0.034 A 
HETATM    8  C   UNL     1      20.610  50.789  49.667  1.00  0.00     0.002 A 
HETATM    9  C   UNL     1      20.206  51.805  48.796  1.00  0.00     0.002 A 
HETATM   10  C   UNL     1      19.023  51.702  48.053  1.00  0.00     0.033 A 
HETATM   11  N   UNL     1      15.754  48.097  47.789  1.00  0.00    -0.033 NA
HETATM   12  C   UNL     1      14.993  48.569  46.869  1.00  0.00     0.193 C 
HETATM   13  N   UNL     1      15.159  49.819  46.274  1.00  0.00    -0.338 N 
HETATM   14  H   UNL     1      14.593  50.131  45.500  1.00  0.00     0.164 HD
ENDROOT
BRANCH   1  15
HETATM   15  C   UNL     1      15.480  51.967  47.289  1.00  0.00     0.020 A 
HETATM   16  C   UNL     1      14.918  52.870  46.353  1.00  0.00     0.078 A 
HETATM   17  C   UNL     1      14.270  54.029  46.794  1.00  0.00     0.039 A 
HETATM   18  C   UNL     1      14.155  54.299  48.159  1.00  0.00     0.022 A 
HETATM   19  C   UNL     1      14.675  53.404  49.085  1.00  0.00     0.011 A 
HETATM   20  C   UNL     1      15.323  52.243  48.663  1.00  0.00     0.033 A 
HETATM   21 BR   UNL     1      14.506  53.764  50.932  1.00  0.00    -0.051 Br
BRANCH  16  22
HETATM   22  O   UNL     1      15.042  52.504  45.035  1.00  0.00    -0.355 OA
HETATM   23  C   UNL     1      15.742  53.399  44.172  1.00  0.00     0.210 C 
ENDBRANCH  16  22
ENDBRANCH   1  15
BRANCH  12  24
HETATM   24  N   UNL     1      13.937  47.894  46.372  1.00  0.00    -0.272 NA
HETATM   25  H   UNL     1      13.616  48.310  45.500  1.00  0.00     0.127 HD
HETATM   26  H   UNL     1      14.043  46.892  46.283  1.00  0.00     0.127 HD
ENDBRANCH  12  24
TORSDOF 3
ENDMDL
MODEL 7
REMARK VINA RESULT:      -7.1      5.035      7.218
REMARK  3 active torsions:
REMARK  status: ('A' for Active; 'I' for Inactive)
REMARK    1  A    between atoms: O_2  and  C_3 
REMARK    2  A    between atoms: C_4  and  C_5 
REMARK    3  A    between atoms: C_16  and  N_17 
ROOT
HETATM    1  C   UNL     1      22.699  47.412  49.195  1.00  0.00     0.246 C 
HETATM    2  N   UNL     1      23.573  48.455  48.702  1.00  0.00    -0.151 N 
HETATM    3  C   UNL     1      23.075  49.498  47.961  1.00  0.00     0.734 A 
HETATM    4  N   UNL     1      24.060  50.300  47.617  1.00  0.00    -0.060 NA
HETATM    5  C   UNL     1      25.194  49.797  48.202  1.00  0.00     0.103 A 
HETATM    6  C   UNL     1      24.912  48.638  48.920  1.00  0.00     0.083 A 
HETATM    7  C   UNL     1      26.507  50.284  48.166  1.00  0.00     0.034 A 
HETATM    8  C   UNL     1      27.501  49.587  48.863  1.00  0.00     0.002 A 
HETATM    9  C   UNL     1      27.192  48.430  49.583  1.00  0.00     0.002 A 
HETATM   10  C   UNL     1      25.886  47.926  49.628  1.00  0.00     0.033 A 
HETATM   11  N   UNL     1      21.762  49.632  47.670  1.00  0.00    -0.033 NA
HETATM   12  C   UNL     1      20.929  48.793  48.168  1.00  0.00     0.193 C 
HETATM   13  N   UNL     1      21.286  47.708  48.967  1.00  0.00    -0.338 N 
HETATM   14  H   UNL     1      20.604  47.110  49.408  1.00  0.00     0.164 HD
ENDROOT
BRANCH   1  15
HETATM   15  C   UNL     1      22.959  46.028  48.608  1.00  0.00     0.020 A 
HETATM   16  C   UNL     1      23.630  45.068  49.404  1.00  0.00     0.078 A 
HETATM   17  C   UNL     1      23.901  43.794  48.892  1.00  0.00     0.039 A 
HETATM   18  C   UNL     1      23.498  43.451  47.601  1.00  0.00     0.022 A 
HETATM   19  C   UNL     1      22.811  44.375  46.824  1.00  0.00     0.011 A 
HETATM   20  C   UNL     1      22.532  45.649  47.319  1.00  0.00     0.033 A 
HETATM   21 BR   UNL     1      22.253  43.904  45.081  1.00  0.00    -0.051 Br
BRANCH  16  22
HETATM   22  O   UNL     1      23.953  45.478  50.675  1.00  0.00    -0.355 OA
HETATM   23  C   UNL     1      24.721  44.581  51.475  1.00  0.00     0.210 C 
ENDBRANCH  16  22
ENDBRANCH   1  15
BRANCH  12  24
HETATM   24  N   UNL     1      19.597  48.874  47.970  1.00  0.00    -0.272 NA
HETATM   25  H   UNL     1      19.384  49.432  47.146  1.00  0.00     0.127 HD
HETATM   26  H   UNL     1      19.089  48.000  47.964  1.00  0.00     0.127 HD
ENDBRANCH  12  24
TORSDOF 3
ENDMDL
MODEL 8
REMARK VINA RESULT:      -6.8      8.535     11.451
REMARK  3 active torsions:
REMARK  status: ('A' for Active; 'I' for Inactive)
REMARK    1  A    between atoms: O_2  and  C_3 
REMARK    2  A    between atoms: C_4  and  C_5 
REMARK    3  A    between atoms: C_16  and  N_17 
ROOT
HETATM    1  C   UNL     1      18.582  48.487  48.418  1.00  0.00     0.246 C 
HETATM    2  N   UNL     1      18.485  48.485  46.974  1.00  0.00    -0.151 N 
HETATM    3  C   UNL     1      18.616  47.318  46.261  1.00  0.00     0.734 A 
HETATM    4  N   UNL     1      18.508  47.576  44.976  1.00  0.00    -0.060 NA
HETATM    5  C   UNL     1      18.237  48.916  44.869  1.00  0.00     0.103 A 
HETATM    6  C   UNL     1      18.190  49.517  46.123  1.00  0.00     0.083 A 
HETATM    7  C   UNL     1      18.014  49.692  43.723  1.00  0.00     0.034 A 
HETATM    8  C   UNL     1      17.744  51.056  43.879  1.00  0.00     0.002 A 
HETATM    9  C   UNL     1      17.695  51.635  45.150  1.00  0.00     0.002 A 
HETATM   10  C   UNL     1      17.918  50.877  46.306  1.00  0.00     0.033 A 
HETATM   11  N   UNL     1      18.815  46.117  46.848  1.00  0.00    -0.033 NA
HETATM   12  C   UNL     1      18.807  46.046  48.130  1.00  0.00     0.193 C 
HETATM   13  N   UNL     1      18.647  47.140  48.979  1.00  0.00    -0.338 N 
HETATM   14  H   UNL     1      18.567  47.044  49.980  1.00  0.00     0.164 HD
ENDROOT
BRANCH   1  15
HETATM   15  C   UNL     1      19.775  49.256  48.977  1.00  0.00     0.020 A 
HETATM   16  C   UNL     1      19.535  50.307  49.896  1.00  0.00     0.078 A 
HETATM   17  C   UNL     1      20.604  51.044  50.417  1.00  0.00     0.039 A 
HETATM   18  C   UNL     1      21.917  50.741  50.051  1.00  0.00     0.022 A 
HETATM   19  C   UNL     1      22.164  49.693  49.175  1.00  0.00     0.011 A 
HETATM   20  C   UNL     1      21.110  48.946  48.647  1.00  0.00     0.033 A 
HETATM   21 BR   UNL     1      23.942  49.275  48.691  1.00  0.00    -0.051 Br
BRANCH  16  22
HETATM   22  O   UNL     1      18.218  50.507  50.231  1.00  0.00    -0.355 OA
HETATM   23  C   UNL     1      17.643  51.768  49.891  1.00  0.00     0.210 C 
ENDBRANCH  16  22
ENDBRANCH   1  15
BRANCH  12  24
HETATM   24  N   UNL     1      18.951  44.886  48.802  1.00  0.00    -0.272 NA
HETATM   25  H   UNL     1      19.057  45.053  49.800  1.00  0.00     0.127 HD
HETATM   26  H   UNL     1      18.259  44.171  48.620  1.00  0.00     0.127 HD
ENDBRANCH  12  24
TORSDOF 3
ENDMDL
MODEL 9
REMARK VINA RESULT:      -6.6      3.146      5.876
REMARK  3 active torsions:
REMARK  status: ('A' for Active; 'I' for Inactive)
REMARK    1  A    between atoms: O_2  and  C_3 
REMARK    2  A    between atoms: C_4  and  C_5 
REMARK    3  A    between atoms: C_16  and  N_17 
ROOT
HETATM    1  C   UNL     1      26.720  44.100  53.610  1.00  0.00     0.246 C 
HETATM    2  N   UNL     1      26.915  44.406  52.209  1.00  0.00    -0.151 N 
HETATM    3  C   UNL     1      27.297  43.429  51.322  1.00  0.00     0.734 A 
HETATM    4  N   UNL     1      27.425  43.952  50.122  1.00  0.00    -0.060 NA
HETATM    5  C   UNL     1      27.055  45.269  50.231  1.00  0.00     0.103 A 
HETATM    6  C   UNL     1      26.701  45.581  51.540  1.00  0.00     0.083 A 
HETATM    7  C   UNL     1      26.994  46.262  49.244  1.00  0.00     0.034 A 
HETATM    8  C   UNL     1      26.570  47.545  49.608  1.00  0.00     0.002 A 
HETATM    9  C   UNL     1      26.213  47.832  50.928  1.00  0.00     0.002 A 
HETATM   10  C   UNL     1      26.271  46.854  51.929  1.00  0.00     0.033 A 
HETATM   11  N   UNL     1      27.487  42.141  51.685  1.00  0.00    -0.033 NA
HETATM   12  C   UNL     1      27.229  41.793  52.893  1.00  0.00     0.193 C 
HETATM   13  N   UNL     1      26.799  42.669  53.890  1.00  0.00    -0.338 N 
HETATM   14  H   UNL     1      26.529  42.354  54.809  1.00  0.00     0.164 HD
ENDROOT
BRANCH   1  15
HETATM   15  C   UNL     1      27.698  44.789  54.557  1.00  0.00     0.020 A 
HETATM   16  C   UNL     1      27.331  46.033  55.126  1.00  0.00     0.078 A 
HETATM   17  C   UNL     1      28.210  46.701  55.985  1.00  0.00     0.039 A 
HETATM   18  C   UNL     1      29.448  46.141  56.305  1.00  0.00     0.022 A 
HETATM   19  C   UNL     1      29.804  44.907  55.777  1.00  0.00     0.011 A 
HETATM   20  C   UNL     1      28.939  44.226  54.919  1.00  0.00     0.033 A 
HETATM   21 BR   UNL     1      31.474  44.143  56.222  1.00  0.00    -0.051 Br
BRANCH  16  22
HETATM   22  O   UNL     1      26.080  46.488  54.789  1.00  0.00    -0.355 OA
HETATM   23  C   UNL     1      25.849  47.893  54.884  1.00  0.00     0.210 C 
ENDBRANCH  16  22
ENDBRANCH   1  15
BRANCH  12  24
HETATM   24  N   UNL     1      27.345  40.524  53.333  1.00  0.00    -0.272 NA
HETATM   25  H   UNL     1      27.120  39.860  52.596  1.00  0.00     0.127 HD
HETATM   26  H   UNL     1      28.214  40.284  53.792  1.00  0.00     0.127 HD
ENDBRANCH  12  24
TORSDOF 3
ENDMDL
MODEL 10
REMARK VINA RESULT:      -6.6      6.741      9.008
REMARK  3 active torsions:
REMARK  status: ('A' for Active; 'I' for Inactive)
REMARK    1  A    between atoms: O_2  and  C_3 
REMARK    2  A    between atoms: C_4  and  C_5 
REMARK    3  A    between atoms: C_16  and  N_17 
ROOT
HETATM    1  C   UNL     1      20.738  46.055  48.566  1.00  0.00     0.246 C 
HETATM    2  N   UNL     1      20.728  47.474  48.282  1.00  0.00    -0.151 N 
HETATM    3  C   UNL     1      19.557  48.121  47.972  1.00  0.00     0.734 A 
HETATM    4  N   UNL     1      19.807  49.391  47.740  1.00  0.00    -0.060 NA
HETATM    5  C   UNL     1      21.148  49.572  47.970  1.00  0.00     0.103 A 
HETATM    6  C   UNL     1      21.756  48.377  48.341  1.00  0.00     0.083 A 
HETATM    7  C   UNL     1      21.917  50.740  47.883  1.00  0.00     0.034 A 
HETATM    8  C   UNL     1      23.283  50.667  48.181  1.00  0.00     0.002 A 
HETATM    9  C   UNL     1      23.869  49.456  48.559  1.00  0.00     0.002 A 
HETATM   10  C   UNL     1      23.117  48.278  48.648  1.00  0.00     0.033 A 
HETATM   11  N   UNL     1      18.359  47.496  47.937  1.00  0.00    -0.033 NA
HETATM   12  C   UNL     1      18.295  46.261  48.280  1.00  0.00     0.193 C 
HETATM   13  N   UNL     1      19.394  45.489  48.653  1.00  0.00    -0.338 N 
HETATM   14  H   UNL     1      19.303  44.543  48.992  1.00  0.00     0.164 HD
ENDROOT
BRANCH   1  15
HETATM   15  C   UNL     1      21.509  45.206  47.559  1.00  0.00     0.020 A 
HETATM   16  C   UNL     1      22.162  44.035  48.015  1.00  0.00     0.078 A 
HETATM   17  C   UNL     1      22.891  43.242  47.122  1.00  0.00     0.039 A 
HETATM   18  C   UNL     1      22.969  43.587  45.772  1.00  0.00     0.022 A 
HETATM   19  C   UNL     1      22.306  44.716  45.309  1.00  0.00     0.011 A 
HETATM   20  C   UNL     1      21.573  45.517  46.185  1.00  0.00     0.033 A 
HETATM   21 BR   UNL     1      22.400  45.173  43.478  1.00  0.00    -0.051 Br
BRANCH  16  22
HETATM   22  O   UNL     1      21.997  43.751  49.349  1.00  0.00    -0.355 OA
HETATM   23  C   UNL     1      23.051  43.042  49.999  1.00  0.00     0.210 C 
ENDBRANCH  16  22
ENDBRANCH   1  15
BRANCH  12  24
HETATM   24  N   UNL     1      17.138  45.569  48.319  1.00  0.00    -0.272 NA
HETATM   25  H   UNL     1      16.963  45.102  47.433  1.00  0.00     0.127 HD
HETATM   26  H   UNL     1      17.019  44.935  49.099  1.00  0.00     0.127 HD
ENDBRANCH  12  24
TORSDOF 3
ENDMDL
