MODEL 1
REMARK VINA RESULT:     -10.2      0.000      0.000
REMARK  9 active torsions:
REMARK  status: ('A' for Active; 'I' for Inactive)
REMARK    1  A    between atoms: C_2  and  C_3 
REMARK    2  A    between atoms: C_8  and  O_9 
REMARK    3  A    between atoms: C_10  and  C_11 
REMARK    4  A    between atoms: C_11  and  N_12 
REMARK       I    between atoms: N_12  and  C_13 
REMARK    5  A    between atoms: N_12  and  C_23 
REMARK       I    between atoms: C_13  and  N_14 
REMARK    6  A    between atoms: N_14  and  C_15 
REMARK    7  A    between atoms: C_23  and  C_24 
REMARK    8  A    between atoms: C_24  and  C_25 
REMARK    9  A    between atoms: C_25  and  N_26 
ROOT
HETATM    1  N   UNL     1      25.770  44.457  51.032  1.00  0.00    -0.330 N 
HETATM    2  C   UNL     1      26.251  45.457  50.198  1.00  0.00     0.323 C 
HETATM    3  N   UNL     1      25.713  46.696  50.440  1.00  0.00    -0.309 N 
HETATM    4  O   UNL     1      26.919  45.182  49.204  1.00  0.00    -0.247 OA
HETATM    5  H   UNL     1      25.107  46.784  51.246  1.00  0.00     0.170 HD
ENDROOT
BRANCH   1   6
HETATM    6  C   UNL     1      26.595  43.235  51.128  1.00  0.00     0.170 C 
BRANCH   6   7
HETATM    7  C   UNL     1      27.659  43.266  52.187  1.00  0.00     0.013 A 
HETATM    8  C   UNL     1      28.692  42.346  52.182  1.00  0.00     0.170 A 
HETATM    9  N   UNL     1      29.692  42.275  53.070  1.00  0.00    -0.224 NA
HETATM   10  C   UNL     1      29.698  43.182  54.062  1.00  0.00     0.070 A 
HETATM   11  C   UNL     1      28.688  44.160  54.197  1.00  0.00    -0.006 A 
HETATM   12  C   UNL     1      30.725  43.166  54.993  1.00  0.00     0.033 A 
HETATM   13  C   UNL     1      28.739  45.087  55.253  1.00  0.00     0.021 A 
HETATM   14  C   UNL     1      27.654  44.176  53.247  1.00  0.00     0.027 A 
HETATM   15  C   UNL     1      29.793  45.065  56.175  1.00  0.00    -0.058 A 
HETATM   16  C   UNL     1      30.783  44.090  56.040  1.00  0.00     0.009 A 
BRANCH   8  17
HETATM   17  O   UNL     1      28.777  41.386  51.226  1.00  0.00    -0.344 OA
HETATM   18  H   UNL     1      29.426  40.797  51.658  1.00  0.00     0.219 HD
ENDBRANCH   8  17
BRANCH  15  19
HETATM   19  C   UNL     1      29.849  46.059  57.307  1.00  0.00     0.034 C 
HETATM   20  C   UNL     1      30.743  45.580  58.440  1.00  0.00     0.010 C 
ENDBRANCH  15  19
ENDBRANCH   6   7
ENDBRANCH   1   6
BRANCH   1  21
HETATM   21  C   UNL     1      24.323  44.226  51.037  1.00  0.00     0.129 C 
BRANCH  21  22
HETATM   22  C   UNL     1      23.720  43.855  49.666  1.00  0.00     0.048 C 
BRANCH  22  23
HETATM   23  C   UNL     1      22.199  43.987  49.523  1.00  0.00     0.236 C 
BRANCH  23  24
HETATM   24  N   UNL     1      21.686  45.349  49.135  1.00  0.00    -0.067 N 
HETATM   25  H   UNL     1      21.725  45.997  49.936  1.00  0.00     0.280 HD
HETATM   26  C   UNL     1      22.484  46.065  48.047  1.00  0.00     0.261 C 
HETATM   27  C   UNL     1      21.831  47.417  47.725  1.00  0.00     0.195 C 
HETATM   28  O   UNL     1      20.468  47.241  47.318  1.00  0.00    -0.388 OA
HETATM   29  C   UNL     1      19.687  46.665  48.369  1.00  0.00     0.195 C 
HETATM   30  C   UNL     1      20.212  45.275  48.732  1.00  0.00     0.261 C 
ENDBRANCH  23  24
ENDBRANCH  22  23
ENDBRANCH  21  22
ENDBRANCH   1  21
BRANCH   3  31
HETATM   31  C   UNL     1      26.016  47.883  49.741  1.00  0.00     0.037 A 
HETATM   32  C   UNL     1      24.950  48.612  49.205  1.00  0.00     0.053 A 
HETATM   33  C   UNL     1      25.199  49.779  48.478  1.00  0.00     0.036 A 
HETATM   34 CL   UNL     1      23.886  50.627  47.761  1.00  0.00    -0.084 Cl
HETATM   35  C   UNL     1      26.498  50.252  48.312  1.00  0.00     0.024 A 
HETATM   36  C   UNL     1      27.561  49.547  48.874  1.00  0.00     0.004 A 
HETATM   37  C   UNL     1      27.320  48.363  49.577  1.00  0.00     0.029 A 
ENDBRANCH   3  31
TORSDOF 9
ENDMDL
MODEL 2
REMARK VINA RESULT:      -9.8      3.497      5.970
REMARK  9 active torsions:
REMARK  status: ('A' for Active; 'I' for Inactive)
REMARK    1  A    between atoms: C_2  and  C_3 
REMARK    2  A    between atoms: C_8  and  O_9 
REMARK    3  A    between atoms: C_10  and  C_11 
REMARK    4  A    between atoms: C_11  and  N_12 
REMARK       I    between atoms: N_12  and  C_13 
REMARK    5  A    between atoms: N_12  and  C_23 
REMARK       I    between atoms: C_13  and  N_14 
REMARK    6  A    between atoms: N_14  and  C_15 
REMARK    7  A    between atoms: C_23  and  C_24 
REMARK    8  A    between atoms: C_24  and  C_25 
REMARK    9  A    between atoms: C_25  and  N_26 
ROOT
HETATM    1  N   UNL     1      25.701  44.377  50.571  1.00  0.00    -0.330 N 
HETATM    2  C   UNL     1      25.833  42.998  50.483  1.00  0.00     0.323 C 
HETATM    3  N   UNL     1      26.675  42.579  49.483  1.00  0.00    -0.309 N 
HETATM    4  O   UNL     1      25.081  42.251  51.103  1.00  0.00    -0.247 OA
HETATM    5  H   UNL     1      27.185  43.296  48.981  1.00  0.00     0.170 HD
ENDROOT
BRANCH   1   6
HETATM    6  C   UNL     1      25.185  44.901  51.852  1.00  0.00     0.170 C 
BRANCH   6   7
HETATM    7  C   UNL     1      26.234  45.228  52.876  1.00  0.00     0.013 A 
HETATM    8  C   UNL     1      26.261  46.464  53.495  1.00  0.00     0.170 A 
HETATM    9  N   UNL     1      27.143  46.868  54.418  1.00  0.00    -0.224 NA
HETATM   10  C   UNL     1      28.096  45.993  54.780  1.00  0.00     0.070 A 
HETATM   11  C   UNL     1      28.198  44.706  54.206  1.00  0.00    -0.006 A 
HETATM   12  C   UNL     1      29.020  46.354  55.748  1.00  0.00     0.033 A 
HETATM   13  C   UNL     1      29.214  43.827  54.619  1.00  0.00     0.021 A 
HETATM   14  C   UNL     1      27.255  44.343  53.230  1.00  0.00     0.027 A 
HETATM   15  C   UNL     1      30.128  44.203  55.611  1.00  0.00    -0.058 A 
HETATM   16  C   UNL     1      30.027  45.480  56.167  1.00  0.00     0.009 A 
BRANCH   8  17
HETATM   17  O   UNL     1      25.344  47.422  53.198  1.00  0.00    -0.344 OA
HETATM   18  H   UNL     1      24.590  47.077  53.714  1.00  0.00     0.219 HD
ENDBRANCH   8  17
BRANCH  15  19
HETATM   19  C   UNL     1      31.217  43.260  56.055  1.00  0.00     0.034 C 
HETATM   20  C   UNL     1      31.780  43.643  57.415  1.00  0.00     0.010 C 
ENDBRANCH  15  19
ENDBRANCH   6   7
ENDBRANCH   1   6
BRANCH   1  21
HETATM   21  C   UNL     1      25.223  45.084  49.379  1.00  0.00     0.129 C 
BRANCH  21  22
HETATM   22  C   UNL     1      23.974  45.962  49.602  1.00  0.00     0.048 C 
BRANCH  22  23
HETATM   23  C   UNL     1      24.220  47.436  49.944  1.00  0.00     0.236 C 
BRANCH  23  24
HETATM   24  N   UNL     1      25.290  48.132  49.144  1.00  0.00    -0.067 N 
HETATM   25  H   UNL     1      25.508  47.603  48.286  1.00  0.00     0.280 HD
HETATM   26  C   UNL     1      24.924  49.524  48.631  1.00  0.00     0.261 C 
HETATM   27  C   UNL     1      26.113  50.129  47.870  1.00  0.00     0.195 C 
HETATM   28  O   UNL     1      27.277  50.188  48.705  1.00  0.00    -0.388 OA
HETATM   29  C   UNL     1      27.689  48.879  49.107  1.00  0.00     0.195 C 
HETATM   30  C   UNL     1      26.597  48.199  49.936  1.00  0.00     0.261 C 
ENDBRANCH  23  24
ENDBRANCH  22  23
ENDBRANCH  21  22
ENDBRANCH   1  21
BRANCH   3  31
HETATM   31  C   UNL     1      26.985  41.240  49.167  1.00  0.00     0.037 A 
HETATM   32  C   UNL     1      27.937  40.589  49.957  1.00  0.00     0.053 A 
HETATM   33  C   UNL     1      28.302  39.272  49.666  1.00  0.00     0.036 A 
HETATM   34 CL   UNL     1      29.527  38.506  50.600  1.00  0.00    -0.084 Cl
HETATM   35  C   UNL     1      27.699  38.580  48.619  1.00  0.00     0.024 A 
HETATM   36  C   UNL     1      26.726  39.214  47.850  1.00  0.00     0.004 A 
HETATM   37  C   UNL     1      26.378  40.541  48.118  1.00  0.00     0.029 A 
ENDBRANCH   3  31
TORSDOF 9
ENDMDL
MODEL 3
REMARK VINA RESULT:      -9.7      3.488      8.873
REMARK  9 active torsions:
REMARK  status: ('A' for Active; 'I' for Inactive)
REMARK    1  A    between atoms: C_2  and  C_3 
REMARK    2  A    between atoms: C_8  and  O_9 
REMARK    3  A    between atoms: C_10  and  C_11 
REMARK    4  A    between atoms: C_11  and  N_12 
REMARK       I    between atoms: N_12  and  C_13 
REMARK    5  A    between atoms: N_12  and  C_23 
REMARK       I    between atoms: C_13  and  N_14 
REMARK    6  A    between atoms: N_14  and  C_15 
REMARK    7  A    between atoms: C_23  and  C_24 
REMARK    8  A    between atoms: C_24  and  C_25 
REMARK    9  A    between atoms: C_25  and  N_26 
ROOT
HETATM    1  N   UNL     1      26.823  44.150  52.554  1.00  0.00    -0.330 N 
HETATM    2  C   UNL     1      27.259  44.161  53.872  1.00  0.00     0.323 C 
HETATM    3  N   UNL     1      28.428  44.852  54.070  1.00  0.00    -0.309 N 
HETATM    4  O   UNL     1      26.750  43.422  54.712  1.00  0.00    -0.247 OA
HETATM    5  H   UNL     1      28.801  45.360  53.278  1.00  0.00     0.170 HD
ENDROOT
BRANCH   1   6
HETATM    6  C   UNL     1      25.399  43.820  52.342  1.00  0.00     0.170 C 
BRANCH   6   7
HETATM    7  C   UNL     1      24.699  44.655  51.308  1.00  0.00     0.013 A 
HETATM    8  C   UNL     1      23.689  44.120  50.530  1.00  0.00     0.170 A 
HETATM    9  N   UNL     1      22.996  44.762  49.581  1.00  0.00    -0.224 NA
HETATM   10  C   UNL     1      23.309  46.051  49.360  1.00  0.00     0.070 A 
HETATM   11  C   UNL     1      24.337  46.711  50.068  1.00  0.00    -0.006 A 
HETATM   12  C   UNL     1      22.605  46.767  48.404  1.00  0.00     0.033 A 
HETATM   13  C   UNL     1      24.626  48.060  49.799  1.00  0.00     0.021 A 
HETATM   14  C   UNL     1      25.042  45.982  51.039  1.00  0.00     0.027 A 
HETATM   15  C   UNL     1      23.893  48.773  48.841  1.00  0.00    -0.058 A 
HETATM   16  C   UNL     1      22.884  48.111  48.139  1.00  0.00     0.009 A 
BRANCH   8  17
HETATM   17  O   UNL     1      23.299  42.826  50.671  1.00  0.00    -0.344 OA
HETATM   18  H   UNL     1      23.255  42.786  51.646  1.00  0.00     0.219 HD
ENDBRANCH   8  17
BRANCH  15  19
HETATM   19  C   UNL     1      24.201  50.220  48.554  1.00  0.00     0.034 C 
HETATM   20  C   UNL     1      22.940  51.070  48.503  1.00  0.00     0.010 C 
ENDBRANCH  15  19
ENDBRANCH   6   7
ENDBRANCH   1   6
BRANCH   1  21
HETATM   21  C   UNL     1      27.739  43.605  51.548  1.00  0.00     0.129 C 
BRANCH  21  22
HETATM   22  C   UNL     1      27.394  42.181  51.061  1.00  0.00     0.048 C 
BRANCH  22  23
HETATM   23  C   UNL     1      28.275  41.041  51.588  1.00  0.00     0.236 C 
BRANCH  23  24
HETATM   24  N   UNL     1      28.356  39.812  50.721  1.00  0.00    -0.067 N 
HETATM   25  H   UNL     1      27.482  39.267  50.776  1.00  0.00     0.280 HD
HETATM   26  C   UNL     1      28.529  40.074  49.226  1.00  0.00     0.261 C 
HETATM   27  C   UNL     1      28.635  38.741  48.472  1.00  0.00     0.195 C 
HETATM   28  O   UNL     1      29.722  37.954  48.976  1.00  0.00    -0.388 OA
HETATM   29  C   UNL     1      29.519  37.616  50.350  1.00  0.00     0.195 C 
HETATM   30  C   UNL     1      29.462  38.877  51.214  1.00  0.00     0.261 C 
ENDBRANCH  23  24
ENDBRANCH  22  23
ENDBRANCH  21  22
ENDBRANCH   1  21
BRANCH   3  31
HETATM   31  C   UNL     1      29.097  45.017  55.301  1.00  0.00     0.037 A 
HETATM   32  C   UNL     1      30.198  44.195  55.558  1.00  0.00     0.053 A 
HETATM   33  C   UNL     1      30.876  44.298  56.775  1.00  0.00     0.036 A 
HETATM   34 CL   UNL     1      32.184  43.232  57.109  1.00  0.00    -0.084 Cl
HETATM   35  C   UNL     1      30.494  45.240  57.727  1.00  0.00     0.024 A 
HETATM   36  C   UNL     1      29.418  46.083  57.461  1.00  0.00     0.004 A 
HETATM   37  C   UNL     1      28.717  45.965  56.257  1.00  0.00     0.029 A 
ENDBRANCH   3  31
TORSDOF 9
ENDMDL
MODEL 4
REMARK VINA RESULT:      -9.7      1.822      2.117
REMARK  9 active torsions:
REMARK  status: ('A' for Active; 'I' for Inactive)
REMARK    1  A    between atoms: C_2  and  C_3 
REMARK    2  A    between atoms: C_8  and  O_9 
REMARK    3  A    between atoms: C_10  and  C_11 
REMARK    4  A    between atoms: C_11  and  N_12 
REMARK       I    between atoms: N_12  and  C_13 
REMARK    5  A    between atoms: N_12  and  C_23 
REMARK       I    between atoms: C_13  and  N_14 
REMARK    6  A    between atoms: N_14  and  C_15 
REMARK    7  A    between atoms: C_23  and  C_24 
REMARK    8  A    between atoms: C_24  and  C_25 
REMARK    9  A    between atoms: C_25  and  N_26 
ROOT
HETATM    1  N   UNL     1      25.947  44.555  51.249  1.00  0.00    -0.330 N 
HETATM    2  C   UNL     1      26.260  45.518  50.299  1.00  0.00     0.323 C 
HETATM    3  N   UNL     1      25.753  46.763  50.575  1.00  0.00    -0.309 N 
HETATM    4  O   UNL     1      26.749  45.201  49.217  1.00  0.00    -0.247 OA
HETATM    5  H   UNL     1      25.295  46.884  51.470  1.00  0.00     0.170 HD
ENDROOT
BRANCH   1   6
HETATM    6  C   UNL     1      26.796  43.345  51.254  1.00  0.00     0.170 C 
BRANCH   6   7
HETATM    7  C   UNL     1      27.860  43.319  52.313  1.00  0.00     0.013 A 
HETATM    8  C   UNL     1      28.829  42.331  52.320  1.00  0.00     0.170 A 
HETATM    9  N   UNL     1      29.823  42.204  53.209  1.00  0.00    -0.224 NA
HETATM   10  C   UNL     1      29.891  43.122  54.188  1.00  0.00     0.070 A 
HETATM   11  C   UNL     1      28.950  44.167  54.310  1.00  0.00    -0.006 A 
HETATM   12  C   UNL     1      30.915  43.048  55.119  1.00  0.00     0.033 A 
HETATM   13  C   UNL     1      29.064  45.103  55.354  1.00  0.00     0.021 A 
HETATM   14  C   UNL     1      27.918  44.241  53.360  1.00  0.00     0.027 A 
HETATM   15  C   UNL     1      30.116  45.023  56.275  1.00  0.00    -0.058 A 
HETATM   16  C   UNL     1      31.037  43.980  56.153  1.00  0.00     0.009 A 
BRANCH   8  17
HETATM   17  O   UNL     1      28.847  41.353  51.377  1.00  0.00    -0.344 OA
HETATM   18  H   UNL     1      29.693  40.928  51.615  1.00  0.00     0.219 HD
ENDBRANCH   8  17
BRANCH  15  19
HETATM   19  C   UNL     1      30.241  46.026  57.393  1.00  0.00     0.034 C 
HETATM   20  C   UNL     1      28.948  46.160  58.183  1.00  0.00     0.010 C 
ENDBRANCH  15  19
ENDBRANCH   6   7
ENDBRANCH   1   6
BRANCH   1  21
HETATM   21  C   UNL     1      24.527  44.313  51.518  1.00  0.00     0.129 C 
BRANCH  21  22
HETATM   22  C   UNL     1      23.652  44.123  50.261  1.00  0.00     0.048 C 
BRANCH  22  23
HETATM   23  C   UNL     1      23.515  42.692  49.727  1.00  0.00     0.236 C 
BRANCH  23  24
HETATM   24  N   UNL     1      22.785  42.539  48.419  1.00  0.00    -0.067 N 
HETATM   25  H   UNL     1      21.789  42.784  48.525  1.00  0.00     0.280 HD
HETATM   26  C   UNL     1      23.266  43.449  47.289  1.00  0.00     0.261 C 
HETATM   27  C   UNL     1      22.466  43.161  46.011  1.00  0.00     0.195 C 
HETATM   28  O   UNL     1      22.581  41.783  45.634  1.00  0.00    -0.388 OA
HETATM   29  C   UNL     1      22.038  40.927  46.643  1.00  0.00     0.195 C 
HETATM   30  C   UNL     1      22.807  41.081  47.955  1.00  0.00     0.261 C 
ENDBRANCH  23  24
ENDBRANCH  22  23
ENDBRANCH  21  22
ENDBRANCH   1  21
BRANCH   3  31
HETATM   31  C   UNL     1      25.911  47.918  49.781  1.00  0.00     0.037 A 
HETATM   32  C   UNL     1      24.759  48.495  49.237  1.00  0.00     0.053 A 
HETATM   33  C   UNL     1      24.864  49.622  48.419  1.00  0.00     0.036 A 
HETATM   34 CL   UNL     1      23.448  50.280  47.696  1.00  0.00    -0.084 Cl
HETATM   35  C   UNL     1      26.102  50.208  48.167  1.00  0.00     0.024 A 
HETATM   36  C   UNL     1      27.248  49.656  48.735  1.00  0.00     0.004 A 
HETATM   37  C   UNL     1      27.153  48.510  49.530  1.00  0.00     0.029 A 
ENDBRANCH   3  31
TORSDOF 9
ENDMDL
MODEL 5
REMARK VINA RESULT:      -9.5      3.435      5.262
REMARK  9 active torsions:
REMARK  status: ('A' for Active; 'I' for Inactive)
REMARK    1  A    between atoms: C_2  and  C_3 
REMARK    2  A    between atoms: C_8  and  O_9 
REMARK    3  A    between atoms: C_10  and  C_11 
REMARK    4  A    between atoms: C_11  and  N_12 
REMARK       I    between atoms: N_12  and  C_13 
REMARK    5  A    between atoms: N_12  and  C_23 
REMARK       I    between atoms: C_13  and  N_14 
REMARK    6  A    between atoms: N_14  and  C_15 
REMARK    7  A    between atoms: C_23  and  C_24 
REMARK    8  A    between atoms: C_24  and  C_25 
REMARK    9  A    between atoms: C_25  and  N_26 
ROOT
HETATM    1  N   UNL     1      25.150  45.060  50.818  1.00  0.00    -0.330 N 
HETATM    2  C   UNL     1      25.209  43.714  50.487  1.00  0.00     0.323 C 
HETATM    3  N   UNL     1      25.913  43.449  49.339  1.00  0.00    -0.309 N 
HETATM    4  O   UNL     1      24.498  42.891  51.059  1.00  0.00    -0.247 OA
HETATM    5  H   UNL     1      26.394  44.227  48.906  1.00  0.00     0.170 HD
ENDROOT
BRANCH   1   6
HETATM    6  C   UNL     1      24.806  45.372  52.221  1.00  0.00     0.170 C 
BRANCH   6   7
HETATM    7  C   UNL     1      25.981  45.594  53.130  1.00  0.00     0.013 A 
HETATM    8  C   UNL     1      26.200  46.828  53.716  1.00  0.00     0.170 A 
HETATM    9  N   UNL     1      27.207  47.144  54.540  1.00  0.00    -0.224 NA
HETATM   10  C   UNL     1      28.093  46.175  54.827  1.00  0.00     0.070 A 
HETATM   11  C   UNL     1      27.999  44.879  54.274  1.00  0.00    -0.006 A 
HETATM   12  C   UNL     1      29.141  46.445  55.693  1.00  0.00     0.033 A 
HETATM   13  C   UNL     1      28.952  43.899  54.605  1.00  0.00     0.021 A 
HETATM   14  C   UNL     1      26.931  44.609  53.403  1.00  0.00     0.027 A 
HETATM   15  C   UNL     1      29.994  44.185  55.496  1.00  0.00    -0.058 A 
HETATM   16  C   UNL     1      30.086  45.472  56.031  1.00  0.00     0.009 A 
BRANCH   8  17
HETATM   17  O   UNL     1      25.366  47.876  53.489  1.00  0.00    -0.344 OA
HETATM   18  H   UNL     1      25.198  47.733  52.537  1.00  0.00     0.219 HD
ENDBRANCH   8  17
BRANCH  15  19
HETATM   19  C   UNL     1      31.015  43.135  55.853  1.00  0.00     0.034 C 
HETATM   20  C   UNL     1      31.751  43.473  57.141  1.00  0.00     0.010 C 
ENDBRANCH  15  19
ENDBRANCH   6   7
ENDBRANCH   1   6
BRANCH   1  21
HETATM   21  C   UNL     1      24.574  45.972  49.825  1.00  0.00     0.129 C 
BRANCH  21  22
HETATM   22  C   UNL     1      24.739  47.472  50.148  1.00  0.00     0.048 C 
BRANCH  22  23
HETATM   23  C   UNL     1      24.038  48.460  49.208  1.00  0.00     0.236 C 
BRANCH  23  24
HETATM   24  N   UNL     1      22.685  48.950  49.651  1.00  0.00    -0.067 N 
HETATM   25  H   UNL     1      22.523  48.730  50.645  1.00  0.00     0.280 HD
HETATM   26  C   UNL     1      22.476  50.461  49.572  1.00  0.00     0.261 C 
HETATM   27  C   UNL     1      21.048  50.814  50.014  1.00  0.00     0.195 C 
HETATM   28  O   UNL     1      20.080  50.128  49.209  1.00  0.00    -0.388 OA
HETATM   29  C   UNL     1      20.201  48.710  49.356  1.00  0.00     0.195 C 
HETATM   30  C   UNL     1      21.574  48.232  48.881  1.00  0.00     0.261 C 
ENDBRANCH  23  24
ENDBRANCH  22  23
ENDBRANCH  21  22
ENDBRANCH   1  21
BRANCH   3  31
HETATM   31  C   UNL     1      26.124  42.176  48.769  1.00  0.00     0.037 A 
HETATM   32  C   UNL     1      27.329  41.527  49.057  1.00  0.00     0.053 A 
HETATM   33  C   UNL     1      27.599  40.278  48.494  1.00  0.00     0.036 A 
HETATM   34 CL   UNL     1      29.115  39.522  48.796  1.00  0.00    -0.084 Cl
HETATM   35  C   UNL     1      26.665  39.646  47.677  1.00  0.00     0.024 A 
HETATM   36  C   UNL     1      25.449  40.274  47.415  1.00  0.00     0.004 A 
HETATM   37  C   UNL     1      25.185  41.538  47.952  1.00  0.00     0.029 A 
ENDBRANCH   3  31
TORSDOF 9
ENDMDL
MODEL 6
REMARK VINA RESULT:      -9.1      2.302      4.416
REMARK  9 active torsions:
REMARK  status: ('A' for Active; 'I' for Inactive)
REMARK    1  A    between atoms: C_2  and  C_3 
REMARK    2  A    between atoms: C_8  and  O_9 
REMARK    3  A    between atoms: C_10  and  C_11 
REMARK    4  A    between atoms: C_11  and  N_12 
REMARK       I    between atoms: N_12  and  C_13 
REMARK    5  A    between atoms: N_12  and  C_23 
REMARK       I    between atoms: C_13  and  N_14 
REMARK    6  A    between atoms: N_14  and  C_15 
REMARK    7  A    between atoms: C_23  and  C_24 
REMARK    8  A    between atoms: C_24  and  C_25 
REMARK    9  A    between atoms: C_25  and  N_26 
ROOT
HETATM    1  N   UNL     1      25.416  44.091  51.091  1.00  0.00    -0.330 N 
HETATM    2  C   UNL     1      24.291  43.723  50.365  1.00  0.00     0.323 C 
HETATM    3  N   UNL     1      24.523  43.543  49.024  1.00  0.00    -0.309 N 
HETATM    4  O   UNL     1      23.170  43.786  50.864  1.00  0.00    -0.247 OA
HETATM    5  H   UNL     1      25.486  43.595  48.714  1.00  0.00     0.170 HD
ENDROOT
BRANCH   1   6
HETATM    6  C   UNL     1      25.347  43.877  52.551  1.00  0.00     0.170 C 
BRANCH   6   7
HETATM    7  C   UNL     1      26.673  43.686  53.230  1.00  0.00     0.013 A 
HETATM    8  C   UNL     1      27.433  42.554  52.996  1.00  0.00     0.170 A 
HETATM    9  N   UNL     1      28.624  42.274  53.540  1.00  0.00    -0.224 NA
HETATM   10  C   UNL     1      29.134  43.176  54.396  1.00  0.00     0.070 A 
HETATM   11  C   UNL     1      28.450  44.362  54.740  1.00  0.00    -0.006 A 
HETATM   12  C   UNL     1      30.375  42.945  54.968  1.00  0.00     0.033 A 
HETATM   13  C   UNL     1      29.027  45.275  55.641  1.00  0.00     0.021 A 
HETATM   14  C   UNL     1      27.196  44.595  54.152  1.00  0.00     0.027 A 
HETATM   15  C   UNL     1      30.289  45.032  56.197  1.00  0.00    -0.058 A 
HETATM   16  C   UNL     1      30.956  43.852  55.858  1.00  0.00     0.009 A 
BRANCH   8  17
HETATM   17  O   UNL     1      27.005  41.579  52.152  1.00  0.00    -0.344 OA
HETATM   18  H   UNL     1      26.727  40.916  52.813  1.00  0.00     0.219 HD
ENDBRANCH   8  17
BRANCH  15  19
HETATM   19  C   UNL     1      30.910  46.010  57.161  1.00  0.00     0.034 C 
HETATM   20  C   UNL     1      30.193  46.018  58.503  1.00  0.00     0.010 C 
ENDBRANCH  15  19
ENDBRANCH   6   7
ENDBRANCH   1   6
BRANCH   1  21
HETATM   21  C   UNL     1      26.111  45.313  50.679  1.00  0.00     0.129 C 
BRANCH  21  22
HETATM   22  C   UNL     1      25.481  46.624  51.196  1.00  0.00     0.048 C 
BRANCH  22  23
HETATM   23  C   UNL     1      24.472  47.315  50.271  1.00  0.00     0.236 C 
BRANCH  23  24
HETATM   24  N   UNL     1      24.932  48.596  49.627  1.00  0.00    -0.067 N 
HETATM   25  H   UNL     1      24.955  49.364  50.315  1.00  0.00     0.280 HD
HETATM   26  C   UNL     1      26.351  48.572  49.060  1.00  0.00     0.261 C 
HETATM   27  C   UNL     1      26.673  49.922  48.403  1.00  0.00     0.195 C 
HETATM   28  O   UNL     1      25.724  50.229  47.375  1.00  0.00    -0.388 OA
HETATM   29  C   UNL     1      24.405  50.356  47.913  1.00  0.00     0.195 C 
HETATM   30  C   UNL     1      23.949  49.039  48.542  1.00  0.00     0.261 C 
ENDBRANCH  23  24
ENDBRANCH  22  23
ENDBRANCH  21  22
ENDBRANCH   1  21
BRANCH   3  31
HETATM   31  C   UNL     1      23.564  43.176  48.058  1.00  0.00     0.037 A 
HETATM   32  C   UNL     1      23.008  44.193  47.275  1.00  0.00     0.053 A 
HETATM   33  C   UNL     1      22.031  43.886  46.325  1.00  0.00     0.036 A 
HETATM   34 CL   UNL     1      21.302  45.154  45.420  1.00  0.00    -0.084 Cl
HETATM   35  C   UNL     1      21.629  42.569  46.115  1.00  0.00     0.024 A 
HETATM   36  C   UNL     1      22.205  41.549  46.869  1.00  0.00     0.004 A 
HETATM   37  C   UNL     1      23.161  41.854  47.842  1.00  0.00     0.029 A 
ENDBRANCH   3  31
TORSDOF 9
ENDMDL
MODEL 7
REMARK VINA RESULT:      -9.1      3.588      9.057
REMARK  9 active torsions:
REMARK  status: ('A' for Active; 'I' for Inactive)
REMARK    1  A    between atoms: C_2  and  C_3 
REMARK    2  A    between atoms: C_8  and  O_9 
REMARK    3  A    between atoms: C_10  and  C_11 
REMARK    4  A    between atoms: C_11  and  N_12 
REMARK       I    between atoms: N_12  and  C_13 
REMARK    5  A    between atoms: N_12  and  C_23 
REMARK       I    between atoms: C_13  and  N_14 
REMARK    6  A    between atoms: N_14  and  C_15 
REMARK    7  A    between atoms: C_23  and  C_24 
REMARK    8  A    between atoms: C_24  and  C_25 
REMARK    9  A    between atoms: C_25  and  N_26 
ROOT
HETATM    1  N   UNL     1      26.997  44.413  52.647  1.00  0.00    -0.330 N 
HETATM    2  C   UNL     1      27.401  44.386  53.975  1.00  0.00     0.323 C 
HETATM    3  N   UNL     1      28.648  44.916  54.193  1.00  0.00    -0.309 N 
HETATM    4  O   UNL     1      26.776  43.738  54.811  1.00  0.00    -0.247 OA
HETATM    5  H   UNL     1      29.104  45.356  53.404  1.00  0.00     0.170 HD
ENDROOT
BRANCH   1   6
HETATM    6  C   UNL     1      25.547  44.276  52.404  1.00  0.00     0.170 C 
BRANCH   6   7
HETATM    7  C   UNL     1      24.955  45.307  51.486  1.00  0.00     0.013 A 
HETATM    8  C   UNL     1      25.230  46.651  51.658  1.00  0.00     0.170 A 
HETATM    9  N   UNL     1      24.763  47.657  50.907  1.00  0.00    -0.224 NA
HETATM   10  C   UNL     1      23.949  47.334  49.887  1.00  0.00     0.070 A 
HETATM   11  C   UNL     1      23.568  46.001  49.617  1.00  0.00    -0.006 A 
HETATM   12  C   UNL     1      23.457  48.336  49.065  1.00  0.00     0.033 A 
HETATM   13  C   UNL     1      22.713  45.715  48.538  1.00  0.00     0.021 A 
HETATM   14  C   UNL     1      24.075  44.989  50.449  1.00  0.00     0.027 A 
HETATM   15  C   UNL     1      22.240  46.739  47.708  1.00  0.00    -0.058 A 
HETATM   16  C   UNL     1      22.614  48.056  47.987  1.00  0.00     0.009 A 
BRANCH   8  17
HETATM   17  O   UNL     1      26.038  47.084  52.661  1.00  0.00    -0.344 OA
HETATM   18  H   UNL     1      26.821  46.532  52.474  1.00  0.00     0.219 HD
ENDBRANCH   8  17
BRANCH  15  19
HETATM   19  C   UNL     1      21.325  46.434  46.550  1.00  0.00     0.034 C 
HETATM   20  C   UNL     1      20.057  47.272  46.591  1.00  0.00     0.010 C 
ENDBRANCH  15  19
ENDBRANCH   6   7
ENDBRANCH   1   6
BRANCH   1  21
HETATM   21  C   UNL     1      27.853  43.732  51.672  1.00  0.00     0.129 C 
BRANCH  21  22
HETATM   22  C   UNL     1      27.309  42.380  51.164  1.00  0.00     0.048 C 
BRANCH  22  23
HETATM   23  C   UNL     1      28.202  41.152  51.382  1.00  0.00     0.236 C 
BRANCH  23  24
HETATM   24  N   UNL     1      28.703  40.468  50.137  1.00  0.00    -0.067 N 
HETATM   25  H   UNL     1      29.652  40.792  49.899  1.00  0.00     0.280 HD
HETATM   26  C   UNL     1      28.849  38.950  50.237  1.00  0.00     0.261 C 
HETATM   27  C   UNL     1      29.329  38.383  48.893  1.00  0.00     0.195 C 
HETATM   28  O   UNL     1      28.424  38.736  47.838  1.00  0.00    -0.388 OA
HETATM   29  C   UNL     1      28.359  40.154  47.668  1.00  0.00     0.195 C 
HETATM   30  C   UNL     1      27.827  40.826  48.935  1.00  0.00     0.261 C 
ENDBRANCH  23  24
ENDBRANCH  22  23
ENDBRANCH  21  22
ENDBRANCH   1  21
BRANCH   3  31
HETATM   31  C   UNL     1      29.304  45.010  55.439  1.00  0.00     0.037 A 
HETATM   32  C   UNL     1      30.360  44.127  55.685  1.00  0.00     0.053 A 
HETATM   33  C   UNL     1      31.022  44.158  56.914  1.00  0.00     0.036 A 
HETATM   34 CL   UNL     1      32.270  43.019  57.234  1.00  0.00    -0.084 Cl
HETATM   35  C   UNL     1      30.671  45.088  57.890  1.00  0.00     0.024 A 
HETATM   36  C   UNL     1      29.642  45.992  57.635  1.00  0.00     0.004 A 
HETATM   37  C   UNL     1      28.956  45.945  56.418  1.00  0.00     0.029 A 
ENDBRANCH   3  31
TORSDOF 9
ENDMDL
MODEL 8
REMARK VINA RESULT:      -8.7      3.072      5.219
REMARK  9 active torsions:
REMARK  status: ('A' for Active; 'I' for Inactive)
REMARK    1  A    between atoms: C_2  and  C_3 
REMARK    2  A    between atoms: C_8  and  O_9 
REMARK    3  A    between atoms: C_10  and  C_11 
REMARK    4  A    between atoms: C_11  and  N_12 
REMARK       I    between atoms: N_12  and  C_13 
REMARK    5  A    between atoms: N_12  and  C_23 
REMARK       I    between atoms: C_13  and  N_14 
REMARK    6  A    between atoms: N_14  and  C_15 
REMARK    7  A    between atoms: C_23  and  C_24 
REMARK    8  A    between atoms: C_24  and  C_25 
REMARK    9  A    between atoms: C_25  and  N_26 
ROOT
HETATM    1  N   UNL     1      24.283  47.331  49.877  1.00  0.00    -0.330 N 
HETATM    2  C   UNL     1      23.626  48.507  49.544  1.00  0.00     0.323 C 
HETATM    3  N   UNL     1      22.259  48.394  49.502  1.00  0.00    -0.309 N 
HETATM    4  O   UNL     1      24.246  49.476  49.111  1.00  0.00    -0.247 OA
HETATM    5  H   UNL     1      21.862  47.513  49.807  1.00  0.00     0.170 HD
ENDROOT
BRANCH   1   6
HETATM    6  C   UNL     1      25.672  47.475  50.360  1.00  0.00     0.170 C 
BRANCH   6   7
HETATM    7  C   UNL     1      26.091  46.474  51.399  1.00  0.00     0.013 A 
HETATM    8  C   UNL     1      25.836  46.695  52.740  1.00  0.00     0.170 A 
HETATM    9  N   UNL     1      26.162  45.880  53.752  1.00  0.00    -0.224 NA
HETATM   10  C   UNL     1      26.796  44.738  53.439  1.00  0.00     0.070 A 
HETATM   11  C   UNL     1      27.139  44.403  52.111  1.00  0.00    -0.006 A 
HETATM   12  C   UNL     1      27.133  43.849  54.448  1.00  0.00     0.033 A 
HETATM   13  C   UNL     1      27.803  43.194  51.836  1.00  0.00     0.021 A 
HETATM   14  C   UNL     1      26.788  45.304  51.092  1.00  0.00     0.027 A 
HETATM   15  C   UNL     1      28.121  42.301  52.866  1.00  0.00    -0.058 A 
HETATM   16  C   UNL     1      27.787  42.643  54.179  1.00  0.00     0.009 A 
BRANCH   8  17
HETATM   17  O   UNL     1      25.204  47.821  53.162  1.00  0.00    -0.344 OA
HETATM   18  H   UNL     1      24.280  47.533  53.036  1.00  0.00     0.219 HD
ENDBRANCH   8  17
BRANCH  15  19
HETATM   19  C   UNL     1      28.832  41.005  52.573  1.00  0.00     0.034 C 
HETATM   20  C   UNL     1      28.420  40.423  51.229  1.00  0.00     0.010 C 
ENDBRANCH  15  19
ENDBRANCH   6   7
ENDBRANCH   1   6
BRANCH   1  21
HETATM   21  C   UNL     1      24.045  46.164  49.023  1.00  0.00     0.129 C 
BRANCH  21  22
HETATM   22  C   UNL     1      23.030  45.146  49.583  1.00  0.00     0.048 C 
BRANCH  22  23
HETATM   23  C   UNL     1      23.595  44.019  50.458  1.00  0.00     0.236 C 
BRANCH  23  24
HETATM   24  N   UNL     1      23.665  42.657  49.820  1.00  0.00    -0.067 N 
HETATM   25  H   UNL     1      23.267  41.939  50.443  1.00  0.00     0.280 HD
HETATM   26  C   UNL     1      22.869  42.498  48.525  1.00  0.00     0.261 C 
HETATM   27  C   UNL     1      23.061  41.080  47.966  1.00  0.00     0.195 C 
HETATM   28  O   UNL     1      24.449  40.802  47.743  1.00  0.00    -0.388 OA
HETATM   29  C   UNL     1      25.186  40.847  48.968  1.00  0.00     0.195 C 
HETATM   30  C   UNL     1      25.120  42.245  49.587  1.00  0.00     0.261 C 
ENDBRANCH  23  24
ENDBRANCH  22  23
ENDBRANCH  21  22
ENDBRANCH   1  21
BRANCH   3  31
HETATM   31  C   UNL     1      21.349  49.424  49.187  1.00  0.00     0.037 A 
HETATM   32  C   UNL     1      20.738  49.390  47.929  1.00  0.00     0.053 A 
HETATM   33  C   UNL     1      19.853  50.404  47.556  1.00  0.00     0.036 A 
HETATM   34 CL   UNL     1      19.164  50.390  45.980  1.00  0.00    -0.084 Cl
HETATM   35  C   UNL     1      19.536  51.434  48.438  1.00  0.00     0.024 A 
HETATM   36  C   UNL     1      20.117  51.454  49.704  1.00  0.00     0.004 A 
HETATM   37  C   UNL     1      21.026  50.458  50.072  1.00  0.00     0.029 A 
ENDBRANCH   3  31
TORSDOF 9
ENDMDL
MODEL 9
REMARK VINA RESULT:      -8.6      4.465      5.990
REMARK  9 active torsions:
REMARK  status: ('A' for Active; 'I' for Inactive)
REMARK    1  A    between atoms: C_2  and  C_3 
REMARK    2  A    between atoms: C_8  and  O_9 
REMARK    3  A    between atoms: C_10  and  C_11 
REMARK    4  A    between atoms: C_11  and  N_12 
REMARK       I    between atoms: N_12  and  C_13 
REMARK    5  A    between atoms: N_12  and  C_23 
REMARK       I    between atoms: C_13  and  N_14 
REMARK    6  A    between atoms: N_14  and  C_15 
REMARK    7  A    between atoms: C_23  and  C_24 
REMARK    8  A    between atoms: C_24  and  C_25 
REMARK    9  A    between atoms: C_25  and  N_26 
ROOT
HETATM    1  N   UNL     1      26.613  41.707  49.410  1.00  0.00    -0.330 N 
HETATM    2  C   UNL     1      26.834  40.736  48.444  1.00  0.00     0.323 C 
HETATM    3  N   UNL     1      27.416  41.210  47.294  1.00  0.00    -0.309 N 
HETATM    4  O   UNL     1      26.337  39.617  48.549  1.00  0.00    -0.247 OA
HETATM    5  H   UNL     1      27.712  42.178  47.296  1.00  0.00     0.170 HD
ENDROOT
BRANCH   1   6
HETATM    6  C   UNL     1      26.409  41.220  50.789  1.00  0.00     0.170 C 
BRANCH   6   7
HETATM    7  C   UNL     1      27.376  41.759  51.804  1.00  0.00     0.013 A 
HETATM    8  C   UNL     1      28.543  41.079  52.104  1.00  0.00     0.170 A 
HETATM    9  N   UNL     1      29.476  41.459  52.986  1.00  0.00    -0.224 NA
HETATM   10  C   UNL     1      29.263  42.611  53.646  1.00  0.00     0.070 A 
HETATM   11  C   UNL     1      28.100  43.388  53.453  1.00  0.00    -0.006 A 
HETATM   12  C   UNL     1      30.210  43.060  54.553  1.00  0.00     0.033 A 
HETATM   13  C   UNL     1      27.924  44.586  54.169  1.00  0.00     0.021 A 
HETATM   14  C   UNL     1      27.147  42.932  52.528  1.00  0.00     0.027 A 
HETATM   15  C   UNL     1      28.899  45.032  55.069  1.00  0.00    -0.058 A 
HETATM   16  C   UNL     1      30.042  44.253  55.261  1.00  0.00     0.009 A 
BRANCH   8  17
HETATM   17  O   UNL     1      28.851  39.904  51.496  1.00  0.00    -0.344 OA
HETATM   18  H   UNL     1      28.582  40.129  50.584  1.00  0.00     0.219 HD
ENDBRANCH   8  17
BRANCH  15  19
HETATM   19  C   UNL     1      28.712  46.317  55.835  1.00  0.00     0.034 C 
HETATM   20  C   UNL     1      27.712  47.242  55.159  1.00  0.00     0.010 C 
ENDBRANCH  15  19
ENDBRANCH   6   7
ENDBRANCH   1   6
BRANCH   1  21
HETATM   21  C   UNL     1      25.780  42.853  49.032  1.00  0.00     0.129 C 
BRANCH  21  22
HETATM   22  C   UNL     1      24.293  42.732  49.425  1.00  0.00     0.048 C 
BRANCH  22  23
HETATM   23  C   UNL     1      23.718  43.852  50.301  1.00  0.00     0.236 C 
BRANCH  23  24
HETATM   24  N   UNL     1      24.556  45.098  50.417  1.00  0.00    -0.067 N 
HETATM   25  H   UNL     1      25.494  44.948  50.015  1.00  0.00     0.280 HD
HETATM   26  C   UNL     1      24.027  46.318  49.664  1.00  0.00     0.261 C 
HETATM   27  C   UNL     1      24.953  47.519  49.901  1.00  0.00     0.195 C 
HETATM   28  O   UNL     1      25.074  47.803  51.301  1.00  0.00    -0.388 OA
HETATM   29  C   UNL     1      25.665  46.704  52.000  1.00  0.00     0.195 C 
HETATM   30  C   UNL     1      24.787  45.457  51.887  1.00  0.00     0.261 C 
ENDBRANCH  23  24
ENDBRANCH  22  23
ENDBRANCH  21  22
ENDBRANCH   1  21
BRANCH   3  31
HETATM   31  C   UNL     1      27.744  40.447  46.154  1.00  0.00     0.037 A 
HETATM   32  C   UNL     1      28.080  39.103  46.346  1.00  0.00     0.053 A 
HETATM   33  C   UNL     1      28.443  38.312  45.254  1.00  0.00     0.036 A 
HETATM   34 CL   UNL     1      28.924  36.681  45.510  1.00  0.00    -0.084 Cl
HETATM   35  C   UNL     1      28.436  38.834  43.962  1.00  0.00     0.024 A 
HETATM   36  C   UNL     1      28.070  40.163  43.763  1.00  0.00     0.004 A 
HETATM   37  C   UNL     1      27.735  40.967  44.856  1.00  0.00     0.029 A 
ENDBRANCH   3  31
TORSDOF 9
ENDMDL
MODEL 10
REMARK VINA RESULT:      -8.6      3.441      5.954
REMARK  9 active torsions:
REMARK  status: ('A' for Active; 'I' for Inactive)
REMARK    1  A    between atoms: C_2  and  C_3 
REMARK    2  A    between atoms: C_8  and  O_9 
REMARK    3  A    between atoms: C_10  and  C_11 
REMARK    4  A    between atoms: C_11  and  N_12 
REMARK       I    between atoms: N_12  and  C_13 
REMARK    5  A    between atoms: N_12  and  C_23 
REMARK       I    between atoms: C_13  and  N_14 
REMARK    6  A    between atoms: N_14  and  C_15 
REMARK    7  A    between atoms: C_23  and  C_24 
REMARK    8  A    between atoms: C_24  and  C_25 
REMARK    9  A    between atoms: C_25  and  N_26 
ROOT
HETATM    1  N   UNL     1      21.692  46.631  48.617  1.00  0.00    -0.330 N 
HETATM    2  C   UNL     1      21.415  47.936  48.231  1.00  0.00     0.323 C 
HETATM    3  N   UNL     1      20.255  48.443  48.760  1.00  0.00    -0.309 N 
HETATM    4  O   UNL     1      22.047  48.473  47.325  1.00  0.00    -0.247 OA
HETATM    5  H   UNL     1      19.773  47.870  49.442  1.00  0.00     0.170 HD
ENDROOT
BRANCH   1   6
HETATM    6  C   UNL     1      23.092  46.187  48.456  1.00  0.00     0.170 C 
BRANCH   6   7
HETATM    7  C   UNL     1      23.954  46.345  49.675  1.00  0.00     0.013 A 
HETATM    8  C   UNL     1      24.560  47.554  49.964  1.00  0.00     0.170 A 
HETATM    9  N   UNL     1      25.347  47.814  51.016  1.00  0.00    -0.224 NA
HETATM   10  C   UNL     1      25.572  46.806  51.877  1.00  0.00     0.070 A 
HETATM   11  C   UNL     1      25.034  45.515  51.685  1.00  0.00    -0.006 A 
HETATM   12  C   UNL     1      26.361  47.030  52.995  1.00  0.00     0.033 A 
HETATM   13  C   UNL     1      25.300  44.494  52.615  1.00  0.00     0.021 A 
HETATM   14  C   UNL     1      24.231  45.296  50.554  1.00  0.00     0.027 A 
HETATM   15  C   UNL     1      26.086  44.743  53.747  1.00  0.00    -0.058 A 
HETATM   16  C   UNL     1      26.621  46.020  53.925  1.00  0.00     0.009 A 
BRANCH   8  17
HETATM   17  O   UNL     1      24.399  48.635  49.156  1.00  0.00    -0.344 OA
HETATM   18  H   UNL     1      25.277  48.636  48.727  1.00  0.00     0.219 HD
ENDBRANCH   8  17
BRANCH  15  19
HETATM   19  C   UNL     1      26.370  43.649  54.745  1.00  0.00     0.034 C 
HETATM   20  C   UNL     1      27.629  42.872  54.393  1.00  0.00     0.010 C 
ENDBRANCH  15  19
ENDBRANCH   6   7
ENDBRANCH   1   6
BRANCH   1  21
HETATM   21  C   UNL     1      20.683  45.613  48.312  1.00  0.00     0.129 C 
BRANCH  21  22
HETATM   22  C   UNL     1      20.140  45.649  46.868  1.00  0.00     0.048 C 
BRANCH  22  23
HETATM   23  C   UNL     1      18.629  45.456  46.695  1.00  0.00     0.236 C 
BRANCH  23  24
HETATM   24  N   UNL     1      17.773  46.671  46.934  1.00  0.00    -0.067 N 
HETATM   25  H   UNL     1      18.348  47.527  46.947  1.00  0.00     0.280 HD
HETATM   26  C   UNL     1      16.721  46.954  45.863  1.00  0.00     0.261 C 
HETATM   27  C   UNL     1      15.900  48.192  46.252  1.00  0.00     0.195 C 
HETATM   28  O   UNL     1      15.281  48.013  47.532  1.00  0.00    -0.388 OA
HETATM   29  C   UNL     1      16.262  47.850  48.560  1.00  0.00     0.195 C 
HETATM   30  C   UNL     1      17.105  46.598  48.309  1.00  0.00     0.261 C 
ENDBRANCH  23  24
ENDBRANCH  22  23
ENDBRANCH  21  22
ENDBRANCH   1  21
BRANCH   3  31
HETATM   31  C   UNL     1      19.732  49.733  48.531  1.00  0.00     0.037 A 
HETATM   32  C   UNL     1      19.067  49.959  47.322  1.00  0.00     0.053 A 
HETATM   33  C   UNL     1      18.558  51.228  47.034  1.00  0.00     0.036 A 
HETATM   34 CL   UNL     1      17.806  51.514  45.514  1.00  0.00    -0.084 Cl
HETATM   35  C   UNL     1      18.668  52.266  47.955  1.00  0.00     0.024 A 
HETATM   36  C   UNL     1      19.300  52.035  49.175  1.00  0.00     0.004 A 
HETATM   37  C   UNL     1      19.838  50.776  49.456  1.00  0.00     0.029 A 
ENDBRANCH   3  31
TORSDOF 9
ENDMDL
