MODEL 1
REMARK VINA RESULT:      -9.6      0.000      0.000
REMARK  2 active torsions:
REMARK  status: ('A' for Active; 'I' for Inactive)
REMARK    1  A    between atoms: C_2  and  N_3 
REMARK    2  A    between atoms: N_3  and  C_4 
ROOT
HETATM    1  C   UNL     1      19.687  48.164  49.140  1.00  0.00     0.143 A 
HETATM    2  N   UNL     1      19.771  46.848  48.818  1.00  0.00    -0.223 NA
HETATM    3  C   UNL     1      18.718  46.222  48.282  1.00  0.00     0.236 A 
HETATM    4  N   UNL     1      17.527  46.744  48.007  1.00  0.00    -0.234 NA
HETATM    5  C   UNL     1      17.452  48.044  48.330  1.00  0.00     0.114 A 
HETATM    6  C   UNL     1      18.457  48.832  48.883  1.00  0.00     0.053 A 
HETATM    7  S   UNL     1      15.998  48.888  48.068  1.00  0.00    -0.073 SA
HETATM    8  C   UNL     1      16.647  50.320  48.699  1.00  0.00    -0.008 A 
HETATM    9  C   UNL     1      17.974  50.192  49.076  1.00  0.00    -0.028 A 
HETATM   10  C   UNL     1      18.721  51.360  49.663  1.00  0.00     0.041 C 
HETATM   11  C   UNL     1      17.974  52.694  49.500  1.00  0.00     0.005 C 
HETATM   12  C   UNL     1      16.473  52.557  49.772  1.00  0.00     0.005 C 
HETATM   13  C   UNL     1      15.826  51.570  48.792  1.00  0.00     0.047 C 
ENDROOT
BRANCH   1  14
HETATM   14  N   UNL     1      20.808  48.819  49.670  1.00  0.00    -0.340 N 
HETATM   15  H   UNL     1      20.691  49.148  50.613  1.00  0.00     0.167 HD
BRANCH  14  16
HETATM   16  C   UNL     1      22.059  49.136  49.110  1.00  0.00     0.036 A 
HETATM   17  C   UNL     1      22.301  50.299  48.370  1.00  0.00     0.032 A 
HETATM   18  C   UNL     1      23.573  50.584  47.864  1.00  0.00     0.042 A 
HETATM   19  C   UNL     1      24.639  49.731  48.134  1.00  0.00     0.102 A 
HETATM   20  C   UNL     1      24.423  48.574  48.880  1.00  0.00     0.104 A 
HETATM   21  O   UNL     1      25.840  50.037  47.557  1.00  0.00    -0.348 OA
HETATM   22  C   UNL     1      23.140  48.273  49.348  1.00  0.00     0.069 A 
HETATM   23  O   UNL     1      25.399  47.645  49.121  1.00  0.00    -0.348 OA
HETATM   24  C   UNL     1      26.472  48.185  49.892  1.00  0.00     0.178 C 
HETATM   25  C   UNL     1      27.463  48.957  49.033  1.00  0.00     0.053 C 
HETATM   26  C   UNL     1      26.858  50.260  48.533  1.00  0.00     0.178 C 
ENDBRANCH  14  16
ENDBRANCH   1  14
TORSDOF 2
ENDMDL
MODEL 2
REMARK VINA RESULT:      -9.2      5.719     10.019
REMARK  2 active torsions:
REMARK  status: ('A' for Active; 'I' for Inactive)
REMARK    1  A    between atoms: C_2  and  N_3 
REMARK    2  A    between atoms: N_3  and  C_4 
ROOT
HETATM    1  C   UNL     1      26.373  46.467  53.245  1.00  0.00     0.143 A 
HETATM    2  N   UNL     1      25.676  47.558  53.651  1.00  0.00    -0.223 NA
HETATM    3  C   UNL     1      25.988  48.159  54.804  1.00  0.00     0.236 A 
HETATM    4  N   UNL     1      26.944  47.812  55.659  1.00  0.00    -0.234 NA
HETATM    5  C   UNL     1      27.627  46.732  55.250  1.00  0.00     0.114 A 
HETATM    6  C   UNL     1      27.429  46.006  54.079  1.00  0.00     0.053 A 
HETATM    7  S   UNL     1      28.885  46.121  56.220  1.00  0.00    -0.073 SA
HETATM    8  C   UNL     1      29.194  44.862  55.129  1.00  0.00    -0.008 A 
HETATM    9  C   UNL     1      28.383  44.909  54.006  1.00  0.00    -0.028 A 
HETATM   10  C   UNL     1      28.510  43.868  52.925  1.00  0.00     0.041 C 
HETATM   11  C   UNL     1      29.775  43.006  53.066  1.00  0.00     0.005 C 
HETATM   12  C   UNL     1      30.047  42.607  54.520  1.00  0.00     0.005 C 
HETATM   13  C   UNL     1      30.262  43.846  55.398  1.00  0.00     0.047 C 
ENDROOT
BRANCH   1  14
HETATM   14  N   UNL     1      26.059  45.864  52.017  1.00  0.00    -0.340 N 
HETATM   15  H   UNL     1      26.520  44.986  51.855  1.00  0.00     0.167 HD
BRANCH  14  16
HETATM   16  C   UNL     1      25.244  46.283  50.951  1.00  0.00     0.036 A 
HETATM   17  C   UNL     1      24.241  45.486  50.387  1.00  0.00     0.032 A 
HETATM   18  C   UNL     1      23.433  45.963  49.349  1.00  0.00     0.042 A 
HETATM   19  C   UNL     1      23.585  47.268  48.892  1.00  0.00     0.102 A 
HETATM   20  C   UNL     1      24.567  48.084  49.448  1.00  0.00     0.104 A 
HETATM   21  O   UNL     1      22.805  47.649  47.835  1.00  0.00    -0.348 OA
HETATM   22  C   UNL     1      25.400  47.588  50.456  1.00  0.00     0.069 A 
HETATM   23  O   UNL     1      24.833  49.349  49.000  1.00  0.00    -0.348 OA
HETATM   24  C   UNL     1      23.720  50.225  49.180  1.00  0.00     0.178 C 
HETATM   25  C   UNL     1      22.690  50.081  48.069  1.00  0.00     0.053 C 
HETATM   26  C   UNL     1      21.958  48.750  48.166  1.00  0.00     0.178 C 
ENDBRANCH  14  16
ENDBRANCH   1  14
TORSDOF 2
ENDMDL
MODEL 3
REMARK VINA RESULT:      -9.2      8.492     11.716
REMARK  2 active torsions:
REMARK  status: ('A' for Active; 'I' for Inactive)
REMARK    1  A    between atoms: C_2  and  N_3 
REMARK    2  A    between atoms: N_3  and  C_4 
ROOT
HETATM    1  C   UNL     1      26.642  43.827  53.396  1.00  0.00     0.143 A 
HETATM    2  N   UNL     1      25.530  44.405  52.876  1.00  0.00    -0.223 NA
HETATM    3  C   UNL     1      25.298  45.706  53.076  1.00  0.00     0.236 A 
HETATM    4  N   UNL     1      26.052  46.562  53.756  1.00  0.00    -0.234 NA
HETATM    5  C   UNL     1      27.148  45.982  54.268  1.00  0.00     0.114 A 
HETATM    6  C   UNL     1      27.531  44.650  54.141  1.00  0.00     0.053 A 
HETATM    7  S   UNL     1      28.235  46.914  55.189  1.00  0.00    -0.073 SA
HETATM    8  C   UNL     1      29.237  45.577  55.467  1.00  0.00    -0.008 A 
HETATM    9  C   UNL     1      28.789  44.425  54.839  1.00  0.00    -0.028 A 
HETATM   10  C   UNL     1      29.549  43.133  54.975  1.00  0.00     0.041 C 
HETATM   11  C   UNL     1      30.948  43.319  55.584  1.00  0.00     0.005 C 
HETATM   12  C   UNL     1      30.946  44.308  56.753  1.00  0.00     0.005 C 
HETATM   13  C   UNL     1      30.478  45.696  56.297  1.00  0.00     0.047 C 
ENDROOT
BRANCH   1  14
HETATM   14  N   UNL     1      26.893  42.468  53.153  1.00  0.00    -0.340 N 
HETATM   15  H   UNL     1      26.652  41.857  53.915  1.00  0.00     0.167 HD
BRANCH  14  16
HETATM   16  C   UNL     1      27.458  41.803  52.050  1.00  0.00     0.036 A 
HETATM   17  C   UNL     1      28.345  40.728  52.168  1.00  0.00     0.032 A 
HETATM   18  C   UNL     1      28.852  40.078  51.037  1.00  0.00     0.042 A 
HETATM   19  C   UNL     1      28.438  40.465  49.767  1.00  0.00     0.102 A 
HETATM   20  C   UNL     1      27.543  41.524  49.626  1.00  0.00     0.104 A 
HETATM   21  O   UNL     1      29.018  39.829  48.705  1.00  0.00    -0.348 OA
HETATM   22  C   UNL     1      27.073  42.197  50.758  1.00  0.00     0.069 A 
HETATM   23  O   UNL     1      27.150  42.016  48.412  1.00  0.00    -0.348 OA
HETATM   24  C   UNL     1      26.433  41.045  47.649  1.00  0.00     0.178 C 
HETATM   25  C   UNL     1      27.363  40.085  46.923  1.00  0.00     0.053 C 
HETATM   26  C   UNL     1      28.056  39.147  47.900  1.00  0.00     0.178 C 
ENDBRANCH  14  16
ENDBRANCH   1  14
TORSDOF 2
ENDMDL
MODEL 4
REMARK VINA RESULT:      -9.2      5.950      9.601
REMARK  2 active torsions:
REMARK  status: ('A' for Active; 'I' for Inactive)
REMARK    1  A    between atoms: C_2  and  N_3 
REMARK    2  A    between atoms: N_3  and  C_4 
ROOT
HETATM    1  C   UNL     1      25.843  43.151  51.010  1.00  0.00     0.143 A 
HETATM    2  N   UNL     1      25.436  42.281  50.052  1.00  0.00    -0.223 NA
HETATM    3  C   UNL     1      26.011  41.077  49.955  1.00  0.00     0.236 A 
HETATM    4  N   UNL     1      26.987  40.589  50.713  1.00  0.00    -0.234 NA
HETATM    5  C   UNL     1      27.384  41.456  51.656  1.00  0.00     0.114 A 
HETATM    6  C   UNL     1      26.881  42.733  51.888  1.00  0.00     0.053 A 
HETATM    7  S   UNL     1      28.640  41.020  52.719  1.00  0.00    -0.073 SA
HETATM    8  C   UNL     1      28.572  42.517  53.508  1.00  0.00    -0.008 A 
HETATM    9  C   UNL     1      27.580  43.347  53.009  1.00  0.00    -0.028 A 
HETATM   10  C   UNL     1      27.371  44.722  53.584  1.00  0.00     0.041 C 
HETATM   11  C   UNL     1      28.126  44.943  54.905  1.00  0.00     0.005 C 
HETATM   12  C   UNL     1      29.540  44.358  54.871  1.00  0.00     0.005 C 
HETATM   13  C   UNL     1      29.502  42.843  54.637  1.00  0.00     0.047 C 
ENDROOT
BRANCH   1  14
HETATM   14  N   UNL     1      25.211  44.398  51.125  1.00  0.00    -0.340 N 
HETATM   15  H   UNL     1      24.352  44.383  51.646  1.00  0.00     0.167 HD
BRANCH  14  16
HETATM   16  C   UNL     1      25.540  45.665  50.611  1.00  0.00     0.036 A 
HETATM   17  C   UNL     1      26.809  45.993  50.119  1.00  0.00     0.032 A 
HETATM   18  C   UNL     1      27.076  47.258  49.586  1.00  0.00     0.042 A 
HETATM   19  C   UNL     1      26.059  48.202  49.489  1.00  0.00     0.102 A 
HETATM   20  C   UNL     1      24.784  47.892  49.958  1.00  0.00     0.104 A 
HETATM   21  O   UNL     1      26.402  49.438  49.014  1.00  0.00    -0.348 OA
HETATM   22  C   UNL     1      24.534  46.641  50.530  1.00  0.00     0.069 A 
HETATM   23  O   UNL     1      23.752  48.791  49.973  1.00  0.00    -0.348 OA
HETATM   24  C   UNL     1      23.386  49.206  48.657  1.00  0.00     0.178 C 
HETATM   25  C   UNL     1      24.295  50.305  48.128  1.00  0.00     0.053 C 
HETATM   26  C   UNL     1      25.686  49.770  47.824  1.00  0.00     0.178 C 
ENDBRANCH  14  16
ENDBRANCH   1  14
TORSDOF 2
ENDMDL
MODEL 5
REMARK VINA RESULT:      -8.8      8.242     10.809
REMARK  2 active torsions:
REMARK  status: ('A' for Active; 'I' for Inactive)
REMARK    1  A    between atoms: C_2  and  N_3 
REMARK    2  A    between atoms: N_3  and  C_4 
ROOT
HETATM    1  C   UNL     1      27.578  41.428  51.998  1.00  0.00     0.143 A 
HETATM    2  N   UNL     1      28.552  40.495  51.842  1.00  0.00    -0.223 NA
HETATM    3  C   UNL     1      28.781  39.964  50.636  1.00  0.00     0.236 A 
HETATM    4  N   UNL     1      28.146  40.239  49.502  1.00  0.00    -0.234 NA
HETATM    5  C   UNL     1      27.184  41.160  49.666  1.00  0.00     0.114 A 
HETATM    6  C   UNL     1      26.834  41.808  50.847  1.00  0.00     0.053 A 
HETATM    7  S   UNL     1      26.245  41.635  48.329  1.00  0.00    -0.073 SA
HETATM    8  C   UNL     1      25.328  42.699  49.276  1.00  0.00    -0.008 A 
HETATM    9  C   UNL     1      25.743  42.740  50.598  1.00  0.00    -0.028 A 
HETATM   10  C   UNL     1      25.045  43.628  51.593  1.00  0.00     0.041 C 
HETATM   11  C   UNL     1      24.098  44.644  50.932  1.00  0.00     0.005 C 
HETATM   12  C   UNL     1      23.289  44.025  49.789  1.00  0.00     0.005 C 
HETATM   13  C   UNL     1      24.212  43.503  48.682  1.00  0.00     0.047 C 
ENDROOT
BRANCH   1  14
HETATM   14  N   UNL     1      27.368  42.003  53.259  1.00  0.00    -0.340 N 
HETATM   15  H   UNL     1      26.548  41.673  53.737  1.00  0.00     0.167 HD
BRANCH  14  16
HETATM   16  C   UNL     1      28.077  42.991  53.967  1.00  0.00     0.036 A 
HETATM   17  C   UNL     1      27.588  44.283  54.190  1.00  0.00     0.032 A 
HETATM   18  C   UNL     1      28.319  45.218  54.931  1.00  0.00     0.042 A 
HETATM   19  C   UNL     1      29.533  44.856  55.505  1.00  0.00     0.102 A 
HETATM   20  C   UNL     1      30.033  43.570  55.309  1.00  0.00     0.104 A 
HETATM   21  O   UNL     1      30.223  45.835  56.165  1.00  0.00    -0.348 OA
HETATM   22  C   UNL     1      29.318  42.653  54.532  1.00  0.00     0.069 A 
HETATM   23  O   UNL     1      31.254  43.162  55.772  1.00  0.00    -0.348 OA
HETATM   24  C   UNL     1      31.320  43.188  57.198  1.00  0.00     0.178 C 
HETATM   25  C   UNL     1      31.618  44.581  57.734  1.00  0.00     0.053 C 
HETATM   26  C   UNL     1      30.428  45.510  57.540  1.00  0.00     0.178 C 
ENDBRANCH  14  16
ENDBRANCH   1  14
TORSDOF 2
ENDMDL
MODEL 6
REMARK VINA RESULT:      -8.8      9.040     12.250
REMARK  2 active torsions:
REMARK  status: ('A' for Active; 'I' for Inactive)
REMARK    1  A    between atoms: C_2  and  N_3 
REMARK    2  A    between atoms: N_3  and  C_4 
ROOT
HETATM    1  C   UNL     1      27.674  43.920  52.995  1.00  0.00     0.143 A 
HETATM    2  N   UNL     1      26.615  44.424  52.312  1.00  0.00    -0.223 NA
HETATM    3  C   UNL     1      26.084  45.596  52.673  1.00  0.00     0.236 A 
HETATM    4  N   UNL     1      26.473  46.382  53.671  1.00  0.00    -0.234 NA
HETATM    5  C   UNL     1      27.518  45.876  54.342  1.00  0.00     0.114 A 
HETATM    6  C   UNL     1      28.183  44.680  54.084  1.00  0.00     0.053 A 
HETATM    7  S   UNL     1      28.153  46.731  55.669  1.00  0.00    -0.073 SA
HETATM    8  C   UNL     1      29.317  45.534  55.959  1.00  0.00    -0.008 A 
HETATM    9  C   UNL     1      29.268  44.499  55.039  1.00  0.00    -0.028 A 
HETATM   10  C   UNL     1      30.224  43.340  55.137  1.00  0.00     0.041 C 
HETATM   11  C   UNL     1      31.380  43.596  56.118  1.00  0.00     0.005 C 
HETATM   12  C   UNL     1      30.910  44.285  57.402  1.00  0.00     0.005 C 
HETATM   13  C   UNL     1      30.285  45.651  57.096  1.00  0.00     0.047 C 
ENDROOT
BRANCH   1  14
HETATM   14  N   UNL     1      28.245  42.705  52.588  1.00  0.00    -0.340 N 
HETATM   15  H   UNL     1      29.162  42.530  52.962  1.00  0.00     0.167 HD
BRANCH  14  16
HETATM   16  C   UNL     1      27.785  41.700  51.718  1.00  0.00     0.036 A 
HETATM   17  C   UNL     1      26.534  41.734  51.093  1.00  0.00     0.032 A 
HETATM   18  C   UNL     1      26.138  40.725  50.208  1.00  0.00     0.042 A 
HETATM   19  C   UNL     1      27.012  39.688  49.897  1.00  0.00     0.102 A 
HETATM   20  C   UNL     1      28.269  39.642  50.497  1.00  0.00     0.104 A 
HETATM   21  O   UNL     1      26.538  38.704  49.074  1.00  0.00    -0.348 OA
HETATM   22  C   UNL     1      28.642  40.631  51.412  1.00  0.00     0.069 A 
HETATM   23  O   UNL     1      29.153  38.616  50.306  1.00  0.00    -0.348 OA
HETATM   24  C   UNL     1      29.577  38.523  48.945  1.00  0.00     0.178 C 
HETATM   25  C   UNL     1      28.571  37.775  48.081  1.00  0.00     0.053 C 
HETATM   26  C   UNL     1      27.307  38.596  47.875  1.00  0.00     0.178 C 
ENDBRANCH  14  16
ENDBRANCH   1  14
TORSDOF 2
ENDMDL
MODEL 7
REMARK VINA RESULT:      -8.7      6.352      9.117
REMARK  2 active torsions:
REMARK  status: ('A' for Active; 'I' for Inactive)
REMARK    1  A    between atoms: C_2  and  N_3 
REMARK    2  A    between atoms: N_3  and  C_4 
ROOT
HETATM    1  C   UNL     1      26.717  43.118  50.514  1.00  0.00     0.143 A 
HETATM    2  N   UNL     1      26.638  41.763  50.484  1.00  0.00    -0.223 NA
HETATM    3  C   UNL     1      25.550  41.169  49.983  1.00  0.00     0.236 A 
HETATM    4  N   UNL     1      24.470  41.759  49.482  1.00  0.00    -0.234 NA
HETATM    5  C   UNL     1      24.557  43.097  49.517  1.00  0.00     0.114 A 
HETATM    6  C   UNL     1      25.619  43.858  49.996  1.00  0.00     0.053 A 
HETATM    7  S   UNL     1      23.261  44.034  48.934  1.00  0.00    -0.073 SA
HETATM    8  C   UNL     1      24.057  45.480  49.317  1.00  0.00    -0.008 A 
HETATM    9  C   UNL     1      25.321  45.276  49.850  1.00  0.00    -0.028 A 
HETATM   10  C   UNL     1      26.179  46.444  50.256  1.00  0.00     0.041 C 
HETATM   11  C   UNL     1      25.644  47.791  49.741  1.00  0.00     0.005 C 
HETATM   12  C   UNL     1      24.123  47.901  49.876  1.00  0.00     0.005 C 
HETATM   13  C   UNL     1      23.418  46.810  49.061  1.00  0.00     0.047 C 
ENDROOT
BRANCH   1  14
HETATM   14  N   UNL     1      27.877  43.732  51.012  1.00  0.00    -0.340 N 
HETATM   15  H   UNL     1      28.383  44.276  50.335  1.00  0.00     0.167 HD
BRANCH  14  16
HETATM   16  C   UNL     1      28.485  43.694  52.279  1.00  0.00     0.036 A 
HETATM   17  C   UNL     1      29.672  43.003  52.546  1.00  0.00     0.032 A 
HETATM   18  C   UNL     1      30.255  43.027  53.818  1.00  0.00     0.042 A 
HETATM   19  C   UNL     1      29.682  43.787  54.833  1.00  0.00     0.102 A 
HETATM   20  C   UNL     1      28.508  44.495  54.586  1.00  0.00     0.104 A 
HETATM   21  O   UNL     1      30.269  43.716  56.066  1.00  0.00    -0.348 OA
HETATM   22  C   UNL     1      27.907  44.433  53.325  1.00  0.00     0.069 A 
HETATM   23  O   UNL     1      27.840  45.199  55.550  1.00  0.00    -0.348 OA
HETATM   24  C   UNL     1      28.623  46.279  56.060  1.00  0.00     0.178 C 
HETATM   25  C   UNL     1      29.611  45.821  57.123  1.00  0.00     0.053 C 
HETATM   26  C   UNL     1      30.730  44.992  56.511  1.00  0.00     0.178 C 
ENDBRANCH  14  16
ENDBRANCH   1  14
TORSDOF 2
ENDMDL
MODEL 8
REMARK VINA RESULT:      -8.6      6.397     10.361
REMARK  2 active torsions:
REMARK  status: ('A' for Active; 'I' for Inactive)
REMARK    1  A    between atoms: C_2  and  N_3 
REMARK    2  A    between atoms: N_3  and  C_4 
ROOT
HETATM    1  C   UNL     1      26.477  46.369  53.274  1.00  0.00     0.143 A 
HETATM    2  N   UNL     1      25.742  47.451  53.635  1.00  0.00    -0.223 NA
HETATM    3  C   UNL     1      26.004  48.084  54.784  1.00  0.00     0.236 A 
HETATM    4  N   UNL     1      26.941  47.778  55.675  1.00  0.00    -0.234 NA
HETATM    5  C   UNL     1      27.662  46.707  55.310  1.00  0.00     0.114 A 
HETATM    6  C   UNL     1      27.518  45.952  54.150  1.00  0.00     0.053 A 
HETATM    7  S   UNL     1      28.904  46.147  56.331  1.00  0.00    -0.073 SA
HETATM    8  C   UNL     1      29.276  44.873  55.278  1.00  0.00    -0.008 A 
HETATM    9  C   UNL     1      28.500  44.877  54.130  1.00  0.00    -0.028 A 
HETATM   10  C   UNL     1      28.684  43.817  53.076  1.00  0.00     0.041 C 
HETATM   11  C   UNL     1      29.965  42.989  53.275  1.00  0.00     0.005 C 
HETATM   12  C   UNL     1      30.201  42.628  54.744  1.00  0.00     0.005 C 
HETATM   13  C   UNL     1      30.359  43.890  55.601  1.00  0.00     0.047 C 
ENDROOT
BRANCH   1  14
HETATM   14  N   UNL     1      26.216  45.733  52.051  1.00  0.00    -0.340 N 
HETATM   15  H   UNL     1      26.904  45.053  51.780  1.00  0.00     0.167 HD
BRANCH  14  16
HETATM   16  C   UNL     1      25.182  45.900  51.112  1.00  0.00     0.036 A 
HETATM   17  C   UNL     1      24.957  47.093  50.416  1.00  0.00     0.032 A 
HETATM   18  C   UNL     1      23.935  47.196  49.465  1.00  0.00     0.042 A 
HETATM   19  C   UNL     1      23.153  46.087  49.160  1.00  0.00     0.102 A 
HETATM   20  C   UNL     1      23.370  44.884  49.830  1.00  0.00     0.104 A 
HETATM   21  O   UNL     1      22.135  46.273  48.267  1.00  0.00    -0.348 OA
HETATM   22  C   UNL     1      24.364  44.799  50.810  1.00  0.00     0.069 A 
HETATM   23  O   UNL     1      22.593  43.773  49.645  1.00  0.00    -0.348 OA
HETATM   24  C   UNL     1      22.681  43.276  48.310  1.00  0.00     0.178 C 
HETATM   25  C   UNL     1      21.769  44.034  47.355  1.00  0.00     0.053 C 
HETATM   26  C   UNL     1      22.279  45.446  47.112  1.00  0.00     0.178 C 
ENDBRANCH  14  16
ENDBRANCH   1  14
TORSDOF 2
ENDMDL
MODEL 9
REMARK VINA RESULT:      -8.5      5.704      9.365
REMARK  2 active torsions:
REMARK  status: ('A' for Active; 'I' for Inactive)
REMARK    1  A    between atoms: C_2  and  N_3 
REMARK    2  A    between atoms: N_3  and  C_4 
ROOT
HETATM    1  C   UNL     1      25.867  44.048  51.741  1.00  0.00     0.143 A 
HETATM    2  N   UNL     1      25.644  43.003  50.904  1.00  0.00    -0.223 NA
HETATM    3  C   UNL     1      26.415  41.912  50.977  1.00  0.00     0.236 A 
HETATM    4  N   UNL     1      27.431  41.700  51.807  1.00  0.00    -0.234 NA
HETATM    5  C   UNL     1      27.644  42.738  52.629  1.00  0.00     0.114 A 
HETATM    6  C   UNL     1      26.928  43.930  52.681  1.00  0.00     0.053 A 
HETATM    7  S   UNL     1      28.917  42.663  53.757  1.00  0.00    -0.073 SA
HETATM    8  C   UNL     1      28.573  44.218  54.336  1.00  0.00    -0.008 A 
HETATM    9  C   UNL     1      27.475  44.795  53.717  1.00  0.00    -0.028 A 
HETATM   10  C   UNL     1      27.019  46.178  54.099  1.00  0.00     0.041 C 
HETATM   11  C   UNL     1      27.679  46.695  55.388  1.00  0.00     0.005 C 
HETATM   12  C   UNL     1      29.172  46.358  55.450  1.00  0.00     0.005 C 
HETATM   13  C   UNL     1      29.395  44.841  55.423  1.00  0.00     0.047 C 
ENDROOT
BRANCH   1  14
HETATM   14  N   UNL     1      25.032  45.173  51.679  1.00  0.00    -0.340 N 
HETATM   15  H   UNL     1      24.831  45.592  52.570  1.00  0.00     0.167 HD
BRANCH  14  16
HETATM   16  C   UNL     1      24.391  45.804  50.597  1.00  0.00     0.036 A 
HETATM   17  C   UNL     1      23.511  45.145  49.731  1.00  0.00     0.032 A 
HETATM   18  C   UNL     1      22.872  45.827  48.690  1.00  0.00     0.042 A 
HETATM   19  C   UNL     1      23.066  47.196  48.530  1.00  0.00     0.102 A 
HETATM   20  C   UNL     1      23.927  47.875  49.391  1.00  0.00     0.104 A 
HETATM   21  O   UNL     1      22.459  47.787  47.457  1.00  0.00    -0.348 OA
HETATM   22  C   UNL     1      24.596  47.179  50.403  1.00  0.00     0.069 A 
HETATM   23  O   UNL     1      24.233  49.201  49.251  1.00  0.00    -0.348 OA
HETATM   24  C   UNL     1      23.086  50.034  49.417  1.00  0.00     0.178 C 
HETATM   25  C   UNL     1      22.254  50.125  48.145  1.00  0.00     0.053 C 
HETATM   26  C   UNL     1      21.546  48.809  47.857  1.00  0.00     0.178 C 
ENDBRANCH  14  16
ENDBRANCH   1  14
TORSDOF 2
ENDMDL
MODEL 10
REMARK VINA RESULT:      -8.5      8.629     11.022
REMARK  2 active torsions:
REMARK  status: ('A' for Active; 'I' for Inactive)
REMARK    1  A    between atoms: C_2  and  N_3 
REMARK    2  A    between atoms: N_3  and  C_4 
ROOT
HETATM    1  C   UNL     1      26.101  45.999  53.886  1.00  0.00     0.143 A 
HETATM    2  N   UNL     1      25.545  47.211  54.140  1.00  0.00    -0.223 NA
HETATM    3  C   UNL     1      26.197  48.099  54.899  1.00  0.00     0.236 A 
HETATM    4  N   UNL     1      27.385  47.946  55.474  1.00  0.00    -0.234 NA
HETATM    5  C   UNL     1      27.926  46.746  55.218  1.00  0.00     0.114 A 
HETATM    6  C   UNL     1      27.379  45.725  54.446  1.00  0.00     0.053 A 
HETATM    7  S   UNL     1      29.443  46.354  55.883  1.00  0.00    -0.073 SA
HETATM    8  C   UNL     1      29.415  44.810  55.185  1.00  0.00    -0.008 A 
HETATM    9  C   UNL     1      28.286  44.586  54.413  1.00  0.00    -0.028 A 
HETATM   10  C   UNL     1      28.084  43.267  53.715  1.00  0.00     0.041 C 
HETATM   11  C   UNL     1      29.348  42.391  53.707  1.00  0.00     0.005 C 
HETATM   12  C   UNL     1      30.081  42.419  55.051  1.00  0.00     0.005 C 
HETATM   13  C   UNL     1      30.537  43.841  55.399  1.00  0.00     0.047 C 
ENDROOT
BRANCH   1  14
HETATM   14  N   UNL     1      25.424  45.087  53.062  1.00  0.00    -0.340 N 
HETATM   15  H   UNL     1      24.510  44.828  53.391  1.00  0.00     0.167 HD
BRANCH  14  16
HETATM   16  C   UNL     1      25.806  44.438  51.875  1.00  0.00     0.036 A 
HETATM   17  C   UNL     1      26.669  45.002  50.929  1.00  0.00     0.032 A 
HETATM   18  C   UNL     1      27.046  44.299  49.779  1.00  0.00     0.042 A 
HETATM   19  C   UNL     1      26.601  42.996  49.583  1.00  0.00     0.102 A 
HETATM   20  C   UNL     1      25.752  42.408  50.519  1.00  0.00     0.104 A 
HETATM   21  O   UNL     1      26.957  42.389  48.410  1.00  0.00    -0.348 OA
HETATM   22  C   UNL     1      25.346  43.131  51.645  1.00  0.00     0.069 A 
HETATM   23  O   UNL     1      25.208  41.163  50.359  1.00  0.00    -0.348 OA
HETATM   24  C   UNL     1      26.208  40.144  50.327  1.00  0.00     0.178 C 
HETATM   25  C   UNL     1      26.845  40.007  48.952  1.00  0.00     0.053 C 
HETATM   26  C   UNL     1      27.725  41.207  48.633  1.00  0.00     0.178 C 
ENDBRANCH  14  16
ENDBRANCH   1  14
TORSDOF 2
ENDMDL
