MODEL 1
REMARK VINA RESULT:      -9.7      0.000      0.000
REMARK  4 active torsions:
REMARK  status: ('A' for Active; 'I' for Inactive)
REMARK    1  A    between atoms: C_4  and  C_5 
REMARK    2  A    between atoms: C_5  and  N_6 
REMARK    3  A    between atoms: C_10  and  C_11 
REMARK    4  A    between atoms: C_15  and  N_16 
ROOT
HETATM    1  N   UNL     1      28.793  43.978  53.654  1.00  0.00    -0.064 N 
HETATM    2  H   UNL     1      29.240  44.901  53.672  1.00  0.00     0.280 HD
HETATM    3  C   UNL     1      28.761  43.558  52.205  1.00  0.00     0.263 C 
HETATM    4  C   UNL     1      27.657  44.184  51.421  1.00  0.00     0.008 C 
HETATM    5  C   UNL     1      26.666  44.921  51.956  1.00  0.00    -0.046 C 
HETATM    6  C   UNL     1      26.615  45.179  53.441  1.00  0.00     0.067 C 
HETATM    7  C   UNL     1      27.404  44.131  54.225  1.00  0.00     0.240 C 
ENDROOT
BRANCH   5   8
HETATM    8  C   UNL     1      25.579  45.456  51.195  1.00  0.00    -0.002 A 
HETATM    9  C   UNL     1      25.547  46.649  50.403  1.00  0.00     0.003 A 
HETATM   10  C   UNL     1      24.283  46.712  49.811  1.00  0.00     0.045 A 
HETATM   11  C   UNL     1      26.468  47.685  50.128  1.00  0.00     0.017 A 
HETATM   12  C   UNL     1      23.890  47.744  48.948  1.00  0.00     0.066 A 
HETATM   13  N   UNL     1      23.575  45.610  50.235  1.00  0.00    -0.364 N 
HETATM   14  C   UNL     1      24.830  48.753  48.686  1.00  0.00     0.105 A 
HETATM   15  C   UNL     1      26.102  48.732  49.268  1.00  0.00     0.037 A 
HETATM   16  H   UNL     1      22.625  45.396  49.958  1.00  0.00     0.165 HD
HETATM   17  C   UNL     1      24.351  44.842  51.064  1.00  0.00     0.101 A 
BRANCH  14  18
HETATM   18  N   UNL     1      24.465  49.852  47.779  1.00  0.00    -0.116 N 
HETATM   19  O   UNL     1      25.373  50.595  47.382  1.00  0.00    -0.532 OA
HETATM   20  O   UNL     1      23.270  49.968  47.470  1.00  0.00    -0.532 OA
ENDBRANCH  14  18
ENDBRANCH   5   8
BRANCH   1  21
HETATM   21  C   UNL     1      29.640  43.063  54.508  1.00  0.00     0.273 C 
BRANCH  21  22
HETATM   22  C   UNL     1      30.246  43.745  55.702  1.00  0.00    -0.033 A 
HETATM   23  C   UNL     1      31.206  43.085  56.484  1.00  0.00     0.009 A 
HETATM   24  C   UNL     1      31.770  43.718  57.592  1.00  0.00     0.001 A 
HETATM   25  C   UNL     1      31.377  45.010  57.934  1.00  0.00     0.000 A 
HETATM   26  C   UNL     1      30.421  45.674  57.169  1.00  0.00     0.001 A 
HETATM   27  C   UNL     1      29.857  45.046  56.057  1.00  0.00     0.009 A 
ENDBRANCH  21  22
ENDBRANCH   1  21
TORSDOF 4
ENDMDL
MODEL 2
REMARK VINA RESULT:      -9.6      4.217      9.140
REMARK  4 active torsions:
REMARK  status: ('A' for Active; 'I' for Inactive)
REMARK    1  A    between atoms: C_4  and  C_5 
REMARK    2  A    between atoms: C_5  and  N_6 
REMARK    3  A    between atoms: C_10  and  C_11 
REMARK    4  A    between atoms: C_15  and  N_16 
ROOT
HETATM    1  N   UNL     1      25.227  45.965  50.425  1.00  0.00    -0.064 N 
HETATM    2  H   UNL     1      25.829  46.790  50.329  1.00  0.00     0.280 HD
HETATM    3  C   UNL     1      25.042  45.753  51.908  1.00  0.00     0.263 C 
HETATM    4  C   UNL     1      26.196  45.073  52.566  1.00  0.00     0.008 C 
HETATM    5  C   UNL     1      27.239  44.535  51.909  1.00  0.00    -0.046 C 
HETATM    6  C   UNL     1      27.316  44.598  50.404  1.00  0.00     0.067 C 
HETATM    7  C   UNL     1      25.938  44.803  49.775  1.00  0.00     0.240 C 
ENDROOT
BRANCH   5   8
HETATM    8  C   UNL     1      28.301  43.828  52.556  1.00  0.00    -0.002 A 
HETATM    9  C   UNL     1      28.934  44.119  53.806  1.00  0.00     0.003 A 
HETATM   10  C   UNL     1      29.874  43.109  54.034  1.00  0.00     0.045 A 
HETATM   11  C   UNL     1      28.805  45.142  54.773  1.00  0.00     0.017 A 
HETATM   12  C   UNL     1      30.681  43.054  55.178  1.00  0.00     0.066 A 
HETATM   13  N   UNL     1      29.818  42.249  52.961  1.00  0.00    -0.364 N 
HETATM   14  C   UNL     1      30.521  44.078  56.125  1.00  0.00     0.105 A 
HETATM   15  C   UNL     1      29.600  45.114  55.929  1.00  0.00     0.037 A 
HETATM   16  H   UNL     1      30.389  41.418  52.861  1.00  0.00     0.165 HD
HETATM   17  C   UNL     1      28.868  42.669  52.068  1.00  0.00     0.101 A 
BRANCH  14  18
HETATM   18  N   UNL     1      31.341  44.057  57.346  1.00  0.00    -0.116 N 
HETATM   19  O   UNL     1      31.123  44.928  58.199  1.00  0.00    -0.532 OA
HETATM   20  O   UNL     1      32.201  43.171  57.444  1.00  0.00    -0.532 OA
ENDBRANCH  14  18
ENDBRANCH   5   8
BRANCH   1  21
HETATM   21  C   UNL     1      23.932  46.282  49.715  1.00  0.00     0.273 C 
BRANCH  21  22
HETATM   22  C   UNL     1      23.887  47.667  49.133  1.00  0.00    -0.033 A 
HETATM   23  C   UNL     1      22.708  48.151  48.545  1.00  0.00     0.009 A 
HETATM   24  C   UNL     1      22.666  49.438  48.005  1.00  0.00     0.001 A 
HETATM   25  C   UNL     1      23.799  50.248  48.041  1.00  0.00     0.000 A 
HETATM   26  C   UNL     1      24.976  49.777  48.618  1.00  0.00     0.001 A 
HETATM   27  C   UNL     1      25.022  48.492  49.163  1.00  0.00     0.009 A 
ENDBRANCH  21  22
ENDBRANCH   1  21
TORSDOF 4
ENDMDL
MODEL 3
REMARK VINA RESULT:      -9.3      2.122      3.542
REMARK  4 active torsions:
REMARK  status: ('A' for Active; 'I' for Inactive)
REMARK    1  A    between atoms: C_4  and  C_5 
REMARK    2  A    between atoms: C_5  and  N_6 
REMARK    3  A    between atoms: C_10  and  C_11 
REMARK    4  A    between atoms: C_15  and  N_16 
ROOT
HETATM    1  N   UNL     1      27.121  45.099  51.830  1.00  0.00    -0.064 N 
HETATM    2  H   UNL     1      28.019  45.572  51.980  1.00  0.00     0.280 HD
HETATM    3  C   UNL     1      27.025  44.845  50.346  1.00  0.00     0.263 C 
HETATM    4  C   UNL     1      26.604  46.040  49.557  1.00  0.00     0.008 C 
HETATM    5  C   UNL     1      26.180  47.197  50.095  1.00  0.00    -0.046 C 
HETATM    6  C   UNL     1      26.110  47.370  51.592  1.00  0.00     0.067 C 
HETATM    7  C   UNL     1      26.030  46.025  52.314  1.00  0.00     0.240 C 
ENDROOT
BRANCH   5   8
HETATM    8  C   UNL     1      25.717  48.308  49.321  1.00  0.00    -0.002 A 
HETATM    9  C   UNL     1      24.369  48.725  49.078  1.00  0.00     0.003 A 
HETATM   10  C   UNL     1      24.435  49.893  48.313  1.00  0.00     0.045 A 
HETATM   11  C   UNL     1      23.094  48.227  49.431  1.00  0.00     0.017 A 
HETATM   12  C   UNL     1      23.300  50.601  47.893  1.00  0.00     0.066 A 
HETATM   13  N   UNL     1      25.766  50.165  48.094  1.00  0.00    -0.364 N 
HETATM   14  C   UNL     1      22.049  50.087  48.269  1.00  0.00     0.105 A 
HETATM   15  C   UNL     1      21.941  48.914  49.025  1.00  0.00     0.037 A 
HETATM   16  H   UNL     1      26.111  50.961  47.570  1.00  0.00     0.165 HD
HETATM   17  C   UNL     1      26.548  49.220  48.704  1.00  0.00     0.101 A 
BRANCH  14  18
HETATM   18  N   UNL     1      20.831  50.801  47.859  1.00  0.00    -0.116 N 
HETATM   19  O   UNL     1      20.189  50.341  46.904  1.00  0.00    -0.532 OA
HETATM   20  O   UNL     1      20.522  51.821  48.491  1.00  0.00    -0.532 OA
ENDBRANCH  14  18
ENDBRANCH   5   8
BRANCH   1  21
HETATM   21  C   UNL     1      27.157  43.824  52.640  1.00  0.00     0.273 C 
BRANCH  21  22
HETATM   22  C   UNL     1      28.392  43.681  53.484  1.00  0.00    -0.033 A 
HETATM   23  C   UNL     1      29.396  42.769  53.123  1.00  0.00     0.009 A 
HETATM   24  C   UNL     1      30.543  42.637  53.906  1.00  0.00     0.001 A 
HETATM   25  C   UNL     1      30.696  43.406  55.057  1.00  0.00     0.000 A 
HETATM   26  C   UNL     1      29.705  44.311  55.428  1.00  0.00     0.001 A 
HETATM   27  C   UNL     1      28.557  44.450  54.646  1.00  0.00     0.009 A 
ENDBRANCH  21  22
ENDBRANCH   1  21
TORSDOF 4
ENDMDL
MODEL 4
REMARK VINA RESULT:      -8.6      2.860      4.078
REMARK  4 active torsions:
REMARK  status: ('A' for Active; 'I' for Inactive)
REMARK    1  A    between atoms: C_4  and  C_5 
REMARK    2  A    between atoms: C_5  and  N_6 
REMARK    3  A    between atoms: C_10  and  C_11 
REMARK    4  A    between atoms: C_15  and  N_16 
ROOT
HETATM    1  N   UNL     1      27.864  46.143  54.925  1.00  0.00    -0.064 N 
HETATM    2  H   UNL     1      28.678  45.972  54.324  1.00  0.00     0.280 HD
HETATM    3  C   UNL     1      26.977  44.931  54.782  1.00  0.00     0.263 C 
HETATM    4  C   UNL     1      26.146  44.936  53.542  1.00  0.00     0.008 C 
HETATM    5  C   UNL     1      26.045  45.979  52.699  1.00  0.00    -0.046 C 
HETATM    6  C   UNL     1      26.804  47.256  52.959  1.00  0.00     0.067 C 
HETATM    7  C   UNL     1      27.186  47.398  54.432  1.00  0.00     0.240 C 
ENDROOT
BRANCH   5   8
HETATM    8  C   UNL     1      25.190  45.988  51.551  1.00  0.00    -0.002 A 
HETATM    9  C   UNL     1      24.612  44.874  50.862  1.00  0.00     0.003 A 
HETATM   10  C   UNL     1      23.810  45.396  49.843  1.00  0.00     0.045 A 
HETATM   11  C   UNL     1      24.689  43.469  50.999  1.00  0.00     0.017 A 
HETATM   12  C   UNL     1      23.069  44.596  48.963  1.00  0.00     0.066 A 
HETATM   13  N   UNL     1      23.906  46.767  49.907  1.00  0.00    -0.364 N 
HETATM   14  C   UNL     1      23.157  43.205  49.132  1.00  0.00     0.105 A 
HETATM   15  C   UNL     1      23.958  42.643  50.132  1.00  0.00     0.037 A 
HETATM   16  H   UNL     1      23.423  47.407  49.288  1.00  0.00     0.165 HD
HETATM   17  C   UNL     1      24.730  47.135  50.939  1.00  0.00     0.101 A 
BRANCH  14  18
HETATM   18  N   UNL     1      22.390  42.326  48.237  1.00  0.00    -0.116 N 
HETATM   19  O   UNL     1      21.712  42.860  47.349  1.00  0.00    -0.532 OA
HETATM   20  O   UNL     1      22.467  41.104  48.429  1.00  0.00    -0.532 OA
ENDBRANCH  14  18
ENDBRANCH   5   8
BRANCH   1  21
HETATM   21  C   UNL     1      28.389  46.320  56.331  1.00  0.00     0.273 C 
BRANCH  21  22
HETATM   22  C   UNL     1      29.556  45.430  56.656  1.00  0.00    -0.033 A 
HETATM   23  C   UNL     1      30.044  44.524  55.701  1.00  0.00     0.009 A 
HETATM   24  C   UNL     1      31.128  43.699  56.002  1.00  0.00     0.001 A 
HETATM   25  C   UNL     1      31.729  43.764  57.257  1.00  0.00     0.000 A 
HETATM   26  C   UNL     1      31.250  44.655  58.214  1.00  0.00     0.001 A 
HETATM   27  C   UNL     1      30.169  45.486  57.917  1.00  0.00     0.009 A 
ENDBRANCH  21  22
ENDBRANCH   1  21
TORSDOF 4
ENDMDL
MODEL 5
REMARK VINA RESULT:      -8.5      1.688      2.288
REMARK  4 active torsions:
REMARK  status: ('A' for Active; 'I' for Inactive)
REMARK    1  A    between atoms: C_4  and  C_5 
REMARK    2  A    between atoms: C_5  and  N_6 
REMARK    3  A    between atoms: C_10  and  C_11 
REMARK    4  A    between atoms: C_15  and  N_16 
ROOT
HETATM    1  N   UNL     1      27.895  45.886  54.758  1.00  0.00    -0.064 N 
HETATM    2  H   UNL     1      28.682  45.773  54.110  1.00  0.00     0.280 HD
HETATM    3  C   UNL     1      27.209  44.543  54.820  1.00  0.00     0.263 C 
HETATM    4  C   UNL     1      26.306  44.275  53.662  1.00  0.00     0.008 C 
HETATM    5  C   UNL     1      25.979  45.183  52.726  1.00  0.00    -0.046 C 
HETATM    6  C   UNL     1      26.536  46.584  52.784  1.00  0.00     0.067 C 
HETATM    7  C   UNL     1      26.990  46.955  54.196  1.00  0.00     0.240 C 
ENDROOT
BRANCH   5   8
HETATM    8  C   UNL     1      25.058  44.926  51.662  1.00  0.00    -0.002 A 
HETATM    9  C   UNL     1      24.473  45.857  50.744  1.00  0.00     0.003 A 
HETATM   10  C   UNL     1      23.687  45.116  49.857  1.00  0.00     0.045 A 
HETATM   11  C   UNL     1      24.533  47.259  50.576  1.00  0.00     0.017 A 
HETATM   12  C   UNL     1      22.967  45.695  48.802  1.00  0.00     0.066 A 
HETATM   13  N   UNL     1      23.783  43.795  50.228  1.00  0.00    -0.364 N 
HETATM   14  C   UNL     1      23.055  47.088  48.655  1.00  0.00     0.105 A 
HETATM   15  C   UNL     1      23.823  47.866  49.529  1.00  0.00     0.037 A 
HETATM   16  H   UNL     1      23.318  43.030  49.755  1.00  0.00     0.165 HD
HETATM   17  C   UNL     1      24.614  43.668  51.310  1.00  0.00     0.101 A 
BRANCH  14  18
HETATM   18  N   UNL     1      22.324  47.738  47.557  1.00  0.00    -0.116 N 
HETATM   19  O   UNL     1      22.377  48.973  47.483  1.00  0.00    -0.532 OA
HETATM   20  O   UNL     1      21.697  47.010  46.774  1.00  0.00    -0.532 OA
ENDBRANCH  14  18
ENDBRANCH   5   8
BRANCH   1  21
HETATM   21  C   UNL     1      28.478  46.305  56.087  1.00  0.00     0.273 C 
BRANCH  21  22
HETATM   22  C   UNL     1      29.612  45.434  56.550  1.00  0.00    -0.033 A 
HETATM   23  C   UNL     1      30.162  44.470  55.690  1.00  0.00     0.009 A 
HETATM   24  C   UNL     1      31.215  43.661  56.119  1.00  0.00     0.001 A 
HETATM   25  C   UNL     1      31.724  43.802  57.408  1.00  0.00     0.000 A 
HETATM   26  C   UNL     1      31.184  44.752  58.272  1.00  0.00     0.001 A 
HETATM   27  C   UNL     1      30.133  45.566  57.846  1.00  0.00     0.009 A 
ENDBRANCH  21  22
ENDBRANCH   1  21
TORSDOF 4
ENDMDL
MODEL 6
REMARK VINA RESULT:      -8.4      2.721      3.739
REMARK  4 active torsions:
REMARK  status: ('A' for Active; 'I' for Inactive)
REMARK    1  A    between atoms: C_4  and  C_5 
REMARK    2  A    between atoms: C_5  and  N_6 
REMARK    3  A    between atoms: C_10  and  C_11 
REMARK    4  A    between atoms: C_15  and  N_16 
ROOT
HETATM    1  N   UNL     1      27.548  44.325  52.544  1.00  0.00    -0.064 N 
HETATM    2  H   UNL     1      27.965  45.239  52.753  1.00  0.00     0.280 HD
HETATM    3  C   UNL     1      27.673  44.141  51.052  1.00  0.00     0.263 C 
HETATM    4  C   UNL     1      26.635  44.871  50.266  1.00  0.00     0.008 C 
HETATM    5  C   UNL     1      25.576  45.501  50.805  1.00  0.00    -0.046 C 
HETATM    6  C   UNL     1      25.369  45.518  52.300  1.00  0.00     0.067 C 
HETATM    7  C   UNL     1      26.106  44.368  52.987  1.00  0.00     0.240 C 
ENDROOT
BRANCH   5   8
HETATM    8  C   UNL     1      24.555  46.137  50.031  1.00  0.00    -0.002 A 
HETATM    9  C   UNL     1      23.479  45.532  49.306  1.00  0.00     0.003 A 
HETATM   10  C   UNL     1      22.719  46.571  48.761  1.00  0.00     0.045 A 
HETATM   11  C   UNL     1      23.070  44.202  49.056  1.00  0.00     0.017 A 
HETATM   12  C   UNL     1      21.566  46.358  47.992  1.00  0.00     0.066 A 
HETATM   13  N   UNL     1      23.316  47.754  49.131  1.00  0.00    -0.364 N 
HETATM   14  C   UNL     1      21.180  45.027  47.772  1.00  0.00     0.105 A 
HETATM   15  C   UNL     1      21.920  43.958  48.291  1.00  0.00     0.037 A 
HETATM   16  H   UNL     1      22.974  48.674  48.879  1.00  0.00     0.165 HD
HETATM   17  C   UNL     1      24.420  47.504  49.904  1.00  0.00     0.101 A 
BRANCH  14  18
HETATM   18  N   UNL     1      19.972  44.755  46.978  1.00  0.00    -0.116 N 
HETATM   19  O   UNL     1      19.993  45.056  45.778  1.00  0.00    -0.532 OA
HETATM   20  O   UNL     1      19.006  44.242  47.562  1.00  0.00    -0.532 OA
ENDBRANCH  14  18
ENDBRANCH   5   8
BRANCH   1  21
HETATM   21  C   UNL     1      28.331  43.297  53.326  1.00  0.00     0.273 C 
BRANCH  21  22
HETATM   22  C   UNL     1      29.149  43.883  54.443  1.00  0.00    -0.033 A 
HETATM   23  C   UNL     1      28.811  45.130  54.990  1.00  0.00     0.009 A 
HETATM   24  C   UNL     1      29.569  45.675  56.027  1.00  0.00     0.001 A 
HETATM   25  C   UNL     1      30.673  44.984  56.522  1.00  0.00     0.000 A 
HETATM   26  C   UNL     1      31.021  43.747  55.985  1.00  0.00     0.001 A 
HETATM   27  C   UNL     1      30.263  43.197  54.950  1.00  0.00     0.009 A 
ENDBRANCH  21  22
ENDBRANCH   1  21
TORSDOF 4
ENDMDL
MODEL 7
REMARK VINA RESULT:      -8.3      4.310      9.624
REMARK  4 active torsions:
REMARK  status: ('A' for Active; 'I' for Inactive)
REMARK    1  A    between atoms: C_4  and  C_5 
REMARK    2  A    between atoms: C_5  and  N_6 
REMARK    3  A    between atoms: C_10  and  C_11 
REMARK    4  A    between atoms: C_15  and  N_16 
ROOT
HETATM    1  N   UNL     1      22.469  48.785  48.784  1.00  0.00    -0.064 N 
HETATM    2  H   UNL     1      22.193  49.016  49.745  1.00  0.00     0.280 HD
HETATM    3  C   UNL     1      22.140  47.325  48.595  1.00  0.00     0.263 C 
HETATM    4  C   UNL     1      23.153  46.399  49.183  1.00  0.00     0.008 C 
HETATM    5  C   UNL     1      24.338  46.788  49.687  1.00  0.00    -0.046 C 
HETATM    6  C   UNL     1      24.728  48.245  49.701  1.00  0.00     0.067 C 
HETATM    7  C   UNL     1      23.950  49.049  48.658  1.00  0.00     0.240 C 
ENDROOT
BRANCH   5   8
HETATM    8  C   UNL     1      25.324  45.878  50.183  1.00  0.00    -0.002 A 
HETATM    9  C   UNL     1      25.948  45.856  51.472  1.00  0.00     0.003 A 
HETATM   10  C   UNL     1      26.796  44.745  51.496  1.00  0.00     0.045 A 
HETATM   11  C   UNL     1      25.879  46.671  52.625  1.00  0.00     0.017 A 
HETATM   12  C   UNL     1      27.569  44.393  52.611  1.00  0.00     0.066 A 
HETATM   13  N   UNL     1      26.697  44.127  50.270  1.00  0.00    -0.364 N 
HETATM   14  C   UNL     1      27.470  45.215  53.744  1.00  0.00     0.105 A 
HETATM   15  C   UNL     1      26.641  46.343  53.756  1.00  0.00     0.037 A 
HETATM   16  H   UNL     1      27.201  43.288  50.008  1.00  0.00     0.165 HD
HETATM   17  C   UNL     1      25.806  44.797  49.474  1.00  0.00     0.101 A 
BRANCH  14  18
HETATM   18  N   UNL     1      28.256  44.880  54.941  1.00  0.00    -0.116 N 
HETATM   19  O   UNL     1      28.064  45.554  55.962  1.00  0.00    -0.532 OA
HETATM   20  O   UNL     1      29.064  43.944  54.854  1.00  0.00    -0.532 OA
ENDBRANCH  14  18
ENDBRANCH   5   8
BRANCH   1  21
HETATM   21  C   UNL     1      21.672  49.686  47.870  1.00  0.00     0.273 C 
BRANCH  21  22
HETATM   22  C   UNL     1      20.552  50.410  48.563  1.00  0.00    -0.033 A 
HETATM   23  C   UNL     1      19.907  49.828  49.665  1.00  0.00     0.009 A 
HETATM   24  C   UNL     1      18.868  50.501  50.310  1.00  0.00     0.001 A 
HETATM   25  C   UNL     1      18.460  51.753  49.858  1.00  0.00     0.000 A 
HETATM   26  C   UNL     1      19.089  52.339  48.762  1.00  0.00     0.001 A 
HETATM   27  C   UNL     1      20.132  51.672  48.116  1.00  0.00     0.009 A 
ENDBRANCH  21  22
ENDBRANCH   1  21
TORSDOF 4
ENDMDL
MODEL 8
REMARK VINA RESULT:      -8.3      4.736      8.934
REMARK  4 active torsions:
REMARK  status: ('A' for Active; 'I' for Inactive)
REMARK    1  A    between atoms: C_4  and  C_5 
REMARK    2  A    between atoms: C_5  and  N_6 
REMARK    3  A    between atoms: C_10  and  C_11 
REMARK    4  A    between atoms: C_15  and  N_16 
ROOT
HETATM    1  N   UNL     1      25.233  45.010  50.721  1.00  0.00    -0.064 N 
HETATM    2  H   UNL     1      26.061  44.511  50.379  1.00  0.00     0.280 HD
HETATM    3  C   UNL     1      25.652  46.450  50.888  1.00  0.00     0.263 C 
HETATM    4  C   UNL     1      26.413  46.713  52.145  1.00  0.00     0.008 C 
HETATM    5  C   UNL     1      26.579  45.818  53.135  1.00  0.00    -0.046 C 
HETATM    6  C   UNL     1      25.993  44.432  53.027  1.00  0.00     0.067 C 
HETATM    7  C   UNL     1      24.831  44.385  52.035  1.00  0.00     0.240 C 
ENDROOT
BRANCH   5   8
HETATM    8  C   UNL     1      27.255  46.112  54.362  1.00  0.00    -0.002 A 
HETATM    9  C   UNL     1      28.340  45.405  54.972  1.00  0.00     0.003 A 
HETATM   10  C   UNL     1      28.688  46.112  56.128  1.00  0.00     0.045 A 
HETATM   11  C   UNL     1      29.067  44.234  54.660  1.00  0.00     0.017 A 
HETATM   12  C   UNL     1      29.730  45.722  56.981  1.00  0.00     0.066 A 
HETATM   13  N   UNL     1      27.842  47.193  56.218  1.00  0.00    -0.364 N 
HETATM   14  C   UNL     1      30.439  44.561  56.639  1.00  0.00     0.105 A 
HETATM   15  C   UNL     1      30.114  43.819  55.497  1.00  0.00     0.037 A 
HETATM   16  H   UNL     1      27.870  47.884  56.957  1.00  0.00     0.165 HD
HETATM   17  C   UNL     1      26.979  47.207  55.154  1.00  0.00     0.101 A 
BRANCH  14  18
HETATM   18  N   UNL     1      31.545  44.118  57.500  1.00  0.00    -0.116 N 
HETATM   19  O   UNL     1      32.247  43.180  57.098  1.00  0.00    -0.532 OA
HETATM   20  O   UNL     1      31.706  44.710  58.577  1.00  0.00    -0.532 OA
ENDBRANCH  14  18
ENDBRANCH   5   8
BRANCH   1  21
HETATM   21  C   UNL     1      24.154  44.834  49.678  1.00  0.00     0.273 C 
BRANCH  21  22
HETATM   22  C   UNL     1      24.117  43.458  49.075  1.00  0.00    -0.033 A 
HETATM   23  C   UNL     1      22.897  42.887  48.684  1.00  0.00     0.009 A 
HETATM   24  C   UNL     1      22.863  41.610  48.123  1.00  0.00     0.001 A 
HETATM   25  C   UNL     1      24.043  40.890  47.954  1.00  0.00     0.000 A 
HETATM   26  C   UNL     1      25.260  41.443  48.343  1.00  0.00     0.001 A 
HETATM   27  C   UNL     1      25.300  42.722  48.900  1.00  0.00     0.009 A 
ENDBRANCH  21  22
ENDBRANCH   1  21
TORSDOF 4
ENDMDL
MODEL 9
REMARK VINA RESULT:      -8.2      7.110     10.886
REMARK  4 active torsions:
REMARK  status: ('A' for Active; 'I' for Inactive)
REMARK    1  A    between atoms: C_4  and  C_5 
REMARK    2  A    between atoms: C_5  and  N_6 
REMARK    3  A    between atoms: C_10  and  C_11 
REMARK    4  A    between atoms: C_15  and  N_16 
ROOT
HETATM    1  N   UNL     1      21.627  49.405  48.498  1.00  0.00    -0.064 N 
HETATM    2  H   UNL     1      22.163  49.903  47.780  1.00  0.00     0.280 HD
HETATM    3  C   UNL     1      20.567  48.623  47.761  1.00  0.00     0.263 C 
HETATM    4  C   UNL     1      19.389  49.443  47.352  1.00  0.00     0.008 C 
HETATM    5  C   UNL     1      19.179  50.716  47.733  1.00  0.00    -0.046 C 
HETATM    6  C   UNL     1      20.166  51.426  48.625  1.00  0.00     0.067 C 
HETATM    7  C   UNL     1      21.024  50.440  49.418  1.00  0.00     0.240 C 
ENDROOT
BRANCH   5   8
HETATM    8  C   UNL     1      18.009  51.463  47.385  1.00  0.00    -0.002 A 
HETATM    9  C   UNL     1      16.973  51.949  48.245  1.00  0.00     0.003 A 
HETATM   10  C   UNL     1      16.081  52.668  47.444  1.00  0.00     0.045 A 
HETATM   11  C   UNL     1      16.701  51.851  49.629  1.00  0.00     0.017 A 
HETATM   12  C   UNL     1      14.940  53.307  47.949  1.00  0.00     0.066 A 
HETATM   13  N   UNL     1      16.552  52.611  46.153  1.00  0.00    -0.364 N 
HETATM   14  C   UNL     1      14.703  53.201  49.328  1.00  0.00     0.105 A 
HETATM   15  C   UNL     1      15.566  52.481  50.162  1.00  0.00     0.037 A 
HETATM   16  H   UNL     1      16.104  53.051  45.358  1.00  0.00     0.165 HD
HETATM   17  C   UNL     1      17.718  51.893  46.107  1.00  0.00     0.101 A 
BRANCH  14  18
HETATM   18  N   UNL     1      13.523  53.863  49.904  1.00  0.00    -0.116 N 
HETATM   19  O   UNL     1      12.856  54.597  49.162  1.00  0.00    -0.532 OA
HETATM   20  O   UNL     1      13.270  53.648  51.098  1.00  0.00    -0.532 OA
ENDBRANCH  14  18
ENDBRANCH   5   8
BRANCH   1  21
HETATM   21  C   UNL     1      22.600  48.517  49.236  1.00  0.00     0.273 C 
BRANCH  21  22
HETATM   22  C   UNL     1      24.041  48.864  48.987  1.00  0.00    -0.033 A 
HETATM   23  C   UNL     1      24.378  49.890  48.091  1.00  0.00     0.009 A 
HETATM   24  C   UNL     1      25.716  50.214  47.860  1.00  0.00     0.001 A 
HETATM   25  C   UNL     1      26.727  49.514  48.515  1.00  0.00     0.000 A 
HETATM   26  C   UNL     1      26.405  48.490  49.402  1.00  0.00     0.001 A 
HETATM   27  C   UNL     1      25.069  48.166  49.640  1.00  0.00     0.009 A 
ENDBRANCH  21  22
ENDBRANCH   1  21
TORSDOF 4
ENDMDL
MODEL 10
REMARK VINA RESULT:      -8.0      5.134      6.610
REMARK  4 active torsions:
REMARK  status: ('A' for Active; 'I' for Inactive)
REMARK    1  A    between atoms: C_4  and  C_5 
REMARK    2  A    between atoms: C_5  and  N_6 
REMARK    3  A    between atoms: C_10  and  C_11 
REMARK    4  A    between atoms: C_15  and  N_16 
ROOT
HETATM    1  N   UNL     1      28.380  44.620  53.941  1.00  0.00    -0.064 N 
HETATM    2  H   UNL     1      29.306  44.511  53.512  1.00  0.00     0.280 HD
HETATM    3  C   UNL     1      27.962  43.242  54.390  1.00  0.00     0.263 C 
HETATM    4  C   UNL     1      27.427  42.387  53.290  1.00  0.00     0.008 C 
HETATM    5  C   UNL     1      27.169  42.822  52.045  1.00  0.00    -0.046 C 
HETATM    6  C   UNL     1      27.425  44.259  51.663  1.00  0.00     0.067 C 
HETATM    7  C   UNL     1      27.451  45.174  52.887  1.00  0.00     0.240 C 
ENDROOT
BRANCH   5   8
HETATM    8  C   UNL     1      26.593  42.003  51.023  1.00  0.00    -0.002 A 
HETATM    9  C   UNL     1      27.156  40.855  50.377  1.00  0.00     0.003 A 
HETATM   10  C   UNL     1      26.188  40.367  49.495  1.00  0.00     0.045 A 
HETATM   11  C   UNL     1      28.395  40.179  50.453  1.00  0.00     0.017 A 
HETATM   12  C   UNL     1      26.382  39.233  48.694  1.00  0.00     0.066 A 
HETATM   13  N   UNL     1      25.089  41.190  49.595  1.00  0.00    -0.364 N 
HETATM   14  C   UNL     1      27.618  38.577  48.800  1.00  0.00     0.105 A 
HETATM   15  C   UNL     1      28.617  39.041  49.663  1.00  0.00     0.037 A 
HETATM   16  H   UNL     1      24.232  41.069  49.070  1.00  0.00     0.165 HD
HETATM   17  C   UNL     1      25.320  42.174  50.520  1.00  0.00     0.101 A 
BRANCH  14  18
HETATM   18  N   UNL     1      27.863  37.377  47.985  1.00  0.00    -0.116 N 
HETATM   19  O   UNL     1      27.087  36.422  48.122  1.00  0.00    -0.532 OA
HETATM   20  O   UNL     1      28.833  37.396  47.214  1.00  0.00    -0.532 OA
ENDBRANCH  14  18
ENDBRANCH   5   8
BRANCH   1  21
HETATM   21  C   UNL     1      28.541  45.586  55.091  1.00  0.00     0.273 C 
BRANCH  21  22
HETATM   22  C   UNL     1      29.576  45.160  56.095  1.00  0.00    -0.033 A 
HETATM   23  C   UNL     1      29.608  45.744  57.371  1.00  0.00     0.009 A 
HETATM   24  C   UNL     1      30.568  45.348  58.303  1.00  0.00     0.001 A 
HETATM   25  C   UNL     1      31.506  44.373  57.970  1.00  0.00     0.000 A 
HETATM   26  C   UNL     1      31.487  43.791  56.705  1.00  0.00     0.001 A 
HETATM   27  C   UNL     1      30.526  44.180  55.770  1.00  0.00     0.009 A 
ENDBRANCH  21  22
ENDBRANCH   1  21
TORSDOF 4
ENDMDL
