MODEL 1
REMARK VINA RESULT:      -8.1      0.000      0.000
REMARK  4 active torsions:
REMARK  status: ('A' for Active; 'I' for Inactive)
REMARK    1  A    between atoms: C_4  and  N_5 
REMARK    2  A    between atoms: N_5  and  N_6 
REMARK    3  A    between atoms: C_7  and  C_8 
REMARK    4  A    between atoms: C_9  and  O_10 
ROOT
HETATM    1  N   UNL     1      28.096  42.029  52.352  1.00  0.00    -0.172 NA
HETATM    2  C   UNL     1      28.387  41.939  53.614  1.00  0.00     0.153 C 
ENDROOT
BRANCH   1   3
HETATM    3  N   UNL     1      27.647  40.867  51.798  1.00  0.00    -0.108 N 
HETATM    4  H   UNL     1      26.828  40.384  52.164  1.00  0.00     0.208 HD
BRANCH   3   5
HETATM    5  C   UNL     1      28.204  40.212  50.730  1.00  0.00     0.723 A 
HETATM    6  N   UNL     1      27.960  40.605  49.515  1.00  0.00    -0.068 NA
HETATM    7  C   UNL     1      28.541  39.903  48.485  1.00  0.00     0.055 A 
HETATM    8  C   UNL     1      28.217  40.384  47.099  1.00  0.00     0.071 C 
HETATM    9  C   UNL     1      29.340  38.842  48.660  1.00  0.00     0.102 A 
HETATM   10  C   UNL     1      29.621  38.408  50.034  1.00  0.00     0.261 A 
HETATM   11  N   UNL     1      29.012  39.145  51.001  1.00  0.00    -0.153 N 
HETATM   12  O   UNL     1      30.351  37.453  50.267  1.00  0.00    -0.268 OA
HETATM   13  H   UNL     1      29.164  38.895  51.963  1.00  0.00     0.187 HD
ENDBRANCH   3   5
ENDBRANCH   1   3
BRANCH   2  14
HETATM   14  C   UNL     1      28.886  43.100  54.383  1.00  0.00     0.019 A 
HETATM   15  C   UNL     1      28.298  44.371  54.297  1.00  0.00     0.094 A 
HETATM   16  C   UNL     1      28.819  45.427  55.054  1.00  0.00     0.046 A 
HETATM   17 BR   UNL     1      28.067  47.168  54.980  1.00  0.00    -0.048 Br
HETATM   18  C   UNL     1      29.917  45.220  55.892  1.00  0.00     0.041 A 
HETATM   19  C   UNL     1      30.493  43.954  55.970  1.00  0.00     0.013 A 
HETATM   20 BR   UNL     1      31.979  43.671  57.104  1.00  0.00    -0.051 Br
HETATM   21  C   UNL     1      29.987  42.892  55.222  1.00  0.00     0.035 A 
BRANCH  15  22
HETATM   22  O   UNL     1      27.219  44.612  53.486  1.00  0.00    -0.358 OA
HETATM   23  H   UNL     1      26.752  43.763  53.342  1.00  0.00     0.218 HD
ENDBRANCH  15  22
ENDBRANCH   2  14
TORSDOF 4
ENDMDL
MODEL 2
REMARK VINA RESULT:      -7.9      6.628      8.317
REMARK  4 active torsions:
REMARK  status: ('A' for Active; 'I' for Inactive)
REMARK    1  A    between atoms: C_4  and  N_5 
REMARK    2  A    between atoms: N_5  and  N_6 
REMARK    3  A    between atoms: C_7  and  C_8 
REMARK    4  A    between atoms: C_9  and  O_10 
ROOT
HETATM    1  N   UNL     1      24.965  47.261  51.290  1.00  0.00    -0.172 NA
HETATM    2  C   UNL     1      25.183  45.998  51.499  1.00  0.00     0.153 C 
ENDROOT
BRANCH   1   3
HETATM    3  N   UNL     1      23.936  47.516  50.431  1.00  0.00    -0.108 N 
HETATM    4  H   UNL     1      23.138  46.887  50.355  1.00  0.00     0.208 HD
BRANCH   3   5
HETATM    5  C   UNL     1      23.835  48.591  49.587  1.00  0.00     0.723 A 
HETATM    6  N   UNL     1      22.718  49.249  49.488  1.00  0.00    -0.068 NA
HETATM    7  C   UNL     1      22.675  50.313  48.618  1.00  0.00     0.055 A 
HETATM    8  C   UNL     1      21.359  51.032  48.525  1.00  0.00     0.071 C 
HETATM    9  C   UNL     1      23.713  50.710  47.870  1.00  0.00     0.102 A 
HETATM   10  C   UNL     1      24.976  49.971  47.994  1.00  0.00     0.261 A 
HETATM   11  N   UNL     1      24.945  48.931  48.868  1.00  0.00    -0.153 N 
HETATM   12  O   UNL     1      25.968  50.287  47.348  1.00  0.00    -0.268 OA
HETATM   13  H   UNL     1      25.780  48.385  48.994  1.00  0.00     0.187 HD
ENDBRANCH   3   5
ENDBRANCH   1   3
BRANCH   2  14
HETATM   14  C   UNL     1      26.256  45.533  52.404  1.00  0.00     0.019 A 
HETATM   15  C   UNL     1      26.604  46.219  53.578  1.00  0.00     0.094 A 
HETATM   16  C   UNL     1      27.628  45.722  54.392  1.00  0.00     0.046 A 
HETATM   17 BR   UNL     1      28.143  46.604  55.991  1.00  0.00    -0.048 Br
HETATM   18  C   UNL     1      28.304  44.551  54.040  1.00  0.00     0.041 A 
HETATM   19  C   UNL     1      27.951  43.877  52.872  1.00  0.00     0.013 A 
HETATM   20 BR   UNL     1      28.863  42.292  52.395  1.00  0.00    -0.051 Br
HETATM   21  C   UNL     1      26.933  44.359  52.051  1.00  0.00     0.035 A 
BRANCH  15  22
HETATM   22  O   UNL     1      25.963  47.370  53.955  1.00  0.00    -0.358 OA
HETATM   23  H   UNL     1      25.004  47.180  54.011  1.00  0.00     0.218 HD
ENDBRANCH  15  22
ENDBRANCH   2  14
TORSDOF 4
ENDMDL
MODEL 3
REMARK VINA RESULT:      -7.9      5.513      7.231
REMARK  4 active torsions:
REMARK  status: ('A' for Active; 'I' for Inactive)
REMARK    1  A    between atoms: C_4  and  N_5 
REMARK    2  A    between atoms: N_5  and  N_6 
REMARK    3  A    between atoms: C_7  and  C_8 
REMARK    4  A    between atoms: C_9  and  O_10 
ROOT
HETATM    1  N   UNL     1      25.943  45.923  51.415  1.00  0.00    -0.172 NA
HETATM    2  C   UNL     1      26.204  46.031  52.682  1.00  0.00     0.153 C 
ENDROOT
BRANCH   1   3
HETATM    3  N   UNL     1      25.044  46.836  50.948  1.00  0.00    -0.108 N 
HETATM    4  H   UNL     1      24.065  46.810  51.229  1.00  0.00     0.208 HD
BRANCH   3   5
HETATM    5  C   UNL     1      25.309  47.860  50.077  1.00  0.00     0.723 A 
HETATM    6  N   UNL     1      24.338  48.489  49.483  1.00  0.00    -0.068 NA
HETATM    7  C   UNL     1      24.667  49.502  48.613  1.00  0.00     0.055 A 
HETATM    8  C   UNL     1      23.513  50.189  47.939  1.00  0.00     0.071 C 
HETATM    9  C   UNL     1      25.924  49.877  48.342  1.00  0.00     0.102 A 
HETATM   10  C   UNL     1      27.017  49.171  49.024  1.00  0.00     0.261 A 
HETATM   11  N   UNL     1      26.619  48.181  49.865  1.00  0.00    -0.153 N 
HETATM   12  O   UNL     1      28.189  49.470  48.832  1.00  0.00    -0.268 OA
HETATM   13  H   UNL     1      27.323  47.659  50.359  1.00  0.00     0.187 HD
ENDBRANCH   3   5
ENDBRANCH   1   3
BRANCH   2  14
HETATM   14  C   UNL     1      27.158  45.128  53.361  1.00  0.00     0.019 A 
HETATM   15  C   UNL     1      27.291  43.774  53.017  1.00  0.00     0.094 A 
HETATM   16  C   UNL     1      28.216  42.975  53.699  1.00  0.00     0.046 A 
HETATM   17 BR   UNL     1      28.441  41.138  53.280  1.00  0.00    -0.048 Br
HETATM   18  C   UNL     1      29.004  43.519  54.716  1.00  0.00     0.041 A 
HETATM   19  C   UNL     1      28.864  44.864  55.049  1.00  0.00     0.013 A 
HETATM   20 BR   UNL     1      29.930  45.603  56.424  1.00  0.00    -0.051 Br
HETATM   21  C   UNL     1      27.947  45.674  54.380  1.00  0.00     0.035 A 
BRANCH  15  22
HETATM   22  O   UNL     1      26.535  43.206  52.025  1.00  0.00    -0.358 OA
HETATM   23  H   UNL     1      25.859  43.859  51.746  1.00  0.00     0.218 HD
ENDBRANCH  15  22
ENDBRANCH   2  14
TORSDOF 4
ENDMDL
MODEL 4
REMARK VINA RESULT:      -7.7      5.820      7.728
REMARK  4 active torsions:
REMARK  status: ('A' for Active; 'I' for Inactive)
REMARK    1  A    between atoms: C_4  and  N_5 
REMARK    2  A    between atoms: N_5  and  N_6 
REMARK    3  A    between atoms: C_7  and  C_8 
REMARK    4  A    between atoms: C_9  and  O_10 
ROOT
HETATM    1  N   UNL     1      25.446  45.914  51.263  1.00  0.00    -0.172 NA
HETATM    2  C   UNL     1      25.393  45.549  52.508  1.00  0.00     0.153 C 
ENDROOT
BRANCH   1   3
HETATM    3  N   UNL     1      24.323  46.545  50.817  1.00  0.00    -0.108 N 
HETATM    4  H   UNL     1      23.392  46.206  51.054  1.00  0.00     0.208 HD
BRANCH   3   5
HETATM    5  C   UNL     1      24.284  47.662  50.023  1.00  0.00     0.723 A 
HETATM    6  N   UNL     1      25.386  48.205  49.595  1.00  0.00    -0.068 NA
HETATM    7  C   UNL     1      25.283  49.329  48.809  1.00  0.00     0.055 A 
HETATM    8  C   UNL     1      26.582  49.930  48.352  1.00  0.00     0.071 C 
HETATM    9  C   UNL     1      24.120  49.895  48.461  1.00  0.00     0.102 A 
HETATM   10  C   UNL     1      22.879  49.272  48.937  1.00  0.00     0.261 A 
HETATM   11  N   UNL     1      23.055  48.168  49.711  1.00  0.00    -0.153 N 
HETATM   12  O   UNL     1      21.781  49.730  48.648  1.00  0.00    -0.268 OA
HETATM   13  H   UNL     1      22.241  47.699  50.070  1.00  0.00     0.187 HD
ENDBRANCH   3   5
ENDBRANCH   1   3
BRANCH   2  14
HETATM   14  C   UNL     1      26.521  44.854  53.165  1.00  0.00     0.019 A 
HETATM   15  C   UNL     1      26.838  43.513  52.901  1.00  0.00     0.094 A 
HETATM   16  C   UNL     1      27.921  42.916  53.556  1.00  0.00     0.046 A 
HETATM   17 BR   UNL     1      28.398  41.107  53.241  1.00  0.00    -0.048 Br
HETATM   18  C   UNL     1      28.684  43.648  54.468  1.00  0.00     0.041 A 
HETATM   19  C   UNL     1      28.362  44.979  54.723  1.00  0.00     0.013 A 
HETATM   20 BR   UNL     1      29.394  45.972  55.956  1.00  0.00    -0.051 Br
HETATM   21  C   UNL     1      27.286  45.589  54.079  1.00  0.00     0.035 A 
BRANCH  15  22
HETATM   22  O   UNL     1      26.112  42.764  52.012  1.00  0.00    -0.358 OA
HETATM   23  H   UNL     1      25.181  42.749  52.317  1.00  0.00     0.218 HD
ENDBRANCH  15  22
ENDBRANCH   2  14
TORSDOF 4
ENDMDL
MODEL 5
REMARK VINA RESULT:      -7.6      2.132      2.542
REMARK  4 active torsions:
REMARK  status: ('A' for Active; 'I' for Inactive)
REMARK    1  A    between atoms: C_4  and  N_5 
REMARK    2  A    between atoms: N_5  and  N_6 
REMARK    3  A    between atoms: C_7  and  C_8 
REMARK    4  A    between atoms: C_9  and  O_10 
ROOT
HETATM    1  N   UNL     1      27.529  41.815  53.019  1.00  0.00    -0.172 NA
HETATM    2  C   UNL     1      28.766  42.147  53.229  1.00  0.00     0.153 C 
ENDROOT
BRANCH   1   3
HETATM    3  N   UNL     1      27.366  40.794  52.130  1.00  0.00    -0.108 N 
HETATM    4  H   UNL     1      27.564  39.828  52.387  1.00  0.00     0.208 HD
BRANCH   3   5
HETATM    5  C   UNL     1      26.944  40.912  50.831  1.00  0.00     0.723 A 
HETATM    6  N   UNL     1      27.777  40.733  49.848  1.00  0.00    -0.068 NA
HETATM    7  C   UNL     1      27.297  40.874  48.568  1.00  0.00     0.055 A 
HETATM    8  C   UNL     1      28.299  40.674  47.466  1.00  0.00     0.071 C 
HETATM    9  C   UNL     1      26.027  41.183  48.275  1.00  0.00     0.102 A 
HETATM   10  C   UNL     1      25.088  41.373  49.387  1.00  0.00     0.261 A 
HETATM   11  N   UNL     1      25.631  41.223  50.624  1.00  0.00    -0.153 N 
HETATM   12  O   UNL     1      23.910  41.646  49.191  1.00  0.00    -0.268 OA
HETATM   13  H   UNL     1      25.038  41.343  51.427  1.00  0.00     0.187 HD
ENDBRANCH   3   5
ENDBRANCH   1   3
BRANCH   2  14
HETATM   14  C   UNL     1      29.134  43.231  54.165  1.00  0.00     0.019 A 
HETATM   15  C   UNL     1      28.501  44.484  54.155  1.00  0.00     0.094 A 
HETATM   16  C   UNL     1      28.897  45.466  55.070  1.00  0.00     0.046 A 
HETATM   17 BR   UNL     1      28.079  47.178  55.106  1.00  0.00    -0.048 Br
HETATM   18  C   UNL     1      29.915  45.204  55.989  1.00  0.00     0.041 A 
HETATM   19  C   UNL     1      30.537  43.957  55.991  1.00  0.00     0.013 A 
HETATM   20 BR   UNL     1      31.915  43.601  57.235  1.00  0.00    -0.051 Br
HETATM   21  C   UNL     1      30.155  42.968  55.086  1.00  0.00     0.035 A 
BRANCH  15  22
HETATM   22  O   UNL     1      27.498  44.776  53.268  1.00  0.00    -0.358 OA
HETATM   23  H   UNL     1      26.778  45.223  53.760  1.00  0.00     0.218 HD
ENDBRANCH  15  22
ENDBRANCH   2  14
TORSDOF 4
ENDMDL
MODEL 6
REMARK VINA RESULT:      -7.5      1.169      2.457
REMARK  4 active torsions:
REMARK  status: ('A' for Active; 'I' for Inactive)
REMARK    1  A    between atoms: C_4  and  N_5 
REMARK    2  A    between atoms: N_5  and  N_6 
REMARK    3  A    between atoms: C_7  and  C_8 
REMARK    4  A    between atoms: C_9  and  O_10 
ROOT
HETATM    1  N   UNL     1      27.857  41.659  52.824  1.00  0.00    -0.172 NA
HETATM    2  C   UNL     1      27.351  42.855  52.816  1.00  0.00     0.153 C 
ENDROOT
BRANCH   1   3
HETATM    3  N   UNL     1      27.314  40.816  51.900  1.00  0.00    -0.108 N 
HETATM    4  H   UNL     1      26.334  40.544  51.939  1.00  0.00     0.208 HD
BRANCH   3   5
HETATM    5  C   UNL     1      27.974  40.239  50.846  1.00  0.00     0.723 A 
HETATM    6  N   UNL     1      27.781  40.666  49.633  1.00  0.00    -0.068 NA
HETATM    7  C   UNL     1      28.464  40.041  48.617  1.00  0.00     0.055 A 
HETATM    8  C   UNL     1      28.197  40.558  47.232  1.00  0.00     0.071 C 
HETATM    9  C   UNL     1      29.315  39.022  48.803  1.00  0.00     0.102 A 
HETATM   10  C   UNL     1      29.539  38.551  50.175  1.00  0.00     0.261 A 
HETATM   11  N   UNL     1      28.828  39.211  51.128  1.00  0.00    -0.153 N 
HETATM   12  O   UNL     1      30.310  37.632  50.419  1.00  0.00    -0.268 OA
HETATM   13  H   UNL     1      28.936  38.931  52.088  1.00  0.00     0.187 HD
ENDBRANCH   3   5
ENDBRANCH   1   3
BRANCH   2  14
HETATM   14  C   UNL     1      27.819  43.905  53.747  1.00  0.00     0.019 A 
HETATM   15  C   UNL     1      28.967  43.754  54.539  1.00  0.00     0.094 A 
HETATM   16  C   UNL     1      29.356  44.789  55.398  1.00  0.00     0.046 A 
HETATM   17 BR   UNL     1      30.899  44.644  56.493  1.00  0.00    -0.048 Br
HETATM   18  C   UNL     1      28.607  45.965  55.469  1.00  0.00     0.041 A 
HETATM   19  C   UNL     1      27.468  46.105  54.678  1.00  0.00     0.013 A 
HETATM   20 BR   UNL     1      26.454  47.697  54.772  1.00  0.00    -0.051 Br
HETATM   21  C   UNL     1      27.068  45.084  53.818  1.00  0.00     0.035 A 
BRANCH  15  22
HETATM   22  O   UNL     1      29.727  42.614  54.496  1.00  0.00    -0.358 OA
HETATM   23  H   UNL     1      30.335  42.684  53.731  1.00  0.00     0.218 HD
ENDBRANCH  15  22
ENDBRANCH   2  14
TORSDOF 4
ENDMDL
MODEL 7
REMARK VINA RESULT:      -7.4      1.734      2.081
REMARK  4 active torsions:
REMARK  status: ('A' for Active; 'I' for Inactive)
REMARK    1  A    between atoms: C_4  and  N_5 
REMARK    2  A    between atoms: N_5  and  N_6 
REMARK    3  A    between atoms: C_7  and  C_8 
REMARK    4  A    between atoms: C_9  and  O_10 
ROOT
HETATM    1  N   UNL     1      28.796  41.284  51.848  1.00  0.00    -0.172 NA
HETATM    2  C   UNL     1      28.820  41.320  53.145  1.00  0.00     0.153 C 
ENDROOT
BRANCH   1   3
HETATM    3  N   UNL     1      28.698  40.028  51.325  1.00  0.00    -0.108 N 
HETATM    4  H   UNL     1      28.885  39.201  51.888  1.00  0.00     0.208 HD
BRANCH   3   5
HETATM    5  C   UNL     1      28.361  39.714  50.034  1.00  0.00     0.723 A 
HETATM    6  N   UNL     1      27.815  38.567  49.755  1.00  0.00    -0.068 NA
HETATM    7  C   UNL     1      27.506  38.306  48.441  1.00  0.00     0.055 A 
HETATM    8  C   UNL     1      26.892  36.963  48.166  1.00  0.00     0.071 C 
HETATM    9  C   UNL     1      27.735  39.161  47.435  1.00  0.00     0.102 A 
HETATM   10  C   UNL     1      28.341  40.459  47.755  1.00  0.00     0.261 A 
HETATM   11  N   UNL     1      28.622  40.647  49.072  1.00  0.00    -0.153 N 
HETATM   12  O   UNL     1      28.567  41.292  46.887  1.00  0.00    -0.268 OA
HETATM   13  H   UNL     1      29.042  41.517  49.353  1.00  0.00     0.187 HD
ENDBRANCH   3   5
ENDBRANCH   1   3
BRANCH   2  14
HETATM   14  C   UNL     1      28.920  42.595  53.888  1.00  0.00     0.019 A 
HETATM   15  C   UNL     1      28.029  43.659  53.682  1.00  0.00     0.094 A 
HETATM   16  C   UNL     1      28.178  44.839  54.421  1.00  0.00     0.046 A 
HETATM   17 BR   UNL     1      27.006  46.312  54.187  1.00  0.00    -0.048 Br
HETATM   18  C   UNL     1      29.207  44.959  55.358  1.00  0.00     0.041 A 
HETATM   19  C   UNL     1      30.086  43.896  55.555  1.00  0.00     0.013 A 
HETATM   20 BR   UNL     1      31.477  44.056  56.824  1.00  0.00    -0.051 Br
HETATM   21  C   UNL     1      29.951  42.714  54.827  1.00  0.00     0.035 A 
BRANCH  15  22
HETATM   22  O   UNL     1      27.008  43.577  52.771  1.00  0.00    -0.358 OA
HETATM   23  H   UNL     1      27.212  44.186  52.031  1.00  0.00     0.218 HD
ENDBRANCH  15  22
ENDBRANCH   2  14
TORSDOF 4
ENDMDL
MODEL 8
REMARK VINA RESULT:      -7.1      3.886      7.667
REMARK  4 active torsions:
REMARK  status: ('A' for Active; 'I' for Inactive)
REMARK    1  A    between atoms: C_4  and  N_5 
REMARK    2  A    between atoms: N_5  and  N_6 
REMARK    3  A    between atoms: C_7  and  C_8 
REMARK    4  A    between atoms: C_9  and  O_10 
ROOT
HETATM    1  N   UNL     1      30.024  42.886  53.072  1.00  0.00    -0.172 NA
HETATM    2  C   UNL     1      29.069  42.013  52.959  1.00  0.00     0.153 C 
ENDROOT
BRANCH   1   3
HETATM    3  N   UNL     1      30.626  42.902  54.295  1.00  0.00    -0.108 N 
HETATM    4  H   UNL     1      31.314  42.199  54.559  1.00  0.00     0.208 HD
BRANCH   3   5
HETATM    5  C   UNL     1      30.400  43.812  55.295  1.00  0.00     0.723 A 
HETATM    6  N   UNL     1      29.470  44.713  55.169  1.00  0.00    -0.068 NA
HETATM    7  C   UNL     1      29.297  45.603  56.203  1.00  0.00     0.055 A 
HETATM    8  C   UNL     1      28.223  46.635  56.006  1.00  0.00     0.071 C 
HETATM    9  C   UNL     1      30.026  45.596  57.327  1.00  0.00     0.102 A 
HETATM   10  C   UNL     1      31.066  44.570  57.470  1.00  0.00     0.261 A 
HETATM   11  N   UNL     1      31.184  43.728  56.410  1.00  0.00    -0.153 N 
HETATM   12  O   UNL     1      31.762  44.499  58.475  1.00  0.00    -0.268 OA
HETATM   13  H   UNL     1      31.882  43.004  56.447  1.00  0.00     0.187 HD
ENDBRANCH   3   5
ENDBRANCH   1   3
BRANCH   2  14
HETATM   14  C   UNL     1      28.306  41.850  51.703  1.00  0.00     0.019 A 
HETATM   15  C   UNL     1      28.329  40.664  50.954  1.00  0.00     0.094 A 
HETATM   16  C   UNL     1      27.581  40.576  49.775  1.00  0.00     0.046 A 
HETATM   17 BR   UNL     1      27.571  38.998  48.720  1.00  0.00    -0.048 Br
HETATM   18  C   UNL     1      26.815  41.661  49.342  1.00  0.00     0.041 A 
HETATM   19  C   UNL     1      26.799  42.834  50.093  1.00  0.00     0.013 A 
HETATM   20 BR   UNL     1      25.763  44.304  49.510  1.00  0.00    -0.051 Br
HETATM   21  C   UNL     1      27.539  42.938  51.270  1.00  0.00     0.035 A 
BRANCH  15  22
HETATM   22  O   UNL     1      29.068  39.579  51.348  1.00  0.00    -0.358 OA
HETATM   23  H   UNL     1      29.554  39.822  52.163  1.00  0.00     0.218 HD
ENDBRANCH  15  22
ENDBRANCH   2  14
TORSDOF 4
ENDMDL
MODEL 9
REMARK VINA RESULT:      -7.1      3.889      7.367
REMARK  4 active torsions:
REMARK  status: ('A' for Active; 'I' for Inactive)
REMARK    1  A    between atoms: C_4  and  N_5 
REMARK    2  A    between atoms: N_5  and  N_6 
REMARK    3  A    between atoms: C_7  and  C_8 
REMARK    4  A    between atoms: C_9  and  O_10 
ROOT
HETATM    1  N   UNL     1      29.660  42.731  52.978  1.00  0.00    -0.172 NA
HETATM    2  C   UNL     1      28.983  41.625  52.928  1.00  0.00     0.153 C 
ENDROOT
BRANCH   1   3
HETATM    3  N   UNL     1      30.478  42.838  54.063  1.00  0.00    -0.108 N 
HETATM    4  H   UNL     1      31.293  42.238  54.176  1.00  0.00     0.208 HD
BRANCH   3   5
HETATM    5  C   UNL     1      30.328  43.715  55.106  1.00  0.00     0.723 A 
HETATM    6  N   UNL     1      29.427  44.652  55.055  1.00  0.00    -0.068 NA
HETATM    7  C   UNL     1      29.330  45.507  56.128  1.00  0.00     0.055 A 
HETATM    8  C   UNL     1      28.287  46.582  56.018  1.00  0.00     0.071 C 
HETATM    9  C   UNL     1      30.106  45.431  57.218  1.00  0.00     0.102 A 
HETATM   10  C   UNL     1      31.114  44.365  57.276  1.00  0.00     0.261 A 
HETATM   11  N   UNL     1      31.156  43.561  56.181  1.00  0.00    -0.153 N 
HETATM   12  O   UNL     1      31.849  44.231  58.246  1.00  0.00    -0.268 OA
HETATM   13  H   UNL     1      31.829  42.813  56.160  1.00  0.00     0.187 HD
ENDBRANCH   3   5
ENDBRANCH   1   3
BRANCH   2  14
HETATM   14  C   UNL     1      28.046  41.333  51.821  1.00  0.00     0.019 A 
HETATM   15  C   UNL     1      26.838  42.027  51.652  1.00  0.00     0.094 A 
HETATM   16  C   UNL     1      25.999  41.702  50.580  1.00  0.00     0.046 A 
HETATM   17 BR   UNL     1      24.353  42.604  50.299  1.00  0.00    -0.048 Br
HETATM   18  C   UNL     1      26.357  40.694  49.683  1.00  0.00     0.041 A 
HETATM   19  C   UNL     1      27.559  40.011  49.860  1.00  0.00     0.013 A 
HETATM   20 BR   UNL     1      28.047  38.647  48.646  1.00  0.00    -0.051 Br
HETATM   21  C   UNL     1      28.407  40.322  50.922  1.00  0.00     0.035 A 
BRANCH  15  22
HETATM   22  O   UNL     1      26.454  43.022  52.512  1.00  0.00    -0.358 OA
HETATM   23  H   UNL     1      27.154  43.708  52.516  1.00  0.00     0.218 HD
ENDBRANCH  15  22
ENDBRANCH   2  14
TORSDOF 4
ENDMDL
MODEL 10
REMARK VINA RESULT:      -7.0      2.211      3.239
REMARK  4 active torsions:
REMARK  status: ('A' for Active; 'I' for Inactive)
REMARK    1  A    between atoms: C_4  and  N_5 
REMARK    2  A    between atoms: N_5  and  N_6 
REMARK    3  A    between atoms: C_7  and  C_8 
REMARK    4  A    between atoms: C_9  and  O_10 
ROOT
HETATM    1  N   UNL     1      28.612  42.244  52.832  1.00  0.00    -0.172 NA
HETATM    2  C   UNL     1      29.547  42.764  53.568  1.00  0.00     0.153 C 
ENDROOT
BRANCH   1   3
HETATM    3  N   UNL     1      29.016  41.177  52.085  1.00  0.00    -0.108 N 
HETATM    4  H   UNL     1      29.933  40.753  52.215  1.00  0.00     0.208 HD
BRANCH   3   5
HETATM    5  C   UNL     1      28.291  40.559  51.100  1.00  0.00     0.723 A 
HETATM    6  N   UNL     1      28.770  39.520  50.482  1.00  0.00    -0.068 NA
HETATM    7  C   UNL     1      27.999  38.948  49.497  1.00  0.00     0.055 A 
HETATM    8  C   UNL     1      28.600  37.760  48.801  1.00  0.00     0.071 C 
HETATM    9  C   UNL     1      26.789  39.397  49.138  1.00  0.00     0.102 A 
HETATM   10  C   UNL     1      26.248  40.564  49.846  1.00  0.00     0.261 A 
HETATM   11  N   UNL     1      27.064  41.079  50.803  1.00  0.00    -0.153 N 
HETATM   12  O   UNL     1      25.144  41.020  49.577  1.00  0.00    -0.268 OA
HETATM   13  H   UNL     1      26.749  41.882  51.321  1.00  0.00     0.187 HD
ENDBRANCH   3   5
ENDBRANCH   1   3
BRANCH   2  14
HETATM   14  C   UNL     1      29.292  43.925  54.447  1.00  0.00     0.019 A 
HETATM   15  C   UNL     1      30.015  44.152  55.628  1.00  0.00     0.094 A 
HETATM   16  C   UNL     1      29.724  45.273  56.413  1.00  0.00     0.046 A 
HETATM   17 BR   UNL     1      30.667  45.633  58.020  1.00  0.00    -0.048 Br
HETATM   18  C   UNL     1      28.720  46.164  56.026  1.00  0.00     0.041 A 
HETATM   19  C   UNL     1      28.008  45.930  54.852  1.00  0.00     0.013 A 
HETATM   20 BR   UNL     1      26.650  47.135  54.326  1.00  0.00    -0.051 Br
HETATM   21  C   UNL     1      28.285  44.818  54.059  1.00  0.00     0.035 A 
BRANCH  15  22
HETATM   22  O   UNL     1      31.007  43.300  56.039  1.00  0.00    -0.358 OA
HETATM   23  H   UNL     1      31.012  43.290  57.018  1.00  0.00     0.218 HD
ENDBRANCH  15  22
ENDBRANCH   2  14
TORSDOF 4
ENDMDL
