MODEL 1
REMARK VINA RESULT:     -10.8      0.000      0.000
REMARK  8 active torsions:
REMARK  status: ('A' for Active; 'I' for Inactive)
REMARK    1  A    between atoms: C_2  and  N_3 
REMARK    2  A    between atoms: N_7  and  C_8 
REMARK    3  A    between atoms: C_8  and  C_9 
REMARK    4  A    between atoms: C_10  and  C_11 
REMARK    5  A    between atoms: C_16  and  C_17 
REMARK       I    between atoms: C_17  and  N_18 
REMARK    6  A    between atoms: N_18  and  C_19 
REMARK    7  A    between atoms: C_21  and  O_22 
REMARK    8  A    between atoms: O_22  and  C_23 
ROOT
HETATM    1  C   UNL     1      25.123  45.553  49.599  1.00  0.00     0.256 C 
HETATM    2  N   UNL     1      24.891  44.442  50.390  1.00  0.00    -0.323 N 
HETATM    3  O   UNL     1      26.218  45.923  49.188  1.00  0.00    -0.267 OA
HETATM    4  H   UNL     1      23.947  44.235  50.666  1.00  0.00     0.169 HD
ENDROOT
BRANCH   1   5
HETATM    5  C   UNL     1      23.922  46.371  49.206  1.00  0.00     0.033 A 
HETATM    6  C   UNL     1      24.053  47.771  49.206  1.00  0.00     0.034 A 
HETATM    7  C   UNL     1      22.986  48.628  48.857  1.00  0.00     0.056 A 
HETATM    8  C   UNL     1      21.744  48.054  48.508  1.00  0.00    -0.015 A 
HETATM    9  C   UNL     1      21.619  46.652  48.499  1.00  0.00     0.011 A 
HETATM   10  C   UNL     1      22.688  45.822  48.849  1.00  0.00     0.017 A 
BRANCH   7  11
HETATM   11  C   UNL     1      23.218  50.127  48.927  1.00  0.00     0.418 C 
HETATM   12  F   UNL     1      22.913  50.788  47.774  1.00  0.00    -0.166 F 
HETATM   13  F   UNL     1      22.487  50.720  49.910  1.00  0.00    -0.166 F 
HETATM   14  F   UNL     1      24.517  50.447  49.183  1.00  0.00    -0.166 F 
ENDBRANCH   7  11
BRANCH   8  15
HETATM   15  C   UNL     1      20.522  48.887  48.174  1.00  0.00     0.312 C 
BRANCH  15  16
HETATM   16  N   UNL     1      19.342  48.513  48.970  1.00  0.00     0.096 N 
HETATM   17  C   UNL     1      18.054  48.842  48.330  1.00  0.00     0.300 C 
HETATM   18  C   UNL     1      17.729  50.348  48.269  1.00  0.00     0.265 C 
HETATM   19  N   UNL     1      17.804  50.973  49.657  1.00  0.00    -0.068 N 
HETATM   20  H   UNL     1      17.056  50.540  50.217  1.00  0.00     0.280 HD
HETATM   21  C   UNL     1      19.116  50.627  50.365  1.00  0.00     0.265 C 
HETATM   22  C   UNL     1      19.389  49.109  50.320  1.00  0.00     0.300 C 
BRANCH  19  23
HETATM   23  C   UNL     1      17.581  52.469  49.658  1.00  0.00     0.230 C 
HETATM   24  C   UNL     1      16.158  52.818  50.047  1.00  0.00     0.034 C 
ENDBRANCH  19  23
ENDBRANCH  15  16
ENDBRANCH   8  15
ENDBRANCH   1   5
BRANCH   2  25
HETATM   25  C   UNL     1      25.835  43.485  50.829  1.00  0.00     0.037 A 
HETATM   26  C   UNL     1      27.087  43.797  51.357  1.00  0.00     0.067 A 
HETATM   27  C   UNL     1      27.990  42.773  51.683  1.00  0.00     0.084 A 
HETATM   28  C   UNL     1      27.628  41.425  51.554  1.00  0.00    -0.028 A 
HETATM   29  C   UNL     1      28.565  40.325  51.964  1.00  0.00     0.051 C 
HETATM   30  C   UNL     1      26.355  41.118  51.065  1.00  0.00     0.012 A 
HETATM   31  C   UNL     1      25.475  42.137  50.694  1.00  0.00     0.030 A 
BRANCH  27  32
HETATM   32  O   UNL     1      29.233  43.050  52.211  1.00  0.00    -0.310 OA
BRANCH  32  33
HETATM   33  C   UNL     1      29.314  43.672  53.440  1.00  0.00     0.076 A 
HETATM   34  C   UNL     1      30.360  43.240  54.265  1.00  0.00     0.047 A 
HETATM   35  C   UNL     1      30.500  43.839  55.502  1.00  0.00    -0.020 A 
HETATM   36  C   UNL     1      29.627  44.845  55.909  1.00  0.00     0.041 A 
HETATM   37  C   UNL     1      31.505  43.584  56.585  1.00  0.00     0.144 A 
HETATM   38  N   UNL     1      29.965  45.268  57.184  1.00  0.00    -0.326 N 
HETATM   39  C   UNL     1      28.605  45.307  55.110  1.00  0.00     0.033 A 
HETATM   40  C   UNL     1      31.065  44.573  57.670  1.00  0.00     0.226 A 
HETATM   41  H   UNL     1      29.491  45.982  57.716  1.00  0.00     0.169 HD
HETATM   42  O   UNL     1      31.580  44.731  58.765  1.00  0.00    -0.273 OA
HETATM   43  C   UNL     1      28.460  44.720  53.849  1.00  0.00     0.039 A 
ENDBRANCH  32  33
ENDBRANCH  27  32
ENDBRANCH   2  25
TORSDOF 8
ENDMDL
MODEL 2
REMARK VINA RESULT:     -10.1      4.053     12.628
REMARK  8 active torsions:
REMARK  status: ('A' for Active; 'I' for Inactive)
REMARK    1  A    between atoms: C_2  and  N_3 
REMARK    2  A    between atoms: N_7  and  C_8 
REMARK    3  A    between atoms: C_8  and  C_9 
REMARK    4  A    between atoms: C_10  and  C_11 
REMARK    5  A    between atoms: C_16  and  C_17 
REMARK       I    between atoms: C_17  and  N_18 
REMARK    6  A    between atoms: N_18  and  C_19 
REMARK    7  A    between atoms: C_21  and  O_22 
REMARK    8  A    between atoms: O_22  and  C_23 
ROOT
HETATM    1  C   UNL     1      23.132  47.446  49.150  1.00  0.00     0.256 C 
HETATM    2  N   UNL     1      22.747  48.566  49.865  1.00  0.00    -0.323 N 
HETATM    3  O   UNL     1      22.634  47.064  48.096  1.00  0.00    -0.267 OA
HETATM    4  H   UNL     1      23.231  48.782  50.719  1.00  0.00     0.169 HD
ENDROOT
BRANCH   1   5
HETATM    5  C   UNL     1      24.265  46.633  49.717  1.00  0.00     0.033 A 
HETATM    6  C   UNL     1      24.407  45.306  49.273  1.00  0.00     0.034 A 
HETATM    7  C   UNL     1      25.435  44.460  49.745  1.00  0.00     0.056 A 
HETATM    8  C   UNL     1      26.341  44.965  50.702  1.00  0.00    -0.015 A 
HETATM    9  C   UNL     1      26.203  46.297  51.136  1.00  0.00     0.011 A 
HETATM   10  C   UNL     1      25.178  47.117  50.657  1.00  0.00     0.017 A 
BRANCH   7  11
HETATM   11  C   UNL     1      25.477  43.030  49.234  1.00  0.00     0.418 C 
HETATM   12  F   UNL     1      26.707  42.635  48.800  1.00  0.00    -0.166 F 
HETATM   13  F   UNL     1      25.101  42.129  50.182  1.00  0.00    -0.166 F 
HETATM   14  F   UNL     1      24.647  42.825  48.174  1.00  0.00    -0.166 F 
ENDBRANCH   7  11
BRANCH   8  15
HETATM   15  C   UNL     1      27.442  44.121  51.314  1.00  0.00     0.312 C 
BRANCH  15  16
HETATM   16  N   UNL     1      26.986  43.346  52.480  1.00  0.00     0.096 N 
HETATM   17  C   UNL     1      27.063  44.079  53.757  1.00  0.00     0.300 C 
HETATM   18  C   UNL     1      28.494  44.320  54.280  1.00  0.00     0.265 C 
HETATM   19  N   UNL     1      29.259  43.005  54.378  1.00  0.00    -0.068 N 
HETATM   20  H   UNL     1      28.783  42.439  55.094  1.00  0.00     0.280 HD
HETATM   21  C   UNL     1      29.177  42.202  53.079  1.00  0.00     0.265 C 
HETATM   22  C   UNL     1      27.716  42.068  52.599  1.00  0.00     0.300 C 
BRANCH  19  23
HETATM   23  C   UNL     1      30.701  43.177  54.802  1.00  0.00     0.230 C 
HETATM   24  C   UNL     1      30.808  43.937  56.111  1.00  0.00     0.034 C 
ENDBRANCH  19  23
ENDBRANCH  15  16
ENDBRANCH   8  15
ENDBRANCH   1   5
BRANCH   2  25
HETATM   25  C   UNL     1      21.766  49.520  49.510  1.00  0.00     0.037 A 
HETATM   26  C   UNL     1      20.410  49.405  49.811  1.00  0.00     0.067 A 
HETATM   27  C   UNL     1      19.499  50.362  49.338  1.00  0.00     0.084 A 
HETATM   28  C   UNL     1      19.939  51.484  48.621  1.00  0.00    -0.028 A 
HETATM   29  C   UNL     1      18.978  52.546  48.170  1.00  0.00     0.051 C 
HETATM   30  C   UNL     1      21.306  51.616  48.359  1.00  0.00     0.012 A 
HETATM   31  C   UNL     1      22.206  50.637  48.788  1.00  0.00     0.030 A 
BRANCH  27  32
HETATM   32  O   UNL     1      18.152  50.278  49.622  1.00  0.00    -0.310 OA
BRANCH  32  33
HETATM   33  C   UNL     1      17.353  49.474  48.836  1.00  0.00     0.076 A 
HETATM   34  C   UNL     1      16.521  50.150  47.935  1.00  0.00     0.047 A 
HETATM   35  C   UNL     1      15.710  49.396  47.109  1.00  0.00    -0.020 A 
HETATM   36  C   UNL     1      15.727  48.005  47.172  1.00  0.00     0.041 A 
HETATM   37  C   UNL     1      14.726  49.835  46.066  1.00  0.00     0.144 A 
HETATM   38  N   UNL     1      14.821  47.485  46.262  1.00  0.00    -0.326 N 
HETATM   39  C   UNL     1      16.552  47.312  48.030  1.00  0.00     0.033 A 
HETATM   40  C   UNL     1      14.174  48.496  45.563  1.00  0.00     0.226 A 
HETATM   41  H   UNL     1      14.630  46.507  46.108  1.00  0.00     0.169 HD
HETATM   42  O   UNL     1      13.322  48.336  44.704  1.00  0.00    -0.273 OA
HETATM   43  C   UNL     1      17.389  48.063  48.861  1.00  0.00     0.039 A 
ENDBRANCH  32  33
ENDBRANCH  27  32
ENDBRANCH   2  25
TORSDOF 8
ENDMDL
MODEL 3
REMARK VINA RESULT:     -10.1      1.258      1.750
REMARK  8 active torsions:
REMARK  status: ('A' for Active; 'I' for Inactive)
REMARK    1  A    between atoms: C_2  and  N_3 
REMARK    2  A    between atoms: N_7  and  C_8 
REMARK    3  A    between atoms: C_8  and  C_9 
REMARK    4  A    between atoms: C_10  and  C_11 
REMARK    5  A    between atoms: C_16  and  C_17 
REMARK       I    between atoms: C_17  and  N_18 
REMARK    6  A    between atoms: N_18  and  C_19 
REMARK    7  A    between atoms: C_21  and  O_22 
REMARK    8  A    between atoms: O_22  and  C_23 
ROOT
HETATM    1  C   UNL     1      24.652  45.371  49.466  1.00  0.00     0.256 C 
HETATM    2  N   UNL     1      24.487  44.006  49.309  1.00  0.00    -0.323 N 
HETATM    3  O   UNL     1      25.655  45.925  49.903  1.00  0.00    -0.267 OA
HETATM    4  H   UNL     1      23.617  43.665  48.937  1.00  0.00     0.169 HD
ENDROOT
BRANCH   1   5
HETATM    5  C   UNL     1      23.499  46.247  49.054  1.00  0.00     0.033 A 
HETATM    6  C   UNL     1      23.689  47.641  49.088  1.00  0.00     0.034 A 
HETATM    7  C   UNL     1      22.670  48.549  48.725  1.00  0.00     0.056 A 
HETATM    8  C   UNL     1      21.417  48.035  48.326  1.00  0.00    -0.015 A 
HETATM    9  C   UNL     1      21.233  46.641  48.283  1.00  0.00     0.011 A 
HETATM   10  C   UNL     1      22.255  45.759  48.648  1.00  0.00     0.017 A 
BRANCH   7  11
HETATM   11  C   UNL     1      22.963  50.035  48.835  1.00  0.00     0.418 C 
HETATM   12  F   UNL     1      22.666  50.741  47.707  1.00  0.00    -0.166 F 
HETATM   13  F   UNL     1      22.272  50.627  49.846  1.00  0.00    -0.166 F 
HETATM   14  F   UNL     1      24.278  50.296  49.077  1.00  0.00    -0.166 F 
ENDBRANCH   7  11
BRANCH   8  15
HETATM   15  C   UNL     1      20.242  48.926  47.973  1.00  0.00     0.312 C 
BRANCH  15  16
HETATM   16  N   UNL     1      19.006  48.545  48.676  1.00  0.00     0.096 N 
HETATM   17  C   UNL     1      17.773  49.051  48.043  1.00  0.00     0.300 C 
HETATM   18  C   UNL     1      17.560  50.573  48.167  1.00  0.00     0.265 C 
HETATM   19  N   UNL     1      17.621  51.009  49.626  1.00  0.00    -0.068 N 
HETATM   20  H   UNL     1      16.822  50.568  50.101  1.00  0.00     0.280 HD
HETATM   21  C   UNL     1      18.874  50.477  50.325  1.00  0.00     0.265 C 
HETATM   22  C   UNL     1      19.039  48.961  50.093  1.00  0.00     0.300 C 
BRANCH  19  23
HETATM   23  C   UNL     1      17.507  52.506  49.814  1.00  0.00     0.230 C 
HETATM   24  C   UNL     1      16.058  52.943  49.916  1.00  0.00     0.034 C 
ENDBRANCH  19  23
ENDBRANCH  15  16
ENDBRANCH   8  15
ENDBRANCH   1   5
BRANCH   2  25
HETATM   25  C   UNL     1      25.438  42.990  49.554  1.00  0.00     0.037 A 
HETATM   26  C   UNL     1      25.859  42.594  50.823  1.00  0.00     0.067 A 
HETATM   27  C   UNL     1      26.874  41.635  50.962  1.00  0.00     0.084 A 
HETATM   28  C   UNL     1      27.431  41.007  49.838  1.00  0.00    -0.028 A 
HETATM   29  C   UNL     1      28.470  39.932  49.982  1.00  0.00     0.051 C 
HETATM   30  C   UNL     1      26.974  41.377  48.570  1.00  0.00     0.012 A 
HETATM   31  C   UNL     1      25.998  42.367  48.431  1.00  0.00     0.030 A 
BRANCH  27  32
HETATM   32  O   UNL     1      27.309  41.219  52.202  1.00  0.00    -0.310 OA
BRANCH  32  33
HETATM   33  C   UNL     1      28.115  42.060  52.943  1.00  0.00     0.076 A 
HETATM   34  C   UNL     1      27.439  42.976  53.759  1.00  0.00     0.047 A 
HETATM   35  C   UNL     1      28.194  43.833  54.536  1.00  0.00    -0.020 A 
HETATM   36  C   UNL     1      29.585  43.779  54.509  1.00  0.00     0.041 A 
HETATM   37  C   UNL     1      27.756  44.906  55.487  1.00  0.00     0.144 A 
HETATM   38  N   UNL     1      30.106  44.743  55.356  1.00  0.00    -0.326 N 
HETATM   39  C   UNL     1      30.278  42.874  53.735  1.00  0.00     0.033 A 
HETATM   40  C   UNL     1      29.096  45.466  55.978  1.00  0.00     0.226 A 
HETATM   41  H   UNL     1      31.085  44.923  55.519  1.00  0.00     0.169 HD
HETATM   42  O   UNL     1      29.258  46.379  56.771  1.00  0.00    -0.273 OA
HETATM   43  C   UNL     1      29.525  41.991  52.954  1.00  0.00     0.039 A 
ENDBRANCH  32  33
ENDBRANCH  27  32
ENDBRANCH   2  25
TORSDOF 8
ENDMDL
MODEL 4
REMARK VINA RESULT:      -9.8      2.775      3.954
REMARK  8 active torsions:
REMARK  status: ('A' for Active; 'I' for Inactive)
REMARK    1  A    between atoms: C_2  and  N_3 
REMARK    2  A    between atoms: N_7  and  C_8 
REMARK    3  A    between atoms: C_8  and  C_9 
REMARK    4  A    between atoms: C_10  and  C_11 
REMARK    5  A    between atoms: C_16  and  C_17 
REMARK       I    between atoms: C_17  and  N_18 
REMARK    6  A    between atoms: N_18  and  C_19 
REMARK    7  A    between atoms: C_21  and  O_22 
REMARK    8  A    between atoms: O_22  and  C_23 
ROOT
HETATM    1  C   UNL     1      22.039  46.182  48.230  1.00  0.00     0.256 C 
HETATM    2  N   UNL     1      22.492  45.587  49.395  1.00  0.00    -0.323 N 
HETATM    3  O   UNL     1      22.461  45.955  47.101  1.00  0.00    -0.267 OA
HETATM    4  H   UNL     1      22.069  45.852  50.267  1.00  0.00     0.169 HD
ENDROOT
BRANCH   1   5
HETATM    5  C   UNL     1      20.927  47.187  48.368  1.00  0.00     0.033 A 
HETATM    6  C   UNL     1      19.605  46.705  48.378  1.00  0.00     0.034 A 
HETATM    7  C   UNL     1      18.492  47.565  48.499  1.00  0.00     0.056 A 
HETATM    8  C   UNL     1      18.718  48.955  48.603  1.00  0.00    -0.015 A 
HETATM    9  C   UNL     1      20.042  49.432  48.603  1.00  0.00     0.011 A 
HETATM   10  C   UNL     1      21.130  48.564  48.481  1.00  0.00     0.017 A 
BRANCH   7  11
HETATM   11  C   UNL     1      17.104  46.950  48.458  1.00  0.00     0.418 C 
HETATM   12  F   UNL     1      16.313  47.438  47.461  1.00  0.00    -0.166 F 
HETATM   13  F   UNL     1      17.139  45.600  48.289  1.00  0.00    -0.166 F 
HETATM   14  F   UNL     1      16.399  47.165  49.604  1.00  0.00    -0.166 F 
ENDBRANCH   7  11
BRANCH   8  15
HETATM   15  C   UNL     1      17.590  49.965  48.679  1.00  0.00     0.312 C 
BRANCH  15  16
HETATM   16  N   UNL     1      18.021  51.330  48.334  1.00  0.00     0.096 N 
HETATM   17  C   UNL     1      18.023  52.267  49.474  1.00  0.00     0.300 C 
HETATM   18  C   UNL     1      16.623  52.669  49.981  1.00  0.00     0.265 C 
HETATM   19  N   UNL     1      15.776  53.224  48.842  1.00  0.00    -0.068 N 
HETATM   20  H   UNL     1      16.230  54.094  48.532  1.00  0.00     0.280 HD
HETATM   21  C   UNL     1      15.775  52.291  47.629  1.00  0.00     0.265 C 
HETATM   22  C   UNL     1      17.212  51.891  47.234  1.00  0.00     0.300 C 
BRANCH  19  23
HETATM   23  C   UNL     1      14.359  53.559  49.252  1.00  0.00     0.230 C 
HETATM   24  C   UNL     1      14.210  53.588  50.762  1.00  0.00     0.034 C 
ENDBRANCH  19  23
ENDBRANCH  15  16
ENDBRANCH   8  15
ENDBRANCH   1   5
BRANCH   2  25
HETATM   25  C   UNL     1      23.469  44.573  49.521  1.00  0.00     0.037 A 
HETATM   26  C   UNL     1      24.821  44.807  49.770  1.00  0.00     0.067 A 
HETATM   27  C   UNL     1      25.729  43.737  49.791  1.00  0.00     0.084 A 
HETATM   28  C   UNL     1      25.289  42.414  49.635  1.00  0.00    -0.028 A 
HETATM   29  C   UNL     1      26.246  41.260  49.722  1.00  0.00     0.051 C 
HETATM   30  C   UNL     1      23.926  42.183  49.428  1.00  0.00     0.012 A 
HETATM   31  C   UNL     1      23.030  43.252  49.359  1.00  0.00     0.030 A 
BRANCH  27  32
HETATM   32  O   UNL     1      27.071  43.935  50.039  1.00  0.00    -0.310 OA
BRANCH  32  33
HETATM   33  C   UNL     1      27.494  44.075  51.344  1.00  0.00     0.076 A 
HETATM   34  C   UNL     1      28.655  43.368  51.679  1.00  0.00     0.047 A 
HETATM   35  C   UNL     1      29.137  43.483  52.969  1.00  0.00    -0.020 A 
HETATM   36  C   UNL     1      28.486  44.285  53.902  1.00  0.00     0.041 A 
HETATM   37  C   UNL     1      30.336  42.849  53.608  1.00  0.00     0.144 A 
HETATM   38  N   UNL     1      29.150  44.222  55.116  1.00  0.00    -0.326 N 
HETATM   39  C   UNL     1      27.357  45.012  53.596  1.00  0.00     0.033 A 
HETATM   40  C   UNL     1      30.259  43.389  55.040  1.00  0.00     0.226 A 
HETATM   41  H   UNL     1      28.886  44.703  55.963  1.00  0.00     0.169 HD
HETATM   42  O   UNL     1      31.027  43.139  55.956  1.00  0.00    -0.273 OA
HETATM   43  C   UNL     1      26.867  44.916  52.290  1.00  0.00     0.039 A 
ENDBRANCH  32  33
ENDBRANCH  27  32
ENDBRANCH   2  25
TORSDOF 8
ENDMDL
MODEL 5
REMARK VINA RESULT:      -9.8      3.658     11.693
REMARK  8 active torsions:
REMARK  status: ('A' for Active; 'I' for Inactive)
REMARK    1  A    between atoms: C_2  and  N_3 
REMARK    2  A    between atoms: N_7  and  C_8 
REMARK    3  A    between atoms: C_8  and  C_9 
REMARK    4  A    between atoms: C_10  and  C_11 
REMARK    5  A    between atoms: C_16  and  C_17 
REMARK       I    between atoms: C_17  and  N_18 
REMARK    6  A    between atoms: N_18  and  C_19 
REMARK    7  A    between atoms: C_21  and  O_22 
REMARK    8  A    between atoms: O_22  and  C_23 
ROOT
HETATM    1  C   UNL     1      21.829  45.130  48.448  1.00  0.00     0.256 C 
HETATM    2  N   UNL     1      20.887  46.056  48.861  1.00  0.00    -0.323 N 
HETATM    3  O   UNL     1      21.788  44.483  47.408  1.00  0.00    -0.267 OA
HETATM    4  H   UNL     1      21.028  46.529  49.737  1.00  0.00     0.169 HD
ENDROOT
BRANCH   1   5
HETATM    5  C   UNL     1      23.007  44.907  49.358  1.00  0.00     0.033 A 
HETATM    6  C   UNL     1      23.959  45.938  49.463  1.00  0.00     0.034 A 
HETATM    7  C   UNL     1      25.101  45.828  50.286  1.00  0.00     0.056 A 
HETATM    8  C   UNL     1      25.295  44.636  51.018  1.00  0.00    -0.015 A 
HETATM    9  C   UNL     1      24.336  43.611  50.919  1.00  0.00     0.011 A 
HETATM   10  C   UNL     1      23.213  43.740  50.097  1.00  0.00     0.017 A 
BRANCH   7  11
HETATM   11  C   UNL     1      26.090  46.981  50.299  1.00  0.00     0.418 C 
HETATM   12  F   UNL     1      26.414  47.417  51.549  1.00  0.00    -0.166 F 
HETATM   13  F   UNL     1      27.265  46.664  49.690  1.00  0.00    -0.166 F 
HETATM   14  F   UNL     1      25.620  48.084  49.652  1.00  0.00    -0.166 F 
ENDBRANCH   7  11
BRANCH   8  15
HETATM   15  C   UNL     1      26.517  44.396  51.884  1.00  0.00     0.312 C 
BRANCH  15  16
HETATM   16  N   UNL     1      26.173  43.958  53.247  1.00  0.00     0.096 N 
HETATM   17  C   UNL     1      25.664  45.035  54.116  1.00  0.00     0.300 C 
HETATM   18  C   UNL     1      26.721  46.072  54.548  1.00  0.00     0.265 C 
HETATM   19  N   UNL     1      27.914  45.384  55.202  1.00  0.00    -0.068 N 
HETATM   20  H   UNL     1      27.566  44.950  56.069  1.00  0.00     0.280 HD
HETATM   21  C   UNL     1      28.451  44.239  54.342  1.00  0.00     0.265 C 
HETATM   22  C   UNL     1      27.315  43.291  53.904  1.00  0.00     0.300 C 
BRANCH  19  23
HETATM   23  C   UNL     1      29.030  46.335  55.573  1.00  0.00     0.230 C 
HETATM   24  C   UNL     1      30.208  45.599  56.182  1.00  0.00     0.034 C 
ENDBRANCH  19  23
ENDBRANCH  15  16
ENDBRANCH   8  15
ENDBRANCH   1   5
BRANCH   2  25
HETATM   25  C   UNL     1      19.740  46.489  48.158  1.00  0.00     0.037 A 
HETATM   26  C   UNL     1      19.571  47.772  47.639  1.00  0.00     0.067 A 
HETATM   27  C   UNL     1      18.357  48.133  47.032  1.00  0.00     0.084 A 
HETATM   28  C   UNL     1      17.325  47.197  46.871  1.00  0.00    -0.028 A 
HETATM   29  C   UNL     1      16.051  47.558  46.164  1.00  0.00     0.051 C 
HETATM   30  C   UNL     1      17.517  45.900  47.355  1.00  0.00     0.012 A 
HETATM   31  C   UNL     1      18.706  45.555  48.002  1.00  0.00     0.030 A 
BRANCH  27  32
HETATM   32  O   UNL     1      18.161  49.392  46.507  1.00  0.00    -0.310 OA
BRANCH  32  33
HETATM   33  C   UNL     1      17.996  50.457  47.368  1.00  0.00     0.076 A 
HETATM   34  C   UNL     1      16.716  50.592  47.919  1.00  0.00     0.047 A 
HETATM   35  C   UNL     1      16.496  51.632  48.803  1.00  0.00    -0.020 A 
HETATM   36  C   UNL     1      17.522  52.512  49.136  1.00  0.00     0.041 A 
HETATM   37  C   UNL     1      15.246  52.024  49.534  1.00  0.00     0.144 A 
HETATM   38  N   UNL     1      17.048  53.468  50.020  1.00  0.00    -0.326 N 
HETATM   39  C   UNL     1      18.797  52.390  48.629  1.00  0.00     0.033 A 
HETATM   40  C   UNL     1      15.706  53.263  50.311  1.00  0.00     0.226 A 
HETATM   41  H   UNL     1      17.583  54.227  50.414  1.00  0.00     0.169 HD
HETATM   42  O   UNL     1      15.025  53.951  51.054  1.00  0.00    -0.273 OA
HETATM   43  C   UNL     1      19.037  51.333  47.745  1.00  0.00     0.039 A 
ENDBRANCH  32  33
ENDBRANCH  27  32
ENDBRANCH   2  25
TORSDOF 8
ENDMDL
MODEL 6
REMARK VINA RESULT:      -9.8      2.239      3.521
REMARK  8 active torsions:
REMARK  status: ('A' for Active; 'I' for Inactive)
REMARK    1  A    between atoms: C_2  and  N_3 
REMARK    2  A    between atoms: N_7  and  C_8 
REMARK    3  A    between atoms: C_8  and  C_9 
REMARK    4  A    between atoms: C_10  and  C_11 
REMARK    5  A    between atoms: C_16  and  C_17 
REMARK       I    between atoms: C_17  and  N_18 
REMARK    6  A    between atoms: N_18  and  C_19 
REMARK    7  A    between atoms: C_21  and  O_22 
REMARK    8  A    between atoms: O_22  and  C_23 
ROOT
HETATM    1  C   UNL     1      21.884  46.639  47.672  1.00  0.00     0.256 C 
HETATM    2  N   UNL     1      22.208  46.364  48.989  1.00  0.00    -0.323 N 
HETATM    3  O   UNL     1      22.329  46.057  46.689  1.00  0.00    -0.267 OA
HETATM    4  H   UNL     1      21.777  46.910  49.715  1.00  0.00     0.169 HD
ENDROOT
BRANCH   1   5
HETATM    5  C   UNL     1      20.893  47.746  47.433  1.00  0.00     0.033 A 
HETATM    6  C   UNL     1      21.010  48.911  48.213  1.00  0.00     0.034 A 
HETATM    7  C   UNL     1      20.129  50.006  48.068  1.00  0.00     0.056 A 
HETATM    8  C   UNL     1      19.090  49.917  47.115  1.00  0.00    -0.015 A 
HETATM    9  C   UNL     1      18.983  48.755  46.330  1.00  0.00     0.011 A 
HETATM   10  C   UNL     1      19.865  47.683  46.489  1.00  0.00     0.017 A 
BRANCH   7  11
HETATM   11  C   UNL     1      20.314  51.201  48.987  1.00  0.00     0.418 C 
HETATM   12  F   UNL     1      20.188  52.404  48.359  1.00  0.00    -0.166 F 
HETATM   13  F   UNL     1      19.420  51.211  50.012  1.00  0.00    -0.166 F 
HETATM   14  F   UNL     1      21.547  51.234  49.566  1.00  0.00    -0.166 F 
ENDBRANCH   7  11
BRANCH   8  15
HETATM   15  C   UNL     1      18.059  51.012  46.925  1.00  0.00     0.312 C 
BRANCH  15  16
HETATM   16  N   UNL     1      16.678  50.533  47.102  1.00  0.00     0.096 N 
HETATM   17  C   UNL     1      15.658  51.384  46.461  1.00  0.00     0.300 C 
HETATM   18  C   UNL     1      15.437  52.750  47.140  1.00  0.00     0.265 C 
HETATM   19  N   UNL     1      15.121  52.572  48.620  1.00  0.00    -0.068 N 
HETATM   20  H   UNL     1      14.221  52.076  48.673  1.00  0.00     0.280 HD
HETATM   21  C   UNL     1      16.143  51.669  49.313  1.00  0.00     0.265 C 
HETATM   22  C   UNL     1      16.347  50.355  48.530  1.00  0.00     0.300 C 
BRANCH  19  23
HETATM   23  C   UNL     1      14.978  53.879  49.369  1.00  0.00     0.230 C 
HETATM   24  C   UNL     1      13.543  54.119  49.797  1.00  0.00     0.034 C 
ENDBRANCH  19  23
ENDBRANCH  15  16
ENDBRANCH   8  15
ENDBRANCH   1   5
BRANCH   2  25
HETATM   25  C   UNL     1      23.051  45.338  49.472  1.00  0.00     0.037 A 
HETATM   26  C   UNL     1      24.358  45.535  49.917  1.00  0.00     0.067 A 
HETATM   27  C   UNL     1      25.147  44.438  50.297  1.00  0.00     0.084 A 
HETATM   28  C   UNL     1      24.618  43.139  50.305  1.00  0.00    -0.028 A 
HETATM   29  C   UNL     1      25.436  41.969  50.773  1.00  0.00     0.051 C 
HETATM   30  C   UNL     1      23.294  42.953  49.898  1.00  0.00     0.012 A 
HETATM   31  C   UNL     1      22.525  44.039  49.475  1.00  0.00     0.030 A 
BRANCH  27  32
HETATM   32  O   UNL     1      26.440  44.601  50.745  1.00  0.00    -0.310 OA
BRANCH  32  33
HETATM   33  C   UNL     1      26.655  45.251  51.943  1.00  0.00     0.076 A 
HETATM   34  C   UNL     1      27.539  44.614  52.822  1.00  0.00     0.047 A 
HETATM   35  C   UNL     1      27.805  45.227  54.032  1.00  0.00    -0.020 A 
HETATM   36  C   UNL     1      27.213  46.444  54.358  1.00  0.00     0.041 A 
HETATM   37  C   UNL     1      28.691  44.786  55.158  1.00  0.00     0.144 A 
HETATM   38  N   UNL     1      27.625  46.840  55.620  1.00  0.00    -0.326 N 
HETATM   39  C   UNL     1      26.359  47.106  53.504  1.00  0.00     0.033 A 
HETATM   40  C   UNL     1      28.499  45.916  56.177  1.00  0.00     0.226 A 
HETATM   41  H   UNL     1      27.341  47.680  56.100  1.00  0.00     0.169 HD
HETATM   42  O   UNL     1      29.017  45.999  57.279  1.00  0.00    -0.273 OA
HETATM   43  C   UNL     1      26.092  46.504  52.270  1.00  0.00     0.039 A 
ENDBRANCH  32  33
ENDBRANCH  27  32
ENDBRANCH   2  25
TORSDOF 8
ENDMDL
MODEL 7
REMARK VINA RESULT:      -9.7      1.502      2.184
REMARK  8 active torsions:
REMARK  status: ('A' for Active; 'I' for Inactive)
REMARK    1  A    between atoms: C_2  and  N_3 
REMARK    2  A    between atoms: N_7  and  C_8 
REMARK    3  A    between atoms: C_8  and  C_9 
REMARK    4  A    between atoms: C_10  and  C_11 
REMARK    5  A    between atoms: C_16  and  C_17 
REMARK       I    between atoms: C_17  and  N_18 
REMARK    6  A    between atoms: N_18  and  C_19 
REMARK    7  A    between atoms: C_21  and  O_22 
REMARK    8  A    between atoms: O_22  and  C_23 
ROOT
HETATM    1  C   UNL     1      23.228  45.654  48.687  1.00  0.00     0.256 C 
HETATM    2  N   UNL     1      23.827  45.453  49.918  1.00  0.00    -0.323 N 
HETATM    3  O   UNL     1      23.379  44.951  47.694  1.00  0.00    -0.267 OA
HETATM    4  H   UNL     1      23.627  46.097  50.663  1.00  0.00     0.169 HD
ENDROOT
BRANCH   1   5
HETATM    5  C   UNL     1      22.305  46.838  48.566  1.00  0.00     0.033 A 
HETATM    6  C   UNL     1      22.827  48.109  48.866  1.00  0.00     0.034 A 
HETATM    7  C   UNL     1      22.044  49.282  48.786  1.00  0.00     0.056 A 
HETATM    8  C   UNL     1      20.690  49.167  48.403  1.00  0.00    -0.015 A 
HETATM    9  C   UNL     1      20.174  47.895  48.093  1.00  0.00     0.011 A 
HETATM   10  C   UNL     1      20.966  46.746  48.180  1.00  0.00     0.017 A 
BRANCH   7  11
HETATM   11  C   UNL     1      22.690  50.602  49.170  1.00  0.00     0.418 C 
HETATM   12  F   UNL     1      24.048  50.544  49.270  1.00  0.00    -0.166 F 
HETATM   13  F   UNL     1      22.417  51.592  48.278  1.00  0.00    -0.166 F 
HETATM   14  F   UNL     1      22.267  51.063  50.380  1.00  0.00    -0.166 F 
ENDBRANCH   7  11
BRANCH   8  15
HETATM   15  C   UNL     1      19.752  50.357  48.343  1.00  0.00     0.312 C 
BRANCH  15  16
HETATM   16  N   UNL     1      18.975  50.533  49.581  1.00  0.00     0.096 N 
HETATM   17  C   UNL     1      17.672  49.842  49.578  1.00  0.00     0.300 C 
HETATM   18  C   UNL     1      16.614  50.458  48.641  1.00  0.00     0.265 C 
HETATM   19  N   UNL     1      16.425  51.940  48.944  1.00  0.00    -0.068 N 
HETATM   20  H   UNL     1      16.036  52.000  49.895  1.00  0.00     0.280 HD
HETATM   21  C   UNL     1      17.760  52.686  48.985  1.00  0.00     0.265 C 
HETATM   22  C   UNL     1      18.774  51.962  49.894  1.00  0.00     0.300 C 
BRANCH  19  23
HETATM   23  C   UNL     1      15.463  52.630  48.002  1.00  0.00     0.230 C 
HETATM   24  C   UNL     1      14.650  53.692  48.719  1.00  0.00     0.034 C 
ENDBRANCH  19  23
ENDBRANCH  15  16
ENDBRANCH   8  15
ENDBRANCH   1   5
BRANCH   2  25
HETATM   25  C   UNL     1      24.670  44.385  50.301  1.00  0.00     0.037 A 
HETATM   26  C   UNL     1      26.045  44.500  50.504  1.00  0.00     0.067 A 
HETATM   27  C   UNL     1      26.812  43.361  50.798  1.00  0.00     0.084 A 
HETATM   28  C   UNL     1      26.206  42.107  50.964  1.00  0.00    -0.028 A 
HETATM   29  C   UNL     1      27.012  40.898  51.343  1.00  0.00     0.051 C 
HETATM   30  C   UNL     1      24.822  42.007  50.801  1.00  0.00     0.012 A 
HETATM   31  C   UNL     1      24.066  43.131  50.461  1.00  0.00     0.030 A 
BRANCH  27  32
HETATM   32  O   UNL     1      28.172  43.442  51.007  1.00  0.00    -0.310 OA
BRANCH  32  33
HETATM   33  C   UNL     1      28.637  43.691  52.282  1.00  0.00     0.076 A 
HETATM   34  C   UNL     1      27.937  44.670  52.997  1.00  0.00     0.047 A 
HETATM   35  C   UNL     1      28.347  44.951  54.287  1.00  0.00    -0.020 A 
HETATM   36  C   UNL     1      29.423  44.273  54.854  1.00  0.00     0.041 A 
HETATM   37  C   UNL     1      27.802  45.937  55.275  1.00  0.00     0.144 A 
HETATM   38  N   UNL     1      29.645  44.742  56.138  1.00  0.00    -0.326 N 
HETATM   39  C   UNL     1      30.116  43.288  54.184  1.00  0.00     0.033 A 
HETATM   40  C   UNL     1      28.735  45.737  56.475  1.00  0.00     0.226 A 
HETATM   41  H   UNL     1      30.367  44.427  56.768  1.00  0.00     0.169 HD
HETATM   42  O   UNL     1      28.695  46.335  57.538  1.00  0.00    -0.273 OA
HETATM   43  C   UNL     1      29.701  42.985  52.884  1.00  0.00     0.039 A 
ENDBRANCH  32  33
ENDBRANCH  27  32
ENDBRANCH   2  25
TORSDOF 8
ENDMDL
MODEL 8
REMARK VINA RESULT:      -9.5      2.495      3.235
REMARK  8 active torsions:
REMARK  status: ('A' for Active; 'I' for Inactive)
REMARK    1  A    between atoms: C_2  and  N_3 
REMARK    2  A    between atoms: N_7  and  C_8 
REMARK    3  A    between atoms: C_8  and  C_9 
REMARK    4  A    between atoms: C_10  and  C_11 
REMARK    5  A    between atoms: C_16  and  C_17 
REMARK       I    between atoms: C_17  and  N_18 
REMARK    6  A    between atoms: N_18  and  C_19 
REMARK    7  A    between atoms: C_21  and  O_22 
REMARK    8  A    between atoms: O_22  and  C_23 
ROOT
HETATM    1  C   UNL     1      23.078  44.016  48.935  1.00  0.00     0.256 C 
HETATM    2  N   UNL     1      24.441  44.030  49.175  1.00  0.00    -0.323 N 
HETATM    3  O   UNL     1      22.377  43.014  48.848  1.00  0.00    -0.267 OA
HETATM    4  H   UNL     1      24.912  44.917  49.228  1.00  0.00     0.169 HD
ENDROOT
BRANCH   1   5
HETATM    5  C   UNL     1      22.402  45.352  48.776  1.00  0.00     0.033 A 
HETATM    6  C   UNL     1      21.006  45.364  48.606  1.00  0.00     0.034 A 
HETATM    7  C   UNL     1      20.277  46.564  48.446  1.00  0.00     0.056 A 
HETATM    8  C   UNL     1      20.981  47.788  48.446  1.00  0.00    -0.015 A 
HETATM    9  C   UNL     1      22.376  47.773  48.626  1.00  0.00     0.011 A 
HETATM   10  C   UNL     1      23.078  46.574  48.782  1.00  0.00     0.017 A 
BRANCH   7  11
HETATM   11  C   UNL     1      18.777  46.467  48.228  1.00  0.00     0.418 C 
HETATM   12  F   UNL     1      18.043  47.198  49.114  1.00  0.00    -0.166 F 
HETATM   13  F   UNL     1      18.405  46.887  46.989  1.00  0.00    -0.166 F 
HETATM   14  F   UNL     1      18.309  45.194  48.348  1.00  0.00    -0.166 F 
ENDBRANCH   7  11
BRANCH   8  15
HETATM   15  C   UNL     1      20.300  49.124  48.223  1.00  0.00     0.312 C 
BRANCH  15  16
HETATM   16  N   UNL     1      20.596  50.100  49.284  1.00  0.00     0.096 N 
HETATM   17  C   UNL     1      19.677  50.034  50.436  1.00  0.00     0.300 C 
HETATM   18  C   UNL     1      18.248  50.540  50.154  1.00  0.00     0.265 C 
HETATM   19  N   UNL     1      18.281  51.954  49.584  1.00  0.00    -0.068 N 
HETATM   20  H   UNL     1      18.660  52.562  50.323  1.00  0.00     0.280 HD
HETATM   21  C   UNL     1      19.248  52.068  48.404  1.00  0.00     0.265 C 
HETATM   22  C   UNL     1      20.629  51.479  48.757  1.00  0.00     0.300 C 
BRANCH  19  23
HETATM   23  C   UNL     1      16.915  52.481  49.201  1.00  0.00     0.230 C 
HETATM   24  C   UNL     1      16.028  51.379  48.655  1.00  0.00     0.034 C 
ENDBRANCH  19  23
ENDBRANCH  15  16
ENDBRANCH   8  15
ENDBRANCH   1   5
BRANCH   2  25
HETATM   25  C   UNL     1      25.282  42.923  49.427  1.00  0.00     0.037 A 
HETATM   26  C   UNL     1      25.740  42.552  50.691  1.00  0.00     0.067 A 
HETATM   27  C   UNL     1      26.644  41.487  50.829  1.00  0.00     0.084 A 
HETATM   28  C   UNL     1      27.047  40.734  49.716  1.00  0.00    -0.028 A 
HETATM   29  C   UNL     1      27.962  39.553  49.865  1.00  0.00     0.051 C 
HETATM   30  C   UNL     1      26.551  41.084  48.457  1.00  0.00     0.012 A 
HETATM   31  C   UNL     1      25.689  42.174  48.314  1.00  0.00     0.030 A 
BRANCH  27  32
HETATM   32  O   UNL     1      27.112  41.094  52.065  1.00  0.00    -0.310 OA
BRANCH  32  33
HETATM   33  C   UNL     1      27.927  41.952  52.773  1.00  0.00     0.076 A 
HETATM   34  C   UNL     1      27.263  42.890  53.573  1.00  0.00     0.047 A 
HETATM   35  C   UNL     1      28.028  43.766  54.320  1.00  0.00    -0.020 A 
HETATM   36  C   UNL     1      29.419  43.709  54.277  1.00  0.00     0.041 A 
HETATM   37  C   UNL     1      27.602  44.863  55.248  1.00  0.00     0.144 A 
HETATM   38  N   UNL     1      29.951  44.693  55.093  1.00  0.00    -0.326 N 
HETATM   39  C   UNL     1      30.100  42.782  53.519  1.00  0.00     0.033 A 
HETATM   40  C   UNL     1      28.949  45.433  55.708  1.00  0.00     0.226 A 
HETATM   41  H   UNL     1      30.932  44.876  55.240  1.00  0.00     0.169 HD
HETATM   42  O   UNL     1      29.121  46.367  56.475  1.00  0.00    -0.273 OA
HETATM   43  C   UNL     1      29.338  41.881  52.770  1.00  0.00     0.039 A 
ENDBRANCH  32  33
ENDBRANCH  27  32
ENDBRANCH   2  25
TORSDOF 8
ENDMDL
MODEL 9
REMARK VINA RESULT:      -9.5      4.017     12.257
REMARK  8 active torsions:
REMARK  status: ('A' for Active; 'I' for Inactive)
REMARK    1  A    between atoms: C_2  and  N_3 
REMARK    2  A    between atoms: N_7  and  C_8 
REMARK    3  A    between atoms: C_8  and  C_9 
REMARK    4  A    between atoms: C_10  and  C_11 
REMARK    5  A    between atoms: C_16  and  C_17 
REMARK       I    between atoms: C_17  and  N_18 
REMARK    6  A    between atoms: N_18  and  C_19 
REMARK    7  A    between atoms: C_21  and  O_22 
REMARK    8  A    between atoms: O_22  and  C_23 
ROOT
HETATM    1  C   UNL     1      22.979  47.592  48.908  1.00  0.00     0.256 C 
HETATM    2  N   UNL     1      22.233  48.518  49.616  1.00  0.00    -0.323 N 
HETATM    3  O   UNL     1      22.823  47.300  47.728  1.00  0.00    -0.267 OA
HETATM    4  H   UNL     1      22.454  48.676  50.584  1.00  0.00     0.169 HD
ENDROOT
BRANCH   1   5
HETATM    5  C   UNL     1      24.081  46.891  49.657  1.00  0.00     0.033 A 
HETATM    6  C   UNL     1      24.116  45.486  49.610  1.00  0.00     0.034 A 
HETATM    7  C   UNL     1      25.106  44.734  50.280  1.00  0.00     0.056 A 
HETATM    8  C   UNL     1      26.085  45.421  51.031  1.00  0.00    -0.015 A 
HETATM    9  C   UNL     1      26.053  46.827  51.068  1.00  0.00     0.011 A 
HETATM   10  C   UNL     1      25.063  47.553  50.398  1.00  0.00     0.017 A 
BRANCH   7  11
HETATM   11  C   UNL     1      25.032  43.219  50.199  1.00  0.00     0.418 C 
HETATM   12  F   UNL     1      24.175  42.758  49.245  1.00  0.00    -0.166 F 
HETATM   13  F   UNL     1      26.240  42.654  49.931  1.00  0.00    -0.166 F 
HETATM   14  F   UNL     1      24.604  42.651  51.361  1.00  0.00    -0.166 F 
ENDBRANCH   7  11
BRANCH   8  15
HETATM   15  C   UNL     1      27.154  44.705  51.833  1.00  0.00     0.312 C 
BRANCH  15  16
HETATM   16  N   UNL     1      26.722  44.388  53.204  1.00  0.00     0.096 N 
HETATM   17  C   UNL     1      27.292  45.276  54.235  1.00  0.00     0.300 C 
HETATM   18  C   UNL     1      28.799  45.079  54.496  1.00  0.00     0.265 C 
HETATM   19  N   UNL     1      29.103  43.623  54.827  1.00  0.00    -0.068 N 
HETATM   20  H   UNL     1      28.628  43.416  55.717  1.00  0.00     0.280 HD
HETATM   21  C   UNL     1      28.501  42.669  53.794  1.00  0.00     0.265 C 
HETATM   22  C   UNL     1      27.010  42.982  53.550  1.00  0.00     0.300 C 
BRANCH  19  23
HETATM   23  C   UNL     1      30.578  43.341  55.010  1.00  0.00     0.230 C 
HETATM   24  C   UNL     1      31.024  43.617  56.433  1.00  0.00     0.034 C 
ENDBRANCH  19  23
ENDBRANCH  15  16
ENDBRANCH   8  15
ENDBRANCH   1   5
BRANCH   2  25
HETATM   25  C   UNL     1      21.200  49.348  49.125  1.00  0.00     0.037 A 
HETATM   26  C   UNL     1      19.976  48.884  48.646  1.00  0.00     0.067 A 
HETATM   27  C   UNL     1      19.047  49.782  48.096  1.00  0.00     0.084 A 
HETATM   28  C   UNL     1      19.299  51.162  48.084  1.00  0.00    -0.028 A 
HETATM   29  C   UNL     1      18.282  52.133  47.558  1.00  0.00     0.051 C 
HETATM   30  C   UNL     1      20.510  51.625  48.604  1.00  0.00     0.012 A 
HETATM   31  C   UNL     1      21.454  50.726  49.106  1.00  0.00     0.030 A 
BRANCH  27  32
HETATM   32  O   UNL     1      17.827  49.354  47.619  1.00  0.00    -0.310 OA
BRANCH  32  33
HETATM   33  C   UNL     1      17.797  48.447  46.580  1.00  0.00     0.076 A 
HETATM   34  C   UNL     1      17.543  47.120  46.948  1.00  0.00     0.047 A 
HETATM   35  C   UNL     1      17.486  46.168  45.947  1.00  0.00    -0.020 A 
HETATM   36  C   UNL     1      17.671  46.525  44.614  1.00  0.00     0.041 A 
HETATM   37  C   UNL     1      17.240  44.692  46.038  1.00  0.00     0.144 A 
HETATM   38  N   UNL     1      17.583  45.399  43.813  1.00  0.00    -0.326 N 
HETATM   39  C   UNL     1      17.898  47.825  44.220  1.00  0.00     0.033 A 
HETATM   40  C   UNL     1      17.334  44.261  44.570  1.00  0.00     0.226 A 
HETATM   41  H   UNL     1      17.685  45.375  42.810  1.00  0.00     0.169 HD
HETATM   42  O   UNL     1      17.213  43.128  44.134  1.00  0.00    -0.273 OA
HETATM   43  C   UNL     1      17.944  48.801  45.221  1.00  0.00     0.039 A 
ENDBRANCH  32  33
ENDBRANCH  27  32
ENDBRANCH   2  25
TORSDOF 8
ENDMDL
MODEL 10
REMARK VINA RESULT:      -9.5      4.013     12.900
REMARK  8 active torsions:
REMARK  status: ('A' for Active; 'I' for Inactive)
REMARK    1  A    between atoms: C_2  and  N_3 
REMARK    2  A    between atoms: N_7  and  C_8 
REMARK    3  A    between atoms: C_8  and  C_9 
REMARK    4  A    between atoms: C_10  and  C_11 
REMARK    5  A    between atoms: C_16  and  C_17 
REMARK       I    between atoms: C_17  and  N_18 
REMARK    6  A    between atoms: N_18  and  C_19 
REMARK    7  A    between atoms: C_21  and  O_22 
REMARK    8  A    between atoms: O_22  and  C_23 
ROOT
HETATM    1  C   UNL     1      21.758  47.824  48.438  1.00  0.00     0.256 C 
HETATM    2  N   UNL     1      21.051  48.320  49.519  1.00  0.00    -0.323 N 
HETATM    3  O   UNL     1      21.622  48.177  47.271  1.00  0.00    -0.267 OA
HETATM    4  H   UNL     1      21.250  47.953  50.434  1.00  0.00     0.169 HD
ENDROOT
BRANCH   1   5
HETATM    5  C   UNL     1      22.786  46.763  48.726  1.00  0.00     0.033 A 
HETATM    6  C   UNL     1      23.991  47.166  49.332  1.00  0.00     0.034 A 
HETATM    7  C   UNL     1      25.020  46.250  49.642  1.00  0.00     0.056 A 
HETATM    8  C   UNL     1      24.834  44.888  49.320  1.00  0.00    -0.015 A 
HETATM    9  C   UNL     1      23.624  44.487  48.723  1.00  0.00     0.011 A 
HETATM   10  C   UNL     1      22.618  45.410  48.424  1.00  0.00     0.017 A 
BRANCH   7  11
HETATM   11  C   UNL     1      26.299  46.790  50.258  1.00  0.00     0.418 C 
HETATM   12  F   UNL     1      26.538  46.336  51.521  1.00  0.00    -0.166 F 
HETATM   13  F   UNL     1      27.401  46.476  49.526  1.00  0.00    -0.166 F 
HETATM   14  F   UNL     1      26.297  48.148  50.367  1.00  0.00    -0.166 F 
ENDBRANCH   7  11
BRANCH   8  15
HETATM   15  C   UNL     1      25.900  43.836  49.557  1.00  0.00     0.312 C 
BRANCH  15  16
HETATM   16  N   UNL     1      25.475  42.797  50.509  1.00  0.00     0.096 N 
HETATM   17  C   UNL     1      25.624  43.180  51.926  1.00  0.00     0.300 C 
HETATM   18  C   UNL     1      27.081  43.260  52.424  1.00  0.00     0.265 C 
HETATM   19  N   UNL     1      27.817  41.954  52.150  1.00  0.00    -0.068 N 
HETATM   20  H   UNL     1      27.358  41.230  52.720  1.00  0.00     0.280 HD
HETATM   21  C   UNL     1      27.659  41.509  50.694  1.00  0.00     0.265 C 
HETATM   22  C   UNL     1      26.177  41.521  50.266  1.00  0.00     0.300 C 
BRANCH  19  23
HETATM   23  C   UNL     1      29.280  41.993  52.535  1.00  0.00     0.230 C 
HETATM   24  C   UNL     1      29.599  43.212  53.378  1.00  0.00     0.034 C 
ENDBRANCH  19  23
ENDBRANCH  15  16
ENDBRANCH   8  15
ENDBRANCH   1   5
BRANCH   2  25
HETATM   25  C   UNL     1      20.092  49.358  49.518  1.00  0.00     0.037 A 
HETATM   26  C   UNL     1      18.747  49.188  49.189  1.00  0.00     0.067 A 
HETATM   27  C   UNL     1      17.890  50.298  49.132  1.00  0.00     0.084 A 
HETATM   28  C   UNL     1      18.346  51.580  49.472  1.00  0.00    -0.028 A 
HETATM   29  C   UNL     1      17.418  52.761  49.477  1.00  0.00     0.051 C 
HETATM   30  C   UNL     1      19.685  51.737  49.842  1.00  0.00     0.012 A 
HETATM   31  C   UNL     1      20.549  50.639  49.852  1.00  0.00     0.030 A 
BRANCH  27  32
HETATM   32  O   UNL     1      16.555  50.163  48.814  1.00  0.00    -0.310 OA
BRANCH  32  33
HETATM   33  C   UNL     1      16.203  49.909  47.505  1.00  0.00     0.076 A 
HETATM   34  C   UNL     1      15.099  49.065  47.331  1.00  0.00     0.047 A 
HETATM   35  C   UNL     1      14.690  48.788  46.040  1.00  0.00    -0.020 A 
HETATM   36  C   UNL     1      15.357  49.339  44.949  1.00  0.00     0.041 A 
HETATM   37  C   UNL     1      13.563  47.928  45.554  1.00  0.00     0.144 A 
HETATM   38  N   UNL     1      14.770  48.900  43.774  1.00  0.00    -0.326 N 
HETATM   39  C   UNL     1      16.430  50.191  45.089  1.00  0.00     0.033 A 
HETATM   40  C   UNL     1      13.699  48.053  44.032  1.00  0.00     0.226 A 
HETATM   41  H   UNL     1      15.061  49.142  42.839  1.00  0.00     0.169 HD
HETATM   42  O   UNL     1      13.000  47.513  43.190  1.00  0.00    -0.273 OA
HETATM   43  C   UNL     1      16.846  50.491  46.390  1.00  0.00     0.039 A 
ENDBRANCH  32  33
ENDBRANCH  27  32
ENDBRANCH   2  25
TORSDOF 8
ENDMDL
