MODEL 1
REMARK VINA RESULT:      -7.6      0.000      0.000
REMARK  7 active torsions:
REMARK  status: ('A' for Active; 'I' for Inactive)
REMARK       I    between atoms: C_2  and  N_3 
REMARK    1  A    between atoms: N_3  and  C_4 
REMARK    2  A    between atoms: C_7  and  N_8 
REMARK       I    between atoms: N_8  and  C_9 
REMARK    3  A    between atoms: C_9  and  C_10 
REMARK    4  A    between atoms: C_11  and  C_12 
REMARK    5  A    between atoms: C_13  and  O_14 
REMARK    6  A    between atoms: N_20  and  C_21 
REMARK    7  A    between atoms: C_24  and  O_25 
ROOT
HETATM    1  C   UNL     1      18.311  48.252  48.102  1.00  0.00     0.106 C 
HETATM    2  C   UNL     1      18.108  48.134  46.578  1.00  0.00     0.142 C 
HETATM    3  N   UNL     1      18.251  46.707  46.179  1.00  0.00    -0.308 N 
HETATM    4  C   UNL     1      17.551  45.706  46.859  1.00  0.00     0.225 C 
HETATM    5  O   UNL     1      17.252  44.602  46.402  1.00  0.00    -0.273 OA
HETATM    6  C   UNL     1      17.351  45.938  48.352  1.00  0.00     0.104 C 
HETATM    7  C   UNL     1      17.334  47.368  48.860  1.00  0.00     0.026 C 
ENDROOT
BRANCH   1   8
HETATM    8  C   UNL     1      18.240  49.665  48.648  1.00  0.00     0.228 C 
HETATM    9  N   UNL     1      19.341  50.389  48.992  1.00  0.00    -0.327 N 
HETATM   10  H   UNL     1      19.030  51.306  49.301  1.00  0.00     0.169 HD
HETATM   11  O   UNL     1      17.158  50.214  48.876  1.00  0.00    -0.273 OA
BRANCH   9  12
HETATM   12  C   UNL     1      20.735  50.224  48.929  1.00  0.00     0.034 A 
HETATM   13  C   UNL     1      21.686  51.219  48.729  1.00  0.00     0.032 A 
HETATM   14  C   UNL     1      23.060  50.929  48.794  1.00  0.00     0.032 A 
HETATM   15  C   UNL     1      23.509  49.630  49.026  1.00  0.00     0.034 A 
HETATM   16  C   UNL     1      22.561  48.613  49.141  1.00  0.00     0.032 A 
HETATM   17  C   UNL     1      21.194  48.909  49.092  1.00  0.00     0.032 A 
BRANCH  15  18
HETATM   18  N   UNL     1      24.864  49.269  49.165  1.00  0.00    -0.328 N 
HETATM   19  C   UNL     1      25.914  49.620  48.336  1.00  0.00     0.218 C 
HETATM   20  C   UNL     1      27.246  49.118  48.840  1.00  0.00     0.117 C 
HETATM   21  O   UNL     1      25.850  50.295  47.314  1.00  0.00    -0.274 OA
HETATM   22  H   UNL     1      25.098  48.749  50.001  1.00  0.00     0.169 HD
ENDBRANCH  15  18
ENDBRANCH   9  12
ENDBRANCH   1   8
BRANCH   2  23
HETATM   23  C   UNL     1      16.844  48.759  45.958  1.00  0.00    -0.001 A 
HETATM   24  C   UNL     1      16.951  49.849  45.059  1.00  0.00     0.076 A 
HETATM   25  C   UNL     1      15.795  50.456  44.547  1.00  0.00     0.037 A 
HETATM   26  C   UNL     1      14.530  49.984  44.892  1.00  0.00     0.003 A 
HETATM   27  C   UNL     1      14.409  48.893  45.742  1.00  0.00     0.001 A 
HETATM   28  C   UNL     1      15.553  48.284  46.263  1.00  0.00     0.012 A 
BRANCH  24  29
HETATM   29  O   UNL     1      18.222  50.270  44.753  1.00  0.00    -0.355 OA
HETATM   30  C   UNL     1      18.492  50.602  43.397  1.00  0.00     0.210 C 
ENDBRANCH  24  29
ENDBRANCH   2  23
BRANCH   3  31
HETATM   31  C   UNL     1      19.195  46.352  45.160  1.00  0.00     0.038 A 
HETATM   32  C   UNL     1      20.439  45.794  45.471  1.00  0.00     0.032 A 
HETATM   33  C   UNL     1      21.407  45.592  44.480  1.00  0.00     0.039 A 
HETATM   34  C   UNL     1      21.165  45.974  43.162  1.00  0.00     0.068 A 
HETATM   35  C   UNL     1      19.920  46.498  42.829  1.00  0.00     0.039 A 
HETATM   36  C   UNL     1      18.943  46.679  43.819  1.00  0.00     0.032 A 
BRANCH  34  37
HETATM   37  O   UNL     1      22.203  45.785  42.294  1.00  0.00    -0.356 OA
HETATM   38  C   UNL     1      22.097  46.463  41.046  1.00  0.00     0.210 C 
ENDBRANCH  34  37
ENDBRANCH   3  31
TORSDOF 7
ENDMDL
MODEL 2
REMARK VINA RESULT:      -7.5     24.933     28.371
REMARK  7 active torsions:
REMARK  status: ('A' for Active; 'I' for Inactive)
REMARK       I    between atoms: C_2  and  N_3 
REMARK    1  A    between atoms: N_3  and  C_4 
REMARK    2  A    between atoms: C_7  and  N_8 
REMARK       I    between atoms: N_8  and  C_9 
REMARK    3  A    between atoms: C_9  and  C_10 
REMARK    4  A    between atoms: C_11  and  C_12 
REMARK    5  A    between atoms: C_13  and  O_14 
REMARK    6  A    between atoms: N_20  and  C_21 
REMARK    7  A    between atoms: C_24  and  O_25 
ROOT
HETATM    1  C   UNL     1      37.524  46.095  64.490  1.00  0.00     0.106 C 
HETATM    2  C   UNL     1      38.530  45.824  65.626  1.00  0.00     0.142 C 
HETATM    3  N   UNL     1      39.668  46.776  65.502  1.00  0.00    -0.308 N 
HETATM    4  C   UNL     1      39.435  48.146  65.353  1.00  0.00     0.225 C 
HETATM    5  O   UNL     1      40.222  49.045  65.651  1.00  0.00    -0.273 OA
HETATM    6  C   UNL     1      38.194  48.521  64.551  1.00  0.00     0.104 C 
HETATM    7  C   UNL     1      37.040  47.537  64.512  1.00  0.00     0.026 C 
ENDROOT
BRANCH   1   8
HETATM    8  C   UNL     1      36.328  45.164  64.461  1.00  0.00     0.228 C 
HETATM    9  N   UNL     1      36.426  43.829  64.208  1.00  0.00    -0.327 N 
HETATM   10  H   UNL     1      35.495  43.428  64.273  1.00  0.00     0.169 HD
HETATM   11  O   UNL     1      35.176  45.589  64.601  1.00  0.00    -0.273 OA
BRANCH   9  12
HETATM   12  C   UNL     1      37.459  42.902  63.994  1.00  0.00     0.034 A 
HETATM   13  C   UNL     1      38.539  43.039  63.129  1.00  0.00     0.032 A 
HETATM   14  C   UNL     1      39.562  42.075  63.092  1.00  0.00     0.032 A 
HETATM   15  C   UNL     1      39.507  40.938  63.895  1.00  0.00     0.034 A 
HETATM   16  C   UNL     1      38.384  40.752  64.701  1.00  0.00     0.032 A 
HETATM   17  C   UNL     1      37.376  41.722  64.748  1.00  0.00     0.032 A 
BRANCH  15  18
HETATM   18  N   UNL     1      40.518  39.959  63.959  1.00  0.00    -0.328 N 
HETATM   19  C   UNL     1      41.488  39.818  64.935  1.00  0.00     0.218 C 
HETATM   20  C   UNL     1      42.357  38.602  64.720  1.00  0.00     0.117 C 
HETATM   21  O   UNL     1      41.656  40.537  65.914  1.00  0.00    -0.274 OA
HETATM   22  H   UNL     1      40.486  39.244  63.243  1.00  0.00     0.169 HD
ENDBRANCH  15  18
ENDBRANCH   9  12
ENDBRANCH   1   8
BRANCH   2  23
HETATM   23  C   UNL     1      38.005  45.774  67.072  1.00  0.00    -0.001 A 
HETATM   24  C   UNL     1      38.205  44.619  67.868  1.00  0.00     0.076 A 
HETATM   25  C   UNL     1      37.670  44.552  69.162  1.00  0.00     0.037 A 
HETATM   26  C   UNL     1      36.956  45.624  69.694  1.00  0.00     0.003 A 
HETATM   27  C   UNL     1      36.782  46.778  68.941  1.00  0.00     0.001 A 
HETATM   28  C   UNL     1      37.307  46.854  67.649  1.00  0.00     0.012 A 
BRANCH  24  29
HETATM   29  O   UNL     1      38.918  43.593  67.294  1.00  0.00    -0.355 OA
HETATM   30  C   UNL     1      40.043  43.099  68.008  1.00  0.00     0.210 C 
ENDBRANCH  24  29
ENDBRANCH   2  23
BRANCH   3  31
HETATM   31  C   UNL     1      41.007  46.267  65.430  1.00  0.00     0.038 A 
HETATM   32  C   UNL     1      41.562  45.825  64.225  1.00  0.00     0.032 A 
HETATM   33  C   UNL     1      42.811  45.193  64.196  1.00  0.00     0.039 A 
HETATM   34  C   UNL     1      43.518  44.962  65.373  1.00  0.00     0.068 A 
HETATM   35  C   UNL     1      42.997  45.428  66.577  1.00  0.00     0.039 A 
HETATM   36  C   UNL     1      41.756  46.080  66.602  1.00  0.00     0.032 A 
BRANCH  34  37
HETATM   37  O   UNL     1      44.697  44.285  65.230  1.00  0.00    -0.356 OA
HETATM   38  C   UNL     1      44.846  43.122  66.039  1.00  0.00     0.210 C 
ENDBRANCH  34  37
ENDBRANCH   3  31
TORSDOF 7
ENDMDL
MODEL 3
REMARK VINA RESULT:      -7.5      3.271      7.411
REMARK  7 active torsions:
REMARK  status: ('A' for Active; 'I' for Inactive)
REMARK       I    between atoms: C_2  and  N_3 
REMARK    1  A    between atoms: N_3  and  C_4 
REMARK    2  A    between atoms: C_7  and  N_8 
REMARK       I    between atoms: N_8  and  C_9 
REMARK    3  A    between atoms: C_9  and  C_10 
REMARK    4  A    between atoms: C_11  and  C_12 
REMARK    5  A    between atoms: C_13  and  O_14 
REMARK    6  A    between atoms: N_20  and  C_21 
REMARK    7  A    between atoms: C_24  and  O_25 
ROOT
HETATM    1  C   UNL     1      19.233  51.065  46.775  1.00  0.00     0.106 C 
HETATM    2  C   UNL     1      19.864  49.793  47.374  1.00  0.00     0.142 C 
HETATM    3  N   UNL     1      20.766  50.180  48.494  1.00  0.00    -0.308 N 
HETATM    4  C   UNL     1      20.319  51.041  49.500  1.00  0.00     0.225 C 
HETATM    5  O   UNL     1      20.773  51.108  50.643  1.00  0.00    -0.273 OA
HETATM    6  C   UNL     1      19.344  52.126  49.056  1.00  0.00     0.104 C 
HETATM    7  C   UNL     1      18.486  51.862  47.833  1.00  0.00     0.026 C 
ENDROOT
BRANCH   1   8
HETATM    8  C   UNL     1      18.322  50.828  45.587  1.00  0.00     0.228 C 
HETATM    9  N   UNL     1      17.010  51.196  45.566  1.00  0.00    -0.327 N 
HETATM   10  H   UNL     1      16.631  50.955  44.655  1.00  0.00     0.169 HD
HETATM   11  O   UNL     1      18.712  50.218  44.586  1.00  0.00    -0.273 OA
BRANCH   9  12
HETATM   12  C   UNL     1      16.128  51.887  46.414  1.00  0.00     0.034 A 
HETATM   13  C   UNL     1      15.798  51.557  47.724  1.00  0.00     0.032 A 
HETATM   14  C   UNL     1      14.980  52.399  48.497  1.00  0.00     0.032 A 
HETATM   15  C   UNL     1      14.448  53.571  47.963  1.00  0.00     0.034 A 
HETATM   16  C   UNL     1      14.705  53.863  46.623  1.00  0.00     0.032 A 
HETATM   17  C   UNL     1      15.534  53.031  45.862  1.00  0.00     0.032 A 
BRANCH  15  18
HETATM   18  N   UNL     1      13.671  54.495  48.688  1.00  0.00    -0.328 N 
HETATM   19  C   UNL     1      14.124  55.495  49.530  1.00  0.00     0.218 C 
HETATM   20  C   UNL     1      13.006  56.349  50.075  1.00  0.00     0.117 C 
HETATM   21  O   UNL     1      15.291  55.744  49.812  1.00  0.00    -0.274 OA
HETATM   22  H   UNL     1      12.673  54.460  48.521  1.00  0.00     0.169 HD
ENDBRANCH  15  18
ENDBRANCH   9  12
ENDBRANCH   1   8
BRANCH   2  23
HETATM   23  C   UNL     1      18.932  48.639  47.787  1.00  0.00    -0.001 A 
HETATM   24  C   UNL     1      19.014  47.384  47.134  1.00  0.00     0.076 A 
HETATM   25  C   UNL     1      18.120  46.356  47.469  1.00  0.00     0.037 A 
HETATM   26  C   UNL     1      17.159  46.542  48.461  1.00  0.00     0.003 A 
HETATM   27  C   UNL     1      17.090  47.753  49.135  1.00  0.00     0.001 A 
HETATM   28  C   UNL     1      17.971  48.786  48.807  1.00  0.00     0.012 A 
BRANCH  24  29
HETATM   29  O   UNL     1      19.981  47.256  46.167  1.00  0.00    -0.355 OA
HETATM   30  C   UNL     1      21.090  46.415  46.459  1.00  0.00     0.210 C 
ENDBRANCH  24  29
ENDBRANCH   2  23
BRANCH   3  31
HETATM   31  C   UNL     1      22.133  49.748  48.478  1.00  0.00     0.038 A 
HETATM   32  C   UNL     1      22.547  48.591  49.144  1.00  0.00     0.032 A 
HETATM   33  C   UNL     1      23.906  48.264  49.245  1.00  0.00     0.039 A 
HETATM   34  C   UNL     1      24.880  49.104  48.710  1.00  0.00     0.068 A 
HETATM   35  C   UNL     1      24.483  50.241  48.012  1.00  0.00     0.039 A 
HETATM   36  C   UNL     1      23.121  50.555  47.893  1.00  0.00     0.032 A 
BRANCH  34  37
HETATM   37  O   UNL     1      26.173  48.715  48.920  1.00  0.00    -0.356 OA
HETATM   38  C   UNL     1      27.162  49.722  48.725  1.00  0.00     0.210 C 
ENDBRANCH  34  37
ENDBRANCH   3  31
TORSDOF 7
ENDMDL
MODEL 4
REMARK VINA RESULT:      -7.5      1.742      2.370
REMARK  7 active torsions:
REMARK  status: ('A' for Active; 'I' for Inactive)
REMARK       I    between atoms: C_2  and  N_3 
REMARK    1  A    between atoms: N_3  and  C_4 
REMARK    2  A    between atoms: C_7  and  N_8 
REMARK       I    between atoms: N_8  and  C_9 
REMARK    3  A    between atoms: C_9  and  C_10 
REMARK    4  A    between atoms: C_11  and  C_12 
REMARK    5  A    between atoms: C_13  and  O_14 
REMARK    6  A    between atoms: N_20  and  C_21 
REMARK    7  A    between atoms: C_24  and  O_25 
ROOT
HETATM    1  C   UNL     1      17.653  50.594  48.098  1.00  0.00     0.106 C 
HETATM    2  C   UNL     1      17.602  50.303  46.585  1.00  0.00     0.142 C 
HETATM    3  N   UNL     1      17.006  48.955  46.372  1.00  0.00    -0.308 N 
HETATM    4  C   UNL     1      15.804  48.603  46.993  1.00  0.00     0.225 C 
HETATM    5  O   UNL     1      15.018  47.740  46.600  1.00  0.00    -0.273 OA
HETATM    6  C   UNL     1      15.582  49.191  48.382  1.00  0.00     0.104 C 
HETATM    7  C   UNL     1      16.272  50.498  48.727  1.00  0.00     0.026 C 
ENDROOT
BRANCH   1   8
HETATM    8  C   UNL     1      18.284  51.922  48.471  1.00  0.00     0.228 C 
HETATM    9  N   UNL     1      19.613  52.072  48.729  1.00  0.00    -0.327 N 
HETATM   10  H   UNL     1      19.786  53.053  48.925  1.00  0.00     0.169 HD
HETATM   11  O   UNL     1      17.600  52.939  48.628  1.00  0.00    -0.273 OA
BRANCH   9  12
HETATM   12  C   UNL     1      20.760  51.262  48.690  1.00  0.00     0.034 A 
HETATM   13  C   UNL     1      21.230  50.531  47.604  1.00  0.00     0.032 A 
HETATM   14  C   UNL     1      22.455  49.844  47.671  1.00  0.00     0.032 A 
HETATM   15  C   UNL     1      23.217  49.848  48.838  1.00  0.00     0.034 A 
HETATM   16  C   UNL     1      22.709  50.507  49.957  1.00  0.00     0.032 A 
HETATM   17  C   UNL     1      21.497  51.204  49.882  1.00  0.00     0.032 A 
BRANCH  15  18
HETATM   18  N   UNL     1      24.480  49.236  48.966  1.00  0.00    -0.328 N 
HETATM   19  C   UNL     1      25.655  49.597  48.331  1.00  0.00     0.218 C 
HETATM   20  C   UNL     1      26.834  48.764  48.772  1.00  0.00     0.117 C 
HETATM   21  O   UNL     1      25.804  50.507  47.523  1.00  0.00    -0.274 OA
HETATM   22  H   UNL     1      24.542  48.491  49.648  1.00  0.00     0.169 HD
ENDBRANCH  15  18
ENDBRANCH   9  12
ENDBRANCH   1   8
BRANCH   2  23
HETATM   23  C   UNL     1      16.953  51.348  45.660  1.00  0.00    -0.001 A 
HETATM   24  C   UNL     1      17.555  51.679  44.420  1.00  0.00     0.076 A 
HETATM   25  C   UNL     1      16.996  52.677  43.610  1.00  0.00     0.037 A 
HETATM   26  C   UNL     1      15.832  53.340  43.996  1.00  0.00     0.003 A 
HETATM   27  C   UNL     1      15.210  53.001  45.189  1.00  0.00     0.001 A 
HETATM   28  C   UNL     1      15.760  52.012  46.007  1.00  0.00     0.012 A 
BRANCH  24  29
HETATM   29  O   UNL     1      18.699  50.993  44.090  1.00  0.00    -0.355 OA
HETATM   30  C   UNL     1      18.886  50.656  42.721  1.00  0.00     0.210 C 
ENDBRANCH  24  29
ENDBRANCH   2  23
BRANCH   3  31
HETATM   31  C   UNL     1      17.728  47.978  45.609  1.00  0.00     0.038 A 
HETATM   32  C   UNL     1      18.894  47.380  46.096  1.00  0.00     0.032 A 
HETATM   33  C   UNL     1      19.669  46.543  45.282  1.00  0.00     0.039 A 
HETATM   34  C   UNL     1      19.311  46.313  43.956  1.00  0.00     0.068 A 
HETATM   35  C   UNL     1      18.134  46.871  43.466  1.00  0.00     0.039 A 
HETATM   36  C   UNL     1      17.348  47.691  44.289  1.00  0.00     0.032 A 
BRANCH  34  37
HETATM   37  O   UNL     1      20.173  45.529  43.241  1.00  0.00    -0.356 OA
HETATM   38  C   UNL     1      21.381  46.158  42.824  1.00  0.00     0.210 C 
ENDBRANCH  34  37
ENDBRANCH   3  31
TORSDOF 7
ENDMDL
MODEL 5
REMARK VINA RESULT:      -7.4     25.261     28.744
REMARK  7 active torsions:
REMARK  status: ('A' for Active; 'I' for Inactive)
REMARK       I    between atoms: C_2  and  N_3 
REMARK    1  A    between atoms: N_3  and  C_4 
REMARK    2  A    between atoms: C_7  and  N_8 
REMARK       I    between atoms: N_8  and  C_9 
REMARK    3  A    between atoms: C_9  and  C_10 
REMARK    4  A    between atoms: C_11  and  C_12 
REMARK    5  A    between atoms: C_13  and  O_14 
REMARK    6  A    between atoms: N_20  and  C_21 
REMARK    7  A    between atoms: C_24  and  O_25 
ROOT
HETATM    1  C   UNL     1      39.088  44.466  67.001  1.00  0.00     0.106 C 
HETATM    2  C   UNL     1      40.128  44.276  65.879  1.00  0.00     0.142 C 
HETATM    3  N   UNL     1      41.494  44.345  66.467  1.00  0.00    -0.308 N 
HETATM    4  C   UNL     1      41.822  43.583  67.591  1.00  0.00     0.225 C 
HETATM    5  O   UNL     1      42.958  43.229  67.913  1.00  0.00    -0.273 OA
HETATM    6  C   UNL     1      40.699  43.376  68.600  1.00  0.00     0.104 C 
HETATM    7  C   UNL     1      39.267  43.431  68.101  1.00  0.00     0.026 C 
ENDROOT
BRANCH   1   8
HETATM    8  C   UNL     1      37.644  44.466  66.540  1.00  0.00     0.228 C 
HETATM    9  N   UNL     1      36.958  45.601  66.231  1.00  0.00    -0.327 N 
HETATM   10  H   UNL     1      36.027  45.332  65.925  1.00  0.00     0.169 HD
HETATM   11  O   UNL     1      36.985  43.423  66.485  1.00  0.00    -0.273 OA
BRANCH   9  12
HETATM   12  C   UNL     1      37.242  46.974  66.136  1.00  0.00     0.034 A 
HETATM   13  C   UNL     1      37.805  47.638  65.052  1.00  0.00     0.032 A 
HETATM   14  C   UNL     1      37.937  49.038  65.052  1.00  0.00     0.032 A 
HETATM   15  C   UNL     1      37.538  49.797  66.150  1.00  0.00     0.034 A 
HETATM   16  C   UNL     1      37.052  49.129  67.274  1.00  0.00     0.032 A 
HETATM   17  C   UNL     1      36.907  47.737  67.265  1.00  0.00     0.032 A 
BRANCH  15  18
HETATM   18  N   UNL     1      37.581  51.204  66.203  1.00  0.00    -0.328 N 
HETATM   19  C   UNL     1      38.442  51.990  66.948  1.00  0.00     0.218 C 
HETATM   20  C   UNL     1      38.252  53.466  66.692  1.00  0.00     0.117 C 
HETATM   21  O   UNL     1      39.314  51.599  67.716  1.00  0.00    -0.274 OA
HETATM   22  H   UNL     1      36.952  51.689  65.575  1.00  0.00     0.169 HD
ENDBRANCH  15  18
ENDBRANCH   9  12
ENDBRANCH   1   8
BRANCH   2  23
HETATM   23  C   UNL     1      39.986  43.056  64.949  1.00  0.00    -0.001 A 
HETATM   24  C   UNL     1      39.397  43.197  63.668  1.00  0.00     0.076 A 
HETATM   25  C   UNL     1      39.211  42.073  62.851  1.00  0.00     0.037 A 
HETATM   26  C   UNL     1      39.624  40.809  63.272  1.00  0.00     0.003 A 
HETATM   27  C   UNL     1      40.237  40.661  64.508  1.00  0.00     0.001 A 
HETATM   28  C   UNL     1      40.422  41.773  65.333  1.00  0.00     0.012 A 
BRANCH  24  29
HETATM   29  O   UNL     1      39.011  44.464  63.305  1.00  0.00    -0.355 OA
HETATM   30  C   UNL     1      37.647  44.657  62.954  1.00  0.00     0.210 C 
ENDBRANCH  24  29
ENDBRANCH   2  23
BRANCH   3  31
HETATM   31  C   UNL     1      42.442  45.281  65.937  1.00  0.00     0.038 A 
HETATM   32  C   UNL     1      43.206  44.993  64.802  1.00  0.00     0.032 A 
HETATM   33  C   UNL     1      44.231  45.851  64.385  1.00  0.00     0.039 A 
HETATM   34  C   UNL     1      44.534  47.000  65.112  1.00  0.00     0.068 A 
HETATM   35  C   UNL     1      43.760  47.322  66.223  1.00  0.00     0.039 A 
HETATM   36  C   UNL     1      42.719  46.472  66.626  1.00  0.00     0.032 A 
BRANCH  34  37
HETATM   37  O   UNL     1      45.591  47.730  64.645  1.00  0.00    -0.356 OA
HETATM   38  C   UNL     1      46.878  47.313  65.094  1.00  0.00     0.210 C 
ENDBRANCH  34  37
ENDBRANCH   3  31
TORSDOF 7
ENDMDL
MODEL 6
REMARK VINA RESULT:      -7.3      2.751      3.661
REMARK  7 active torsions:
REMARK  status: ('A' for Active; 'I' for Inactive)
REMARK       I    between atoms: C_2  and  N_3 
REMARK    1  A    between atoms: N_3  and  C_4 
REMARK    2  A    between atoms: C_7  and  N_8 
REMARK       I    between atoms: N_8  and  C_9 
REMARK    3  A    between atoms: C_9  and  C_10 
REMARK    4  A    between atoms: C_11  and  C_12 
REMARK    5  A    between atoms: C_13  and  O_14 
REMARK    6  A    between atoms: N_20  and  C_21 
REMARK    7  A    between atoms: C_24  and  O_25 
ROOT
HETATM    1  C   UNL     1      19.043  50.095  48.405  1.00  0.00     0.106 C 
HETATM    2  C   UNL     1      17.727  50.111  47.602  1.00  0.00     0.142 C 
HETATM    3  N   UNL     1      17.126  48.748  47.630  1.00  0.00    -0.308 N 
HETATM    4  C   UNL     1      16.970  48.066  48.839  1.00  0.00     0.225 C 
HETATM    5  O   UNL     1      16.151  47.172  49.059  1.00  0.00    -0.273 OA
HETATM    6  C   UNL     1      18.056  48.310  49.881  1.00  0.00     0.104 C 
HETATM    7  C   UNL     1      18.814  49.624  49.833  1.00  0.00     0.026 C 
ENDROOT
BRANCH   1   8
HETATM    8  C   UNL     1      19.794  51.412  48.425  1.00  0.00     0.228 C 
HETATM    9  N   UNL     1      21.147  51.498  48.558  1.00  0.00    -0.327 N 
HETATM   10  H   UNL     1      21.405  52.480  48.513  1.00  0.00     0.169 HD
HETATM   11  O   UNL     1      19.200  52.494  48.387  1.00  0.00    -0.273 OA
BRANCH   9  12
HETATM   12  C   UNL     1      22.227  50.602  48.634  1.00  0.00     0.034 A 
HETATM   13  C   UNL     1      23.555  50.865  48.317  1.00  0.00     0.032 A 
HETATM   14  C   UNL     1      24.555  49.903  48.542  1.00  0.00     0.032 A 
HETATM   15  C   UNL     1      24.241  48.647  49.056  1.00  0.00     0.034 A 
HETATM   16  C   UNL     1      22.900  48.347  49.294  1.00  0.00     0.032 A 
HETATM   17  C   UNL     1      21.908  49.313  49.086  1.00  0.00     0.032 A 
BRANCH  15  18
HETATM   18  N   UNL     1      25.190  47.653  49.364  1.00  0.00    -0.328 N 
HETATM   19  C   UNL     1      25.555  47.202  50.620  1.00  0.00     0.218 C 
HETATM   20  C   UNL     1      26.548  46.066  50.565  1.00  0.00     0.117 C 
HETATM   21  O   UNL     1      25.129  47.603  51.697  1.00  0.00    -0.274 OA
HETATM   22  H   UNL     1      25.602  47.175  48.572  1.00  0.00     0.169 HD
ENDBRANCH  15  18
ENDBRANCH   9  12
ENDBRANCH   1   8
BRANCH   2  23
HETATM   23  C   UNL     1      16.677  51.185  47.938  1.00  0.00    -0.001 A 
HETATM   24  C   UNL     1      16.150  52.015  46.918  1.00  0.00     0.076 A 
HETATM   25  C   UNL     1      15.242  53.035  47.238  1.00  0.00     0.037 A 
HETATM   26  C   UNL     1      14.827  53.233  48.554  1.00  0.00     0.003 A 
HETATM   27  C   UNL     1      15.306  52.404  49.559  1.00  0.00     0.001 A 
HETATM   28  C   UNL     1      16.214  51.389  49.253  1.00  0.00     0.012 A 
BRANCH  24  29
HETATM   29  O   UNL     1      16.592  51.774  45.640  1.00  0.00    -0.355 OA
HETATM   30  C   UNL     1      16.898  52.903  44.830  1.00  0.00     0.210 C 
ENDBRANCH  24  29
ENDBRANCH   2  23
BRANCH   3  31
HETATM   31  C   UNL     1      16.807  48.094  46.394  1.00  0.00     0.038 A 
HETATM   32  C   UNL     1      15.581  48.291  45.753  1.00  0.00     0.032 A 
HETATM   33  C   UNL     1      15.224  47.534  44.630  1.00  0.00     0.039 A 
HETATM   34  C   UNL     1      16.073  46.542  44.144  1.00  0.00     0.068 A 
HETATM   35  C   UNL     1      17.313  46.358  44.748  1.00  0.00     0.039 A 
HETATM   36  C   UNL     1      17.678  47.133  45.859  1.00  0.00     0.032 A 
BRANCH  34  37
HETATM   37  O   UNL     1      15.596  45.827  43.081  1.00  0.00    -0.356 OA
HETATM   38  C   UNL     1      15.109  46.597  41.986  1.00  0.00     0.210 C 
ENDBRANCH  34  37
ENDBRANCH   3  31
TORSDOF 7
ENDMDL
MODEL 7
REMARK VINA RESULT:      -7.3      4.184      7.247
REMARK  7 active torsions:
REMARK  status: ('A' for Active; 'I' for Inactive)
REMARK       I    between atoms: C_2  and  N_3 
REMARK    1  A    between atoms: N_3  and  C_4 
REMARK    2  A    between atoms: C_7  and  N_8 
REMARK       I    between atoms: N_8  and  C_9 
REMARK    3  A    between atoms: C_9  and  C_10 
REMARK    4  A    between atoms: C_11  and  C_12 
REMARK    5  A    between atoms: C_13  and  O_14 
REMARK    6  A    between atoms: N_20  and  C_21 
REMARK    7  A    between atoms: C_24  and  O_25 
ROOT
HETATM    1  C   UNL     1      15.925  50.773  47.258  1.00  0.00     0.106 C 
HETATM    2  C   UNL     1      17.332  50.668  46.638  1.00  0.00     0.142 C 
HETATM    3  N   UNL     1      18.147  49.719  47.446  1.00  0.00    -0.308 N 
HETATM    4  C   UNL     1      17.648  48.457  47.777  1.00  0.00     0.225 C 
HETATM    5  O   UNL     1      18.325  47.466  48.053  1.00  0.00    -0.273 OA
HETATM    6  C   UNL     1      16.145  48.386  48.026  1.00  0.00     0.104 C 
HETATM    7  C   UNL     1      15.256  49.410  47.346  1.00  0.00     0.026 C 
ENDROOT
BRANCH   1   8
HETATM    8  C   UNL     1      14.992  51.746  46.563  1.00  0.00     0.228 C 
HETATM    9  N   UNL     1      14.488  52.859  47.167  1.00  0.00    -0.327 N 
HETATM   10  H   UNL     1      13.919  53.354  46.486  1.00  0.00     0.169 HD
HETATM   11  O   UNL     1      14.582  51.540  45.416  1.00  0.00    -0.273 OA
BRANCH   9  12
HETATM   12  C   UNL     1      14.639  53.509  48.403  1.00  0.00     0.034 A 
HETATM   13  C   UNL     1      15.204  52.984  49.560  1.00  0.00     0.032 A 
HETATM   14  C   UNL     1      15.389  53.784  50.700  1.00  0.00     0.032 A 
HETATM   15  C   UNL     1      14.983  55.117  50.717  1.00  0.00     0.034 A 
HETATM   16  C   UNL     1      14.338  55.625  49.589  1.00  0.00     0.032 A 
HETATM   17  C   UNL     1      14.170  54.830  48.449  1.00  0.00     0.032 A 
BRANCH  15  18
HETATM   18  N   UNL     1      15.187  55.998  51.796  1.00  0.00    -0.328 N 
HETATM   19  C   UNL     1      14.456  56.074  52.968  1.00  0.00     0.218 C 
HETATM   20  C   UNL     1      15.014  57.087  53.938  1.00  0.00     0.117 C 
HETATM   21  O   UNL     1      13.479  55.397  53.269  1.00  0.00    -0.274 OA
HETATM   22  H   UNL     1      16.001  56.597  51.729  1.00  0.00     0.169 HD
ENDBRANCH  15  18
ENDBRANCH   9  12
ENDBRANCH   1   8
BRANCH   2  23
HETATM   23  C   UNL     1      17.449  50.357  45.135  1.00  0.00    -0.001 A 
HETATM   24  C   UNL     1      17.548  51.409  44.191  1.00  0.00     0.076 A 
HETATM   25  C   UNL     1      17.589  51.124  42.819  1.00  0.00     0.037 A 
HETATM   26  C   UNL     1      17.558  49.807  42.364  1.00  0.00     0.003 A 
HETATM   27  C   UNL     1      17.499  48.763  43.277  1.00  0.00     0.001 A 
HETATM   28  C   UNL     1      17.452  49.035  44.646  1.00  0.00     0.012 A 
BRANCH  24  29
HETATM   29  O   UNL     1      17.576  52.687  44.696  1.00  0.00    -0.355 OA
HETATM   30  C   UNL     1      16.892  53.695  43.962  1.00  0.00     0.210 C 
ENDBRANCH  24  29
ENDBRANCH   2  23
BRANCH   3  31
HETATM   31  C   UNL     1      19.409  50.150  47.976  1.00  0.00     0.038 A 
HETATM   32  C   UNL     1      20.587  50.069  47.228  1.00  0.00     0.032 A 
HETATM   33  C   UNL     1      21.830  50.351  47.808  1.00  0.00     0.039 A 
HETATM   34  C   UNL     1      21.924  50.689  49.156  1.00  0.00     0.068 A 
HETATM   35  C   UNL     1      20.758  50.810  49.906  1.00  0.00     0.039 A 
HETATM   36  C   UNL     1      19.512  50.549  49.317  1.00  0.00     0.032 A 
BRANCH  34  37
HETATM   37  O   UNL     1      23.192  50.885  49.627  1.00  0.00    -0.356 OA
HETATM   38  C   UNL     1      24.238  50.316  48.844  1.00  0.00     0.210 C 
ENDBRANCH  34  37
ENDBRANCH   3  31
TORSDOF 7
ENDMDL
MODEL 8
REMARK VINA RESULT:      -7.3     13.509     19.747
REMARK  7 active torsions:
REMARK  status: ('A' for Active; 'I' for Inactive)
REMARK       I    between atoms: C_2  and  N_3 
REMARK    1  A    between atoms: N_3  and  C_4 
REMARK    2  A    between atoms: C_7  and  N_8 
REMARK       I    between atoms: N_8  and  C_9 
REMARK    3  A    between atoms: C_9  and  C_10 
REMARK    4  A    between atoms: C_11  and  C_12 
REMARK    5  A    between atoms: C_13  and  O_14 
REMARK    6  A    between atoms: N_20  and  C_21 
REMARK    7  A    between atoms: C_24  and  O_25 
ROOT
HETATM    1  C   UNL     1      37.444  51.755  43.480  1.00  0.00     0.106 C 
HETATM    2  C   UNL     1      38.783  51.633  44.233  1.00  0.00     0.142 C 
HETATM    3  N   UNL     1      39.627  50.608  43.559  1.00  0.00    -0.308 N 
HETATM    4  C   UNL     1      39.830  50.653  42.178  1.00  0.00     0.225 C 
HETATM    5  O   UNL     1      40.786  50.162  41.576  1.00  0.00    -0.273 OA
HETATM    6  C   UNL     1      38.652  51.158  41.353  1.00  0.00     0.104 C 
HETATM    7  C   UNL     1      37.664  52.100  42.015  1.00  0.00     0.026 C 
ENDROOT
BRANCH   1   8
HETATM    8  C   UNL     1      36.458  52.735  44.084  1.00  0.00     0.228 C 
HETATM    9  N   UNL     1      35.107  52.619  43.943  1.00  0.00    -0.327 N 
HETATM   10  H   UNL     1      34.672  53.377  44.461  1.00  0.00     0.169 HD
HETATM   11  O   UNL     1      36.838  53.743  44.689  1.00  0.00    -0.273 OA
BRANCH   9  12
HETATM   12  C   UNL     1      34.214  51.696  43.374  1.00  0.00     0.034 A 
HETATM   13  C   UNL     1      32.994  51.282  43.898  1.00  0.00     0.032 A 
HETATM   14  C   UNL     1      32.147  50.430  43.169  1.00  0.00     0.032 A 
HETATM   15  C   UNL     1      32.520  49.947  41.916  1.00  0.00     0.034 A 
HETATM   16  C   UNL     1      33.779  50.290  41.423  1.00  0.00     0.032 A 
HETATM   17  C   UNL     1      34.613  51.152  42.144  1.00  0.00     0.032 A 
BRANCH  15  18
HETATM   18  N   UNL     1      31.704  49.140  41.099  1.00  0.00    -0.328 N 
HETATM   19  C   UNL     1      31.922  47.823  40.736  1.00  0.00     0.218 C 
HETATM   20  C   UNL     1      30.791  47.251  39.915  1.00  0.00     0.117 C 
HETATM   21  O   UNL     1      32.880  47.124  41.047  1.00  0.00    -0.274 OA
HETATM   22  H   UNL     1      30.831  49.555  40.799  1.00  0.00     0.169 HD
ENDBRANCH  15  18
ENDBRANCH   9  12
ENDBRANCH   1   8
BRANCH   2  23
HETATM   23  C   UNL     1      39.586  52.916  44.511  1.00  0.00    -0.001 A 
HETATM   24  C   UNL     1      39.751  53.386  45.838  1.00  0.00     0.076 A 
HETATM   25  C   UNL     1      40.429  54.589  46.080  1.00  0.00     0.037 A 
HETATM   26  C   UNL     1      40.970  55.327  45.029  1.00  0.00     0.003 A 
HETATM   27  C   UNL     1      40.849  54.862  43.727  1.00  0.00     0.001 A 
HETATM   28  C   UNL     1      40.172  53.668  43.472  1.00  0.00     0.012 A 
BRANCH  24  29
HETATM   29  O   UNL     1      39.200  52.617  46.834  1.00  0.00    -0.355 OA
HETATM   30  C   UNL     1      38.628  53.298  47.944  1.00  0.00     0.210 C 
ENDBRANCH  24  29
ENDBRANCH   2  23
BRANCH   3  31
HETATM   31  C   UNL     1      40.144  49.509  44.322  1.00  0.00     0.038 A 
HETATM   32  C   UNL     1      41.459  49.497  44.797  1.00  0.00     0.032 A 
HETATM   33  C   UNL     1      41.994  48.357  45.409  1.00  0.00     0.039 A 
HETATM   34  C   UNL     1      41.236  47.195  45.532  1.00  0.00     0.068 A 
HETATM   35  C   UNL     1      39.914  47.201  45.098  1.00  0.00     0.039 A 
HETATM   36  C   UNL     1      39.372  48.351  44.505  1.00  0.00     0.032 A 
BRANCH  34  37
HETATM   37  O   UNL     1      41.881  46.127  46.091  1.00  0.00    -0.356 OA
HETATM   38  C   UNL     1      41.065  44.998  46.390  1.00  0.00     0.210 C 
ENDBRANCH  34  37
ENDBRANCH   3  31
TORSDOF 7
ENDMDL
MODEL 9
REMARK VINA RESULT:      -7.2      2.245      2.782
REMARK  7 active torsions:
REMARK  status: ('A' for Active; 'I' for Inactive)
REMARK       I    between atoms: C_2  and  N_3 
REMARK    1  A    between atoms: N_3  and  C_4 
REMARK    2  A    between atoms: C_7  and  N_8 
REMARK       I    between atoms: N_8  and  C_9 
REMARK    3  A    between atoms: C_9  and  C_10 
REMARK    4  A    between atoms: C_11  and  C_12 
REMARK    5  A    between atoms: C_13  and  O_14 
REMARK    6  A    between atoms: N_20  and  C_21 
REMARK    7  A    between atoms: C_24  and  O_25 
ROOT
HETATM    1  C   UNL     1      19.711  49.742  48.546  1.00  0.00     0.106 C 
HETATM    2  C   UNL     1      18.757  49.493  47.362  1.00  0.00     0.142 C 
HETATM    3  N   UNL     1      18.144  48.143  47.509  1.00  0.00    -0.308 N 
HETATM    4  C   UNL     1      17.558  47.758  48.718  1.00  0.00     0.225 C 
HETATM    5  O   UNL     1      16.688  46.896  48.852  1.00  0.00    -0.273 OA
HETATM    6  C   UNL     1      18.222  48.303  49.977  1.00  0.00     0.104 C 
HETATM    7  C   UNL     1      18.988  49.609  49.877  1.00  0.00     0.026 C 
ENDROOT
BRANCH   1   8
HETATM    8  C   UNL     1      20.448  51.067  48.504  1.00  0.00     0.228 C 
HETATM    9  N   UNL     1      21.801  51.173  48.615  1.00  0.00    -0.327 N 
HETATM   10  H   UNL     1      22.047  52.155  48.529  1.00  0.00     0.169 HD
HETATM   11  O   UNL     1      19.841  52.140  48.434  1.00  0.00    -0.273 OA
BRANCH   9  12
HETATM   12  C   UNL     1      22.892  50.293  48.710  1.00  0.00     0.034 A 
HETATM   13  C   UNL     1      24.156  50.466  48.157  1.00  0.00     0.032 A 
HETATM   14  C   UNL     1      25.191  49.552  48.420  1.00  0.00     0.032 A 
HETATM   15  C   UNL     1      24.972  48.428  49.215  1.00  0.00     0.034 A 
HETATM   16  C   UNL     1      23.685  48.204  49.702  1.00  0.00     0.032 A 
HETATM   17  C   UNL     1      22.661  49.125  49.451  1.00  0.00     0.032 A 
BRANCH  15  18
HETATM   18  N   UNL     1      25.970  47.501  49.574  1.00  0.00    -0.328 N 
HETATM   19  C   UNL     1      25.864  46.122  49.595  1.00  0.00     0.218 C 
HETATM   20  C   UNL     1      27.165  45.444  49.954  1.00  0.00     0.117 C 
HETATM   21  O   UNL     1      24.871  45.456  49.323  1.00  0.00    -0.274 OA
HETATM   22  H   UNL     1      26.882  47.890  49.776  1.00  0.00     0.169 HD
ENDBRANCH  15  18
ENDBRANCH   9  12
ENDBRANCH   1   8
BRANCH   2  23
HETATM   23  C   UNL     1      17.687  50.555  47.047  1.00  0.00    -0.001 A 
HETATM   24  C   UNL     1      17.700  51.238  45.806  1.00  0.00     0.076 A 
HETATM   25  C   UNL     1      16.763  52.249  45.549  1.00  0.00     0.037 A 
HETATM   26  C   UNL     1      15.795  52.582  46.495  1.00  0.00     0.003 A 
HETATM   27  C   UNL     1      15.746  51.896  47.701  1.00  0.00     0.001 A 
HETATM   28  C   UNL     1      16.677  50.890  47.970  1.00  0.00     0.012 A 
BRANCH  24  29
HETATM   29  O   UNL     1      18.674  50.868  44.911  1.00  0.00    -0.355 OA
HETATM   30  C   UNL     1      18.293  50.736  43.547  1.00  0.00     0.210 C 
ENDBRANCH  24  29
ENDBRANCH   2  23
BRANCH   3  31
HETATM   31  C   UNL     1      18.254  47.199  46.435  1.00  0.00     0.038 A 
HETATM   32  C   UNL     1      19.319  46.296  46.356  1.00  0.00     0.032 A 
HETATM   33  C   UNL     1      19.493  45.485  45.227  1.00  0.00     0.039 A 
HETATM   34  C   UNL     1      18.626  45.582  44.142  1.00  0.00     0.068 A 
HETATM   35  C   UNL     1      17.540  46.449  44.220  1.00  0.00     0.039 A 
HETATM   36  C   UNL     1      17.354  47.245  45.360  1.00  0.00     0.032 A 
BRANCH  34  37
HETATM   37  O   UNL     1      18.928  44.786  43.073  1.00  0.00    -0.356 OA
HETATM   38  C   UNL     1      17.815  44.197  42.406  1.00  0.00     0.210 C 
ENDBRANCH  34  37
ENDBRANCH   3  31
TORSDOF 7
ENDMDL
MODEL 10
REMARK VINA RESULT:      -7.2      2.772      4.704
REMARK  7 active torsions:
REMARK  status: ('A' for Active; 'I' for Inactive)
REMARK       I    between atoms: C_2  and  N_3 
REMARK    1  A    between atoms: N_3  and  C_4 
REMARK    2  A    between atoms: C_7  and  N_8 
REMARK       I    between atoms: N_8  and  C_9 
REMARK    3  A    between atoms: C_9  and  C_10 
REMARK    4  A    between atoms: C_11  and  C_12 
REMARK    5  A    between atoms: C_13  and  O_14 
REMARK    6  A    between atoms: N_20  and  C_21 
REMARK    7  A    between atoms: C_24  and  O_25 
ROOT
HETATM    1  C   UNL     1      17.650  47.785  47.809  1.00  0.00     0.106 C 
HETATM    2  C   UNL     1      18.072  49.059  47.052  1.00  0.00     0.142 C 
HETATM    3  N   UNL     1      17.283  49.158  45.793  1.00  0.00    -0.308 N 
HETATM    4  C   UNL     1      15.893  49.023  45.813  1.00  0.00     0.225 C 
HETATM    5  O   UNL     1      15.114  49.478  44.975  1.00  0.00    -0.273 OA
HETATM    6  C   UNL     1      15.340  48.042  46.842  1.00  0.00     0.104 C 
HETATM    7  C   UNL     1      16.156  47.779  48.093  1.00  0.00     0.026 C 
ENDROOT
BRANCH   1   8
HETATM    8  C   UNL     1      18.408  47.526  49.097  1.00  0.00     0.228 C 
HETATM    9  N   UNL     1      19.483  46.693  49.177  1.00  0.00    -0.327 N 
HETATM   10  H   UNL     1      19.825  46.714  50.133  1.00  0.00     0.169 HD
HETATM   11  O   UNL     1      18.041  48.014  50.170  1.00  0.00    -0.273 OA
BRANCH   9  12
HETATM   12  C   UNL     1      20.257  45.933  48.284  1.00  0.00     0.034 A 
HETATM   13  C   UNL     1      19.824  44.873  47.495  1.00  0.00     0.032 A 
HETATM   14  C   UNL     1      20.684  44.267  46.563  1.00  0.00     0.032 A 
HETATM   15  C   UNL     1      22.005  44.689  46.425  1.00  0.00     0.034 A 
HETATM   16  C   UNL     1      22.470  45.694  47.273  1.00  0.00     0.032 A 
HETATM   17  C   UNL     1      21.606  46.306  48.189  1.00  0.00     0.032 A 
BRANCH  15  18
HETATM   18  N   UNL     1      22.909  44.176  45.475  1.00  0.00    -0.328 N 
HETATM   19  C   UNL     1      23.168  44.671  44.209  1.00  0.00     0.218 C 
HETATM   20  C   UNL     1      24.261  43.910  43.498  1.00  0.00     0.117 C 
HETATM   21  O   UNL     1      22.638  45.640  43.677  1.00  0.00    -0.274 OA
HETATM   22  H   UNL     1      23.476  43.395  45.782  1.00  0.00     0.169 HD
ENDBRANCH  15  18
ENDBRANCH   9  12
ENDBRANCH   1   8
BRANCH   2  23
HETATM   23  C   UNL     1      18.069  50.397  47.814  1.00  0.00    -0.001 A 
HETATM   24  C   UNL     1      19.260  51.156  47.933  1.00  0.00     0.076 A 
HETATM   25  C   UNL     1      19.268  52.342  48.682  1.00  0.00     0.037 A 
HETATM   26  C   UNL     1      18.106  52.804  49.298  1.00  0.00     0.003 A 
HETATM   27  C   UNL     1      16.923  52.091  49.160  1.00  0.00     0.001 A 
HETATM   28  C   UNL     1      16.904  50.907  48.421  1.00  0.00     0.012 A 
BRANCH  24  29
HETATM   29  O   UNL     1      20.374  50.655  47.304  1.00  0.00    -0.355 OA
HETATM   30  C   UNL     1      21.489  50.318  48.119  1.00  0.00     0.210 C 
ENDBRANCH  24  29
ENDBRANCH   2  23
BRANCH   3  31
HETATM   31  C   UNL     1      17.970  49.288  44.541  1.00  0.00     0.038 A 
HETATM   32  C   UNL     1      18.364  50.533  44.043  1.00  0.00     0.032 A 
HETATM   33  C   UNL     1      18.898  50.658  42.754  1.00  0.00     0.039 A 
HETATM   34  C   UNL     1      19.020  49.546  41.925  1.00  0.00     0.068 A 
HETATM   35  C   UNL     1      18.666  48.293  42.417  1.00  0.00     0.039 A 
HETATM   36  C   UNL     1      18.153  48.167  43.716  1.00  0.00     0.032 A 
BRANCH  34  37
HETATM   37  O   UNL     1      19.497  49.797  40.669  1.00  0.00    -0.356 OA
HETATM   38  C   UNL     1      18.694  49.318  39.594  1.00  0.00     0.210 C 
ENDBRANCH  34  37
ENDBRANCH   3  31
TORSDOF 7
ENDMDL
