MODEL 1
REMARK VINA RESULT:      -9.1      0.000      0.000
REMARK  10 active torsions:
REMARK  status: ('A' for Active; 'I' for Inactive)
REMARK    1  A    between atoms: O_2  and  C_3 
REMARK    2  A    between atoms: C_3  and  C_4 
REMARK    3  A    between atoms: C_8  and  N_9 
REMARK       I    between atoms: N_9  and  C_10 
REMARK    4  A    between atoms: C_10  and  C_11 
REMARK    5  A    between atoms: C_12  and  C_13 
REMARK    6  A    between atoms: C_22  and  C_23 
REMARK    7  A    between atoms: C_23  and  N_24 
REMARK    8  A    between atoms: C_26  and  C_27 
REMARK    9  A    between atoms: C_27  and  C_28 
REMARK   10  A    between atoms: C_28  and  O_29 
ROOT
HETATM    1  C   UNL     1      25.120  48.346  49.205  1.00  0.00     0.110 C 
HETATM    2  S   UNL     1      26.574  47.618  49.734  1.00  0.00    -0.061 SA
HETATM    3  C   UNL     1      25.766  46.226  50.263  1.00  0.00     0.111 A 
HETATM    4  C   UNL     1      24.393  46.281  50.058  1.00  0.00     0.028 A 
HETATM    5  C   UNL     1      24.006  47.571  49.525  1.00  0.00     0.071 C 
HETATM    6  N   UNL     1      26.472  45.204  50.797  1.00  0.00    -0.243 NA
HETATM    7  C   UNL     1      25.751  44.107  51.106  1.00  0.00     0.061 A 
HETATM    8  C   UNL     1      24.383  44.001  50.894  1.00  0.00     0.030 A 
HETATM    9  C   UNL     1      23.694  45.091  50.367  1.00  0.00     0.019 A 
ENDROOT
BRANCH   5  10
HETATM   10  N   UNL     1      22.716  48.057  49.266  1.00  0.00    -0.321 N 
HETATM   11  C   UNL     1      21.942  47.757  48.169  1.00  0.00     0.245 C 
HETATM   12  O   UNL     1      22.212  46.957  47.281  1.00  0.00    -0.268 OA
HETATM   13  H   UNL     1      22.251  48.508  50.055  1.00  0.00     0.169 HD
BRANCH  11  14
HETATM   14  C   UNL     1      20.646  48.491  48.183  1.00  0.00     0.075 C 
HETATM   15  C   UNL     1      20.478  49.528  49.017  1.00  0.00     0.017 C 
BRANCH  15  16
HETATM   16  C   UNL     1      19.206  50.247  49.139  1.00  0.00    -0.036 A 
HETATM   17  C   UNL     1      18.034  49.624  48.688  1.00  0.00     0.014 A 
HETATM   18  C   UNL     1      16.804  50.280  48.786  1.00  0.00     0.043 A 
HETATM   19  C   UNL     1      16.748  51.550  49.346  1.00  0.00     0.116 A 
HETATM   20  F   UNL     1      15.570  52.179  49.438  1.00  0.00    -0.206 F 
HETATM   21  C   UNL     1      17.897  52.175  49.817  1.00  0.00     0.043 A 
HETATM   22  C   UNL     1      19.128  51.523  49.716  1.00  0.00     0.014 A 
ENDBRANCH  15  16
ENDBRANCH  11  14
ENDBRANCH   5  10
BRANCH   1  23
HETATM   23  C   UNL     1      25.109  49.646  48.548  1.00  0.00     0.302 C 
HETATM   24  O   UNL     1      25.879  49.952  47.642  1.00  0.00    -0.259 OA
BRANCH  23  25
HETATM   25  O   UNL     1      24.167  50.479  49.071  1.00  0.00    -0.322 OA
HETATM   26  C   UNL     1      23.427  51.219  48.096  1.00  0.00     0.213 C 
ENDBRANCH  23  25
ENDBRANCH   1  23
BRANCH   7  27
HETATM   27  C   UNL     1      26.507  42.958  51.746  1.00  0.00     0.294 C 
BRANCH  27  28
HETATM   28  N   UNL     1      27.715  43.344  52.611  1.00  0.00    -0.061 N 
HETATM   29  H   UNL     1      27.930  44.316  52.356  1.00  0.00     0.280 HD
HETATM   30  C   UNL     1      27.472  43.346  54.130  1.00  0.00     0.190 C 
HETATM   31  C   UNL     1      28.767  43.833  54.812  1.00  0.00     0.033 C 
HETATM   32  C   UNL     1      29.994  43.027  54.410  1.00  0.00     0.004 C 
HETATM   33  C   UNL     1      30.166  43.030  52.901  1.00  0.00     0.028 C 
HETATM   34  C   UNL     1      28.917  42.503  52.219  1.00  0.00     0.235 C 
BRANCH  30  35
HETATM   35  C   UNL     1      26.332  44.307  54.510  1.00  0.00     0.059 C 
BRANCH  35  36
HETATM   36  C   UNL     1      26.794  45.740  54.758  1.00  0.00     0.166 C 
BRANCH  36  37
HETATM   37  O   UNL     1      26.892  46.378  53.494  1.00  0.00    -0.401 OA
HETATM   38  H   UNL     1      26.520  45.774  52.826  1.00  0.00     0.209 HD
ENDBRANCH  36  37
ENDBRANCH  35  36
ENDBRANCH  30  35
ENDBRANCH  27  28
ENDBRANCH   7  27
TORSDOF 10
ENDMDL
MODEL 2
REMARK VINA RESULT:      -9.1      4.224     10.456
REMARK  10 active torsions:
REMARK  status: ('A' for Active; 'I' for Inactive)
REMARK    1  A    between atoms: O_2  and  C_3 
REMARK    2  A    between atoms: C_3  and  C_4 
REMARK    3  A    between atoms: C_8  and  N_9 
REMARK       I    between atoms: N_9  and  C_10 
REMARK    4  A    between atoms: C_10  and  C_11 
REMARK    5  A    between atoms: C_12  and  C_13 
REMARK    6  A    between atoms: C_22  and  C_23 
REMARK    7  A    between atoms: C_23  and  N_24 
REMARK    8  A    between atoms: C_26  and  C_27 
REMARK    9  A    between atoms: C_27  and  C_28 
REMARK   10  A    between atoms: C_28  and  O_29 
ROOT
HETATM    1  C   UNL     1      25.240  42.853  49.937  1.00  0.00     0.110 C 
HETATM    2  S   UNL     1      24.121  43.228  48.699  1.00  0.00    -0.061 SA
HETATM    3  C   UNL     1      23.961  44.828  49.232  1.00  0.00     0.111 A 
HETATM    4  C   UNL     1      24.738  45.112  50.348  1.00  0.00     0.028 A 
HETATM    5  C   UNL     1      25.413  43.920  50.819  1.00  0.00     0.071 C 
HETATM    6  N   UNL     1      23.154  45.679  48.560  1.00  0.00    -0.243 NA
HETATM    7  C   UNL     1      23.161  46.952  49.007  1.00  0.00     0.061 A 
HETATM    8  C   UNL     1      23.938  47.388  50.073  1.00  0.00     0.030 A 
HETATM    9  C   UNL     1      24.734  46.467  50.751  1.00  0.00     0.019 A 
ENDROOT
BRANCH   5  10
HETATM   10  N   UNL     1      26.211  43.763  51.961  1.00  0.00    -0.321 N 
HETATM   11  C   UNL     1      25.813  43.961  53.263  1.00  0.00     0.245 C 
HETATM   12  O   UNL     1      24.680  44.225  53.647  1.00  0.00    -0.268 OA
HETATM   13  H   UNL     1      27.095  43.273  51.814  1.00  0.00     0.169 HD
BRANCH  11  14
HETATM   14  C   UNL     1      26.931  43.760  54.226  1.00  0.00     0.075 C 
HETATM   15  C   UNL     1      27.940  44.643  54.267  1.00  0.00     0.017 C 
BRANCH  15  16
HETATM   16  C   UNL     1      29.109  44.468  55.134  1.00  0.00    -0.036 A 
HETATM   17  C   UNL     1      29.913  43.332  54.961  1.00  0.00     0.014 A 
HETATM   18  C   UNL     1      31.033  43.131  55.771  1.00  0.00     0.043 A 
HETATM   19  C   UNL     1      31.355  44.072  56.741  1.00  0.00     0.116 A 
HETATM   20  F   UNL     1      32.428  43.878  57.518  1.00  0.00    -0.206 F 
HETATM   21  C   UNL     1      30.581  45.214  56.913  1.00  0.00     0.043 A 
HETATM   22  C   UNL     1      29.458  45.415  56.108  1.00  0.00     0.014 A 
ENDBRANCH  15  16
ENDBRANCH  11  14
ENDBRANCH   5  10
BRANCH   1  23
HETATM   23  C   UNL     1      25.866  41.542  50.033  1.00  0.00     0.302 C 
HETATM   24  O   UNL     1      26.146  41.003  51.100  1.00  0.00    -0.259 OA
BRANCH  23  25
HETATM   25  O   UNL     1      26.124  41.004  48.809  1.00  0.00    -0.322 OA
HETATM   26  C   UNL     1      27.437  41.275  48.310  1.00  0.00     0.213 C 
ENDBRANCH  23  25
ENDBRANCH   1  23
BRANCH   7  27
HETATM   27  C   UNL     1      22.234  47.923  48.302  1.00  0.00     0.294 C 
BRANCH  27  28
HETATM   28  N   UNL     1      21.370  48.811  49.210  1.00  0.00    -0.061 N 
HETATM   29  H   UNL     1      21.739  48.668  50.157  1.00  0.00     0.280 HD
HETATM   30  C   UNL     1      21.460  50.323  48.941  1.00  0.00     0.190 C 
HETATM   31  C   UNL     1      20.591  51.038  49.996  1.00  0.00     0.033 C 
HETATM   32  C   UNL     1      19.158  50.529  50.038  1.00  0.00     0.004 C 
HETATM   33  C   UNL     1      19.130  49.028  50.270  1.00  0.00     0.028 C 
HETATM   34  C   UNL     1      19.938  48.307  49.207  1.00  0.00     0.235 C 
BRANCH  30  35
HETATM   35  C   UNL     1      22.907  50.828  49.079  1.00  0.00     0.059 C 
BRANCH  35  36
HETATM   36  C   UNL     1      23.610  51.047  47.743  1.00  0.00     0.166 C 
BRANCH  36  37
HETATM   37  O   UNL     1      24.789  50.256  47.750  1.00  0.00    -0.401 OA
HETATM   38  H   UNL     1      24.519  49.319  47.734  1.00  0.00     0.209 HD
ENDBRANCH  36  37
ENDBRANCH  35  36
ENDBRANCH  30  35
ENDBRANCH  27  28
ENDBRANCH   7  27
TORSDOF 10
ENDMDL
MODEL 3
REMARK VINA RESULT:      -9.1      4.244     10.384
REMARK  10 active torsions:
REMARK  status: ('A' for Active; 'I' for Inactive)
REMARK    1  A    between atoms: O_2  and  C_3 
REMARK    2  A    between atoms: C_3  and  C_4 
REMARK    3  A    between atoms: C_8  and  N_9 
REMARK       I    between atoms: N_9  and  C_10 
REMARK    4  A    between atoms: C_10  and  C_11 
REMARK    5  A    between atoms: C_12  and  C_13 
REMARK    6  A    between atoms: C_22  and  C_23 
REMARK    7  A    between atoms: C_23  and  N_24 
REMARK    8  A    between atoms: C_26  and  C_27 
REMARK    9  A    between atoms: C_27  and  C_28 
REMARK   10  A    between atoms: C_28  and  O_29 
ROOT
HETATM    1  C   UNL     1      25.092  43.846  49.793  1.00  0.00     0.110 C 
HETATM    2  S   UNL     1      23.904  44.005  48.573  1.00  0.00    -0.061 SA
HETATM    3  C   UNL     1      23.655  45.642  48.931  1.00  0.00     0.111 A 
HETATM    4  C   UNL     1      24.452  46.100  49.971  1.00  0.00     0.028 A 
HETATM    5  C   UNL     1      25.225  45.015  50.541  1.00  0.00     0.071 C 
HETATM    6  N   UNL     1      22.767  46.357  48.206  1.00  0.00    -0.243 NA
HETATM    7  C   UNL     1      22.704  47.671  48.507  1.00  0.00     0.061 A 
HETATM    8  C   UNL     1      23.488  48.274  49.481  1.00  0.00     0.030 A 
HETATM    9  C   UNL     1      24.371  47.490  50.221  1.00  0.00     0.019 A 
ENDROOT
BRANCH   5  10
HETATM   10  N   UNL     1      26.075  45.041  51.656  1.00  0.00    -0.321 N 
HETATM   11  C   UNL     1      25.715  44.775  52.958  1.00  0.00     0.245 C 
HETATM   12  O   UNL     1      24.619  44.393  53.348  1.00  0.00    -0.268 OA
HETATM   13  H   UNL     1      27.074  45.067  51.445  1.00  0.00     0.169 HD
BRANCH  11  14
HETATM   14  C   UNL     1      26.856  44.949  53.899  1.00  0.00     0.075 C 
HETATM   15  C   UNL     1      27.885  44.089  53.864  1.00  0.00     0.017 C 
BRANCH  15  16
HETATM   16  C   UNL     1      29.003  44.154  54.809  1.00  0.00    -0.036 A 
HETATM   17  C   UNL     1      29.911  43.086  54.855  1.00  0.00     0.014 A 
HETATM   18  C   UNL     1      30.986  43.113  55.745  1.00  0.00     0.043 A 
HETATM   19  C   UNL     1      31.161  44.211  56.577  1.00  0.00     0.116 A 
HETATM   20  F   UNL     1      32.191  44.236  57.431  1.00  0.00    -0.206 F 
HETATM   21  C   UNL     1      30.282  45.289  56.532  1.00  0.00     0.043 A 
HETATM   22  C   UNL     1      29.203  45.262  55.645  1.00  0.00     0.014 A 
ENDBRANCH  15  16
ENDBRANCH  11  14
ENDBRANCH   5  10
BRANCH   1  23
HETATM   23  C   UNL     1      25.810  42.597  50.006  1.00  0.00     0.302 C 
HETATM   24  O   UNL     1      25.270  41.495  49.988  1.00  0.00    -0.259 OA
BRANCH  23  25
HETATM   25  O   UNL     1      27.134  42.800  50.252  1.00  0.00    -0.322 OA
HETATM   26  C   UNL     1      27.779  41.722  50.936  1.00  0.00     0.213 C 
ENDBRANCH  23  25
ENDBRANCH   1  23
BRANCH   7  27
HETATM   27  C   UNL     1      21.686  48.494  47.741  1.00  0.00     0.294 C 
BRANCH  27  28
HETATM   28  N   UNL     1      20.401  48.855  48.501  1.00  0.00    -0.061 N 
HETATM   29  H   UNL     1      19.800  49.318  47.808  1.00  0.00     0.280 HD
HETATM   30  C   UNL     1      19.591  47.665  49.041  1.00  0.00     0.190 C 
HETATM   31  C   UNL     1      18.311  48.227  49.694  1.00  0.00     0.033 C 
HETATM   32  C   UNL     1      18.594  49.281  50.755  1.00  0.00     0.004 C 
HETATM   33  C   UNL     1      19.425  50.413  50.176  1.00  0.00     0.028 C 
HETATM   34  C   UNL     1      20.712  49.879  49.577  1.00  0.00     0.235 C 
BRANCH  30  35
HETATM   35  C   UNL     1      19.178  46.710  47.906  1.00  0.00     0.059 C 
BRANCH  35  36
HETATM   36  C   UNL     1      19.369  45.236  48.246  1.00  0.00     0.166 C 
BRANCH  36  37
HETATM   37  O   UNL     1      20.181  45.170  49.409  1.00  0.00    -0.401 OA
HETATM   38  H   UNL     1      20.304  46.080  49.737  1.00  0.00     0.209 HD
ENDBRANCH  36  37
ENDBRANCH  35  36
ENDBRANCH  30  35
ENDBRANCH  27  28
ENDBRANCH   7  27
TORSDOF 10
ENDMDL
MODEL 4
REMARK VINA RESULT:      -9.0      4.036     10.474
REMARK  10 active torsions:
REMARK  status: ('A' for Active; 'I' for Inactive)
REMARK    1  A    between atoms: O_2  and  C_3 
REMARK    2  A    between atoms: C_3  and  C_4 
REMARK    3  A    between atoms: C_8  and  N_9 
REMARK       I    between atoms: N_9  and  C_10 
REMARK    4  A    between atoms: C_10  and  C_11 
REMARK    5  A    between atoms: C_12  and  C_13 
REMARK    6  A    between atoms: C_22  and  C_23 
REMARK    7  A    between atoms: C_23  and  N_24 
REMARK    8  A    between atoms: C_26  and  C_27 
REMARK    9  A    between atoms: C_27  and  C_28 
REMARK   10  A    between atoms: C_28  and  O_29 
ROOT
HETATM    1  C   UNL     1      25.421  43.897  49.593  1.00  0.00     0.110 C 
HETATM    2  S   UNL     1      24.273  44.052  48.334  1.00  0.00    -0.061 SA
HETATM    3  C   UNL     1      23.856  45.622  48.811  1.00  0.00     0.111 A 
HETATM    4  C   UNL     1      24.563  46.061  49.923  1.00  0.00     0.028 A 
HETATM    5  C   UNL     1      25.411  45.005  50.439  1.00  0.00     0.071 C 
HETATM    6  N   UNL     1      22.934  46.314  48.105  1.00  0.00    -0.243 NA
HETATM    7  C   UNL     1      22.735  47.585  48.509  1.00  0.00     0.061 A 
HETATM    8  C   UNL     1      23.418  48.172  49.566  1.00  0.00     0.030 A 
HETATM    9  C   UNL     1      24.341  47.410  50.281  1.00  0.00     0.019 A 
ENDROOT
BRANCH   5  10
HETATM   10  N   UNL     1      26.209  45.013  51.593  1.00  0.00    -0.321 N 
HETATM   11  C   UNL     1      25.778  44.778  52.879  1.00  0.00     0.245 C 
HETATM   12  O   UNL     1      24.651  44.445  53.221  1.00  0.00    -0.268 OA
HETATM   13  H   UNL     1      27.217  44.996  51.429  1.00  0.00     0.169 HD
BRANCH  11  14
HETATM   14  C   UNL     1      26.881  44.920  53.871  1.00  0.00     0.075 C 
HETATM   15  C   UNL     1      27.963  44.133  53.779  1.00  0.00     0.017 C 
BRANCH  15  16
HETATM   16  C   UNL     1      29.050  44.165  54.763  1.00  0.00    -0.036 A 
HETATM   17  C   UNL     1      29.153  45.272  55.618  1.00  0.00     0.014 A 
HETATM   18  C   UNL     1      30.176  45.338  56.566  1.00  0.00     0.043 A 
HETATM   19  C   UNL     1      31.085  44.292  56.666  1.00  0.00     0.116 A 
HETATM   20  F   UNL     1      32.068  44.356  57.573  1.00  0.00    -0.206 F 
HETATM   21  C   UNL     1      30.987  43.178  55.840  1.00  0.00     0.043 A 
HETATM   22  C   UNL     1      29.967  43.112  54.889  1.00  0.00     0.014 A 
ENDBRANCH  15  16
ENDBRANCH  11  14
ENDBRANCH   5  10
BRANCH   1  23
HETATM   23  C   UNL     1      26.244  42.705  49.738  1.00  0.00     0.302 C 
HETATM   24  O   UNL     1      27.120  42.387  48.939  1.00  0.00    -0.259 OA
BRANCH  23  25
HETATM   25  O   UNL     1      25.911  41.981  50.842  1.00  0.00    -0.322 OA
HETATM   26  C   UNL     1      27.013  41.319  51.468  1.00  0.00     0.213 C 
ENDBRANCH  23  25
ENDBRANCH   1  23
BRANCH   7  27
HETATM   27  C   UNL     1      21.675  48.375  47.764  1.00  0.00     0.294 C 
BRANCH  27  28
HETATM   28  N   UNL     1      20.354  48.605  48.513  1.00  0.00    -0.061 N 
HETATM   29  H   UNL     1      20.554  48.366  49.491  1.00  0.00     0.280 HD
HETATM   30  C   UNL     1      19.841  50.054  48.524  1.00  0.00     0.190 C 
HETATM   31  C   UNL     1      18.560  50.090  49.383  1.00  0.00     0.033 C 
HETATM   32  C   UNL     1      17.505  49.092  48.928  1.00  0.00     0.004 C 
HETATM   33  C   UNL     1      18.076  47.685  48.902  1.00  0.00     0.028 C 
HETATM   34  C   UNL     1      19.307  47.624  48.017  1.00  0.00     0.235 C 
BRANCH  30  35
HETATM   35  C   UNL     1      20.874  51.007  49.152  1.00  0.00     0.059 C 
BRANCH  35  36
HETATM   36  C   UNL     1      20.857  51.011  50.677  1.00  0.00     0.166 C 
BRANCH  36  37
HETATM   37  O   UNL     1      22.204  51.108  51.116  1.00  0.00    -0.401 OA
HETATM   38  H   UNL     1      22.651  51.771  50.557  1.00  0.00     0.209 HD
ENDBRANCH  36  37
ENDBRANCH  35  36
ENDBRANCH  30  35
ENDBRANCH  27  28
ENDBRANCH   7  27
TORSDOF 10
ENDMDL
MODEL 5
REMARK VINA RESULT:      -7.9      2.593      3.533
REMARK  10 active torsions:
REMARK  status: ('A' for Active; 'I' for Inactive)
REMARK    1  A    between atoms: O_2  and  C_3 
REMARK    2  A    between atoms: C_3  and  C_4 
REMARK    3  A    between atoms: C_8  and  N_9 
REMARK       I    between atoms: N_9  and  C_10 
REMARK    4  A    between atoms: C_10  and  C_11 
REMARK    5  A    between atoms: C_12  and  C_13 
REMARK    6  A    between atoms: C_22  and  C_23 
REMARK    7  A    between atoms: C_23  and  N_24 
REMARK    8  A    between atoms: C_26  and  C_27 
REMARK    9  A    between atoms: C_27  and  C_28 
REMARK   10  A    between atoms: C_28  and  O_29 
ROOT
HETATM    1  C   UNL     1      25.352  46.824  49.487  1.00  0.00     0.110 C 
HETATM    2  S   UNL     1      26.577  45.687  49.851  1.00  0.00    -0.061 SA
HETATM    3  C   UNL     1      25.488  44.391  49.792  1.00  0.00     0.111 A 
HETATM    4  C   UNL     1      24.188  44.783  49.503  1.00  0.00     0.028 A 
HETATM    5  C   UNL     1      24.094  46.226  49.422  1.00  0.00     0.071 C 
HETATM    6  N   UNL     1      25.936  43.132  49.995  1.00  0.00    -0.243 NA
HETATM    7  C   UNL     1      25.012  42.161  49.840  1.00  0.00     0.061 A 
HETATM    8  C   UNL     1      23.691  42.406  49.490  1.00  0.00     0.030 A 
HETATM    9  C   UNL     1      23.270  43.723  49.318  1.00  0.00     0.019 A 
ENDROOT
BRANCH   5  10
HETATM   10  N   UNL     1      22.950  47.017  49.240  1.00  0.00    -0.321 N 
HETATM   11  C   UNL     1      22.214  47.124  48.082  1.00  0.00     0.245 C 
HETATM   12  O   UNL     1      22.382  46.489  47.049  1.00  0.00    -0.268 OA
HETATM   13  H   UNL     1      22.529  47.382  50.095  1.00  0.00     0.169 HD
BRANCH  11  14
HETATM   14  C   UNL     1      21.094  48.097  48.221  1.00  0.00     0.075 C 
HETATM   15  C   UNL     1      21.315  49.289  48.795  1.00  0.00     0.017 C 
BRANCH  15  16
HETATM   16  C   UNL     1      20.246  50.262  49.033  1.00  0.00    -0.036 A 
HETATM   17  C   UNL     1      20.272  51.477  48.333  1.00  0.00     0.014 A 
HETATM   18  C   UNL     1      19.271  52.429  48.536  1.00  0.00     0.043 A 
HETATM   19  C   UNL     1      18.241  52.161  49.428  1.00  0.00     0.116 A 
HETATM   20  F   UNL     1      17.282  53.075  49.624  1.00  0.00    -0.206 F 
HETATM   21  C   UNL     1      18.188  50.954  50.117  1.00  0.00     0.043 A 
HETATM   22  C   UNL     1      19.190  50.002  49.919  1.00  0.00     0.014 A 
ENDBRANCH  15  16
ENDBRANCH  11  14
ENDBRANCH   5  10
BRANCH   1  23
HETATM   23  C   UNL     1      25.645  48.241  49.324  1.00  0.00     0.302 C 
HETATM   24  O   UNL     1      24.837  49.132  49.574  1.00  0.00    -0.259 OA
BRANCH  23  25
HETATM   25  O   UNL     1      26.901  48.455  48.843  1.00  0.00    -0.322 OA
HETATM   26  C   UNL     1      27.283  49.832  48.784  1.00  0.00     0.213 C 
ENDBRANCH  23  25
ENDBRANCH   1  23
BRANCH   7  27
HETATM   27  C   UNL     1      25.473  40.740  50.102  1.00  0.00     0.294 C 
BRANCH  27  28
HETATM   28  N   UNL     1      26.705  40.273  49.312  1.00  0.00    -0.061 N 
HETATM   29  H   UNL     1      26.978  41.080  48.739  1.00  0.00     0.280 HD
HETATM   30  C   UNL     1      27.938  39.912  50.157  1.00  0.00     0.190 C 
HETATM   31  C   UNL     1      29.081  39.549  49.186  1.00  0.00     0.033 C 
HETATM   32  C   UNL     1      28.701  38.457  48.197  1.00  0.00     0.004 C 
HETATM   33  C   UNL     1      27.458  38.850  47.417  1.00  0.00     0.028 C 
HETATM   34  C   UNL     1      26.311  39.159  48.359  1.00  0.00     0.235 C 
BRANCH  30  35
HETATM   35  C   UNL     1      28.392  41.104  51.018  1.00  0.00     0.059 C 
BRANCH  35  36
HETATM   36  C   UNL     1      28.008  40.980  52.489  1.00  0.00     0.166 C 
BRANCH  36  37
HETATM   37  O   UNL     1      27.114  42.043  52.785  1.00  0.00    -0.401 OA
HETATM   38  H   UNL     1      26.475  41.719  53.446  1.00  0.00     0.209 HD
ENDBRANCH  36  37
ENDBRANCH  35  36
ENDBRANCH  30  35
ENDBRANCH  27  28
ENDBRANCH   7  27
TORSDOF 10
ENDMDL
MODEL 6
REMARK VINA RESULT:      -7.9      2.323      3.701
REMARK  10 active torsions:
REMARK  status: ('A' for Active; 'I' for Inactive)
REMARK    1  A    between atoms: O_2  and  C_3 
REMARK    2  A    between atoms: C_3  and  C_4 
REMARK    3  A    between atoms: C_8  and  N_9 
REMARK       I    between atoms: N_9  and  C_10 
REMARK    4  A    between atoms: C_10  and  C_11 
REMARK    5  A    between atoms: C_12  and  C_13 
REMARK    6  A    between atoms: C_22  and  C_23 
REMARK    7  A    between atoms: C_23  and  N_24 
REMARK    8  A    between atoms: C_26  and  C_27 
REMARK    9  A    between atoms: C_27  and  C_28 
REMARK   10  A    between atoms: C_28  and  O_29 
ROOT
HETATM    1  C   UNL     1      21.852  45.104  48.108  1.00  0.00     0.110 C 
HETATM    2  S   UNL     1      23.018  43.853  48.053  1.00  0.00    -0.061 SA
HETATM    3  C   UNL     1      24.123  44.748  48.974  1.00  0.00     0.111 A 
HETATM    4  C   UNL     1      23.643  46.000  49.337  1.00  0.00     0.028 A 
HETATM    5  C   UNL     1      22.346  46.244  48.741  1.00  0.00     0.071 C 
HETATM    6  N   UNL     1      25.319  44.206  49.296  1.00  0.00    -0.243 NA
HETATM    7  C   UNL     1      26.092  44.959  50.106  1.00  0.00     0.061 A 
HETATM    8  C   UNL     1      25.711  46.201  50.595  1.00  0.00     0.030 A 
HETATM    9  C   UNL     1      24.480  46.731  50.213  1.00  0.00     0.019 A 
ENDROOT
BRANCH   5  10
HETATM   10  N   UNL     1      21.570  47.411  48.787  1.00  0.00    -0.321 N 
HETATM   11  C   UNL     1      21.911  48.633  48.252  1.00  0.00     0.245 C 
HETATM   12  O   UNL     1      22.903  48.884  47.579  1.00  0.00    -0.268 OA
HETATM   13  H   UNL     1      20.597  47.281  49.067  1.00  0.00     0.169 HD
BRANCH  11  14
HETATM   14  C   UNL     1      20.880  49.671  48.532  1.00  0.00     0.075 C 
HETATM   15  C   UNL     1      19.606  49.306  48.736  1.00  0.00     0.017 C 
BRANCH  15  16
HETATM   16  C   UNL     1      18.528  50.278  48.940  1.00  0.00    -0.036 A 
HETATM   17  C   UNL     1      17.254  49.989  48.428  1.00  0.00     0.014 A 
HETATM   18  C   UNL     1      16.204  50.893  48.601  1.00  0.00     0.043 A 
HETATM   19  C   UNL     1      16.424  52.075  49.297  1.00  0.00     0.116 A 
HETATM   20  F   UNL     1      15.417  52.942  49.462  1.00  0.00    -0.206 F 
HETATM   21  C   UNL     1      17.675  52.368  49.830  1.00  0.00     0.043 A 
HETATM   22  C   UNL     1      18.728  51.468  49.653  1.00  0.00     0.014 A 
ENDBRANCH  15  16
ENDBRANCH  11  14
ENDBRANCH   5  10
BRANCH   1  23
HETATM   23  C   UNL     1      20.537  44.952  47.503  1.00  0.00     0.302 C 
HETATM   24  O   UNL     1      20.358  44.829  46.294  1.00  0.00    -0.259 OA
BRANCH  23  25
HETATM   25  O   UNL     1      19.537  44.989  48.428  1.00  0.00    -0.322 OA
HETATM   26  C   UNL     1      18.344  45.637  47.981  1.00  0.00     0.213 C 
ENDBRANCH  23  25
ENDBRANCH   1  23
BRANCH   7  27
HETATM   27  C   UNL     1      27.458  44.398  50.452  1.00  0.00     0.294 C 
BRANCH  27  28
HETATM   28  N   UNL     1      27.506  43.418  51.633  1.00  0.00    -0.061 N 
HETATM   29  H   UNL     1      26.535  43.343  51.960  1.00  0.00     0.280 HD
HETATM   30  C   UNL     1      27.952  41.987  51.292  1.00  0.00     0.190 C 
HETATM   31  C   UNL     1      27.858  41.147  52.583  1.00  0.00     0.033 C 
HETATM   32  C   UNL     1      28.634  41.747  53.746  1.00  0.00     0.004 C 
HETATM   33  C   UNL     1      28.177  43.171  54.015  1.00  0.00     0.028 C 
HETATM   34  C   UNL     1      28.315  44.022  52.767  1.00  0.00     0.235 C 
BRANCH  30  35
HETATM   35  C   UNL     1      27.033  41.354  50.232  1.00  0.00     0.059 C 
BRANCH  35  36
HETATM   36  C   UNL     1      27.718  41.118  48.889  1.00  0.00     0.166 C 
BRANCH  36  37
HETATM   37  O   UNL     1      27.232  42.101  47.987  1.00  0.00    -0.401 OA
HETATM   38  H   UNL     1      27.944  42.752  47.845  1.00  0.00     0.209 HD
ENDBRANCH  36  37
ENDBRANCH  35  36
ENDBRANCH  30  35
ENDBRANCH  27  28
ENDBRANCH   7  27
TORSDOF 10
ENDMDL
MODEL 7
REMARK VINA RESULT:      -7.8      5.669     10.937
REMARK  10 active torsions:
REMARK  status: ('A' for Active; 'I' for Inactive)
REMARK    1  A    between atoms: O_2  and  C_3 
REMARK    2  A    between atoms: C_3  and  C_4 
REMARK    3  A    between atoms: C_8  and  N_9 
REMARK       I    between atoms: N_9  and  C_10 
REMARK    4  A    between atoms: C_10  and  C_11 
REMARK    5  A    between atoms: C_12  and  C_13 
REMARK    6  A    between atoms: C_22  and  C_23 
REMARK    7  A    between atoms: C_23  and  N_24 
REMARK    8  A    between atoms: C_26  and  C_27 
REMARK    9  A    between atoms: C_27  and  C_28 
REMARK   10  A    between atoms: C_28  and  O_29 
ROOT
HETATM    1  C   UNL     1      27.090  40.618  50.362  1.00  0.00     0.110 C 
HETATM    2  S   UNL     1      26.194  39.858  49.118  1.00  0.00    -0.061 SA
HETATM    3  C   UNL     1      24.995  41.054  49.157  1.00  0.00     0.111 A 
HETATM    4  C   UNL     1      25.238  42.041  50.103  1.00  0.00     0.028 A 
HETATM    5  C   UNL     1      26.421  41.727  50.877  1.00  0.00     0.071 C 
HETATM    6  N   UNL     1      23.953  40.984  48.298  1.00  0.00    -0.243 NA
HETATM    7  C   UNL     1      23.098  42.027  48.345  1.00  0.00     0.061 A 
HETATM    8  C   UNL     1      23.256  43.112  49.197  1.00  0.00     0.030 A 
HETATM    9  C   UNL     1      24.331  43.126  50.084  1.00  0.00     0.019 A 
ENDROOT
BRANCH   5  10
HETATM   10  N   UNL     1      26.951  42.416  51.979  1.00  0.00    -0.321 N 
HETATM   11  C   UNL     1      27.535  43.662  51.952  1.00  0.00     0.245 C 
HETATM   12  O   UNL     1      27.615  44.410  50.985  1.00  0.00    -0.268 OA
HETATM   13  H   UNL     1      26.700  42.039  52.894  1.00  0.00     0.169 HD
BRANCH  11  14
HETATM   14  C   UNL     1      28.041  44.070  53.292  1.00  0.00     0.075 C 
HETATM   15  C   UNL     1      29.297  43.764  53.651  1.00  0.00     0.017 C 
BRANCH  15  16
HETATM   16  C   UNL     1      29.836  44.066  54.980  1.00  0.00    -0.036 A 
HETATM   17  C   UNL     1      30.763  43.181  55.548  1.00  0.00     0.014 A 
HETATM   18  C   UNL     1      31.296  43.435  56.814  1.00  0.00     0.043 A 
HETATM   19  C   UNL     1      30.912  44.579  57.502  1.00  0.00     0.116 A 
HETATM   20  F   UNL     1      31.421  44.821  58.716  1.00  0.00    -0.206 F 
HETATM   21  C   UNL     1      30.008  45.478  56.946  1.00  0.00     0.043 A 
HETATM   22  C   UNL     1      29.471  45.223  55.682  1.00  0.00     0.014 A 
ENDBRANCH  15  16
ENDBRANCH  11  14
ENDBRANCH   5  10
BRANCH   1  23
HETATM   23  C   UNL     1      28.368  40.090  50.817  1.00  0.00     0.302 C 
HETATM   24  O   UNL     1      28.865  40.366  51.906  1.00  0.00    -0.259 OA
BRANCH  23  25
HETATM   25  O   UNL     1      28.953  39.283  49.888  1.00  0.00    -0.322 OA
HETATM   26  C   UNL     1      29.429  38.038  50.405  1.00  0.00     0.213 C 
ENDBRANCH  23  25
ENDBRANCH   1  23
BRANCH   7  27
HETATM   27  C   UNL     1      21.895  41.959  47.424  1.00  0.00     0.294 C 
BRANCH  27  28
HETATM   28  N   UNL     1      21.985  42.788  46.134  1.00  0.00    -0.061 N 
HETATM   29  H   UNL     1      21.494  42.234  45.423  1.00  0.00     0.280 HD
HETATM   30  C   UNL     1      21.279  44.154  46.172  1.00  0.00     0.190 C 
HETATM   31  C   UNL     1      21.415  44.790  44.773  1.00  0.00     0.033 C 
HETATM   32  C   UNL     1      22.856  44.882  44.293  1.00  0.00     0.004 C 
HETATM   33  C   UNL     1      23.514  43.513  44.311  1.00  0.00     0.028 C 
HETATM   34  C   UNL     1      23.434  42.898  45.695  1.00  0.00     0.235 C 
BRANCH  30  35
HETATM   35  C   UNL     1      19.782  43.999  46.492  1.00  0.00     0.059 C 
BRANCH  35  36
HETATM   36  C   UNL     1      19.211  45.143  47.325  1.00  0.00     0.166 C 
BRANCH  36  37
HETATM   37  O   UNL     1      18.953  44.634  48.625  1.00  0.00    -0.401 OA
HETATM   38  H   UNL     1      18.239  43.974  48.549  1.00  0.00     0.209 HD
ENDBRANCH  36  37
ENDBRANCH  35  36
ENDBRANCH  30  35
ENDBRANCH  27  28
ENDBRANCH   7  27
TORSDOF 10
ENDMDL
MODEL 8
REMARK VINA RESULT:      -7.8      6.112     10.648
REMARK  10 active torsions:
REMARK  status: ('A' for Active; 'I' for Inactive)
REMARK    1  A    between atoms: O_2  and  C_3 
REMARK    2  A    between atoms: C_3  and  C_4 
REMARK    3  A    between atoms: C_8  and  N_9 
REMARK       I    between atoms: N_9  and  C_10 
REMARK    4  A    between atoms: C_10  and  C_11 
REMARK    5  A    between atoms: C_12  and  C_13 
REMARK    6  A    between atoms: C_22  and  C_23 
REMARK    7  A    between atoms: C_23  and  N_24 
REMARK    8  A    between atoms: C_26  and  C_27 
REMARK    9  A    between atoms: C_27  and  C_28 
REMARK   10  A    between atoms: C_28  and  O_29 
ROOT
HETATM    1  C   UNL     1      24.861  43.385  50.653  1.00  0.00     0.110 C 
HETATM    2  S   UNL     1      24.161  42.948  49.155  1.00  0.00    -0.061 SA
HETATM    3  C   UNL     1      25.034  41.498  49.090  1.00  0.00     0.111 A 
HETATM    4  C   UNL     1      25.868  41.314  50.184  1.00  0.00     0.028 A 
HETATM    5  C   UNL     1      25.838  42.473  51.052  1.00  0.00     0.071 C 
HETATM    6  N   UNL     1      24.852  40.654  48.050  1.00  0.00    -0.243 NA
HETATM    7  C   UNL     1      25.524  39.487  48.132  1.00  0.00     0.061 A 
HETATM    8  C   UNL     1      26.343  39.146  49.199  1.00  0.00     0.030 A 
HETATM    9  C   UNL     1      26.521  40.060  50.236  1.00  0.00     0.019 A 
ENDROOT
BRANCH   5  10
HETATM   10  N   UNL     1      26.599  42.721  52.204  1.00  0.00    -0.321 N 
HETATM   11  C   UNL     1      27.961  42.563  52.326  1.00  0.00     0.245 C 
HETATM   12  O   UNL     1      28.743  42.262  51.433  1.00  0.00    -0.268 OA
HETATM   13  H   UNL     1      26.124  43.246  52.939  1.00  0.00     0.169 HD
BRANCH  11  14
HETATM   14  C   UNL     1      28.436  42.862  53.705  1.00  0.00     0.075 C 
HETATM   15  C   UNL     1      29.426  43.748  53.890  1.00  0.00     0.017 C 
BRANCH  15  16
HETATM   16  C   UNL     1      29.995  44.035  55.211  1.00  0.00    -0.036 A 
HETATM   17  C   UNL     1      29.606  45.208  55.872  1.00  0.00     0.014 A 
HETATM   18  C   UNL     1      30.129  45.515  57.130  1.00  0.00     0.043 A 
HETATM   19  C   UNL     1      31.028  44.642  57.730  1.00  0.00     0.116 A 
HETATM   20  F   UNL     1      31.531  44.937  58.935  1.00  0.00    -0.206 F 
HETATM   21  C   UNL     1      31.410  43.464  57.098  1.00  0.00     0.043 A 
HETATM   22  C   UNL     1      30.891  43.157  55.838  1.00  0.00     0.014 A 
ENDBRANCH  15  16
ENDBRANCH  11  14
ENDBRANCH   5  10
BRANCH   1  23
HETATM   23  C   UNL     1      24.477  44.602  51.353  1.00  0.00     0.302 C 
HETATM   24  O   UNL     1      24.385  44.679  52.575  1.00  0.00    -0.259 OA
BRANCH  23  25
HETATM   25  O   UNL     1      24.209  45.626  50.497  1.00  0.00    -0.322 OA
HETATM   26  C   UNL     1      24.878  46.850  50.814  1.00  0.00     0.213 C 
ENDBRANCH  23  25
ENDBRANCH   1  23
BRANCH   7  27
HETATM   27  C   UNL     1      25.375  38.536  46.960  1.00  0.00     0.294 C 
BRANCH  27  28
HETATM   28  N   UNL     1      24.255  37.492  47.076  1.00  0.00    -0.061 N 
HETATM   29  H   UNL     1      23.804  37.680  47.979  1.00  0.00     0.280 HD
HETATM   30  C   UNL     1      23.144  37.588  46.017  1.00  0.00     0.190 C 
HETATM   31  C   UNL     1      22.085  36.516  46.350  1.00  0.00     0.033 C 
HETATM   32  C   UNL     1      22.668  35.116  46.471  1.00  0.00     0.004 C 
HETATM   33  C   UNL     1      23.782  35.088  47.503  1.00  0.00     0.028 C 
HETATM   34  C   UNL     1      24.857  36.100  47.158  1.00  0.00     0.235 C 
BRANCH  30  35
HETATM   35  C   UNL     1      22.464  38.968  46.046  1.00  0.00     0.059 C 
BRANCH  35  36
HETATM   36  C   UNL     1      21.377  39.095  47.108  1.00  0.00     0.166 C 
BRANCH  36  37
HETATM   37  O   UNL     1      21.807  40.076  48.040  1.00  0.00    -0.401 OA
HETATM   38  H   UNL     1      22.342  40.731  47.557  1.00  0.00     0.209 HD
ENDBRANCH  36  37
ENDBRANCH  35  36
ENDBRANCH  30  35
ENDBRANCH  27  28
ENDBRANCH   7  27
TORSDOF 10
ENDMDL
MODEL 9
REMARK VINA RESULT:      -7.7      6.101     10.610
REMARK  10 active torsions:
REMARK  status: ('A' for Active; 'I' for Inactive)
REMARK    1  A    between atoms: O_2  and  C_3 
REMARK    2  A    between atoms: C_3  and  C_4 
REMARK    3  A    between atoms: C_8  and  N_9 
REMARK       I    between atoms: N_9  and  C_10 
REMARK    4  A    between atoms: C_10  and  C_11 
REMARK    5  A    between atoms: C_12  and  C_13 
REMARK    6  A    between atoms: C_22  and  C_23 
REMARK    7  A    between atoms: C_23  and  N_24 
REMARK    8  A    between atoms: C_26  and  C_27 
REMARK    9  A    between atoms: C_27  and  C_28 
REMARK   10  A    between atoms: C_28  and  O_29 
ROOT
HETATM    1  C   UNL     1      24.920  43.102  50.530  1.00  0.00     0.110 C 
HETATM    2  S   UNL     1      24.325  42.501  49.043  1.00  0.00    -0.061 SA
HETATM    3  C   UNL     1      25.329  41.139  49.111  1.00  0.00     0.111 A 
HETATM    4  C   UNL     1      26.131  41.108  50.244  1.00  0.00     0.028 A 
HETATM    5  C   UNL     1      25.959  42.315  51.026  1.00  0.00     0.071 C 
HETATM    6  N   UNL     1      25.268  40.214  48.128  1.00  0.00    -0.243 NA
HETATM    7  C   UNL     1      26.040  39.123  48.316  1.00  0.00     0.061 A 
HETATM    8  C   UNL     1      26.843  38.933  49.432  1.00  0.00     0.030 A 
HETATM    9  C   UNL     1      26.893  39.928  50.407  1.00  0.00     0.019 A 
ENDROOT
BRANCH   5  10
HETATM   10  N   UNL     1      26.646  42.711  52.183  1.00  0.00    -0.321 N 
HETATM   11  C   UNL     1      28.013  42.727  52.349  1.00  0.00     0.245 C 
HETATM   12  O   UNL     1      28.855  42.479  51.495  1.00  0.00    -0.268 OA
HETATM   13  H   UNL     1      26.087  43.210  52.876  1.00  0.00     0.169 HD
BRANCH  11  14
HETATM   14  C   UNL     1      28.403  43.150  53.723  1.00  0.00     0.075 C 
HETATM   15  C   UNL     1      29.643  43.607  53.952  1.00  0.00     0.017 C 
BRANCH  15  16
HETATM   16  C   UNL     1      30.118  43.968  55.291  1.00  0.00    -0.036 A 
HETATM   17  C   UNL     1      29.654  45.156  55.873  1.00  0.00     0.014 A 
HETATM   18  C   UNL     1      30.087  45.533  57.146  1.00  0.00     0.043 A 
HETATM   19  C   UNL     1      30.972  44.717  57.839  1.00  0.00     0.116 A 
HETATM   20  F   UNL     1      31.389  45.079  59.058  1.00  0.00    -0.206 F 
HETATM   21  C   UNL     1      31.427  43.525  57.286  1.00  0.00     0.043 A 
HETATM   22  C   UNL     1      30.999  43.148  56.011  1.00  0.00     0.014 A 
ENDBRANCH  15  16
ENDBRANCH  11  14
ENDBRANCH   5  10
BRANCH   1  23
HETATM   23  C   UNL     1      24.397  44.322  51.129  1.00  0.00     0.302 C 
HETATM   24  O   UNL     1      24.351  44.515  52.340  1.00  0.00    -0.259 OA
BRANCH  23  25
HETATM   25  O   UNL     1      23.946  45.203  50.192  1.00  0.00    -0.322 OA
HETATM   26  C   UNL     1      24.726  46.397  50.083  1.00  0.00     0.213 C 
ENDBRANCH  23  25
ENDBRANCH   1  23
BRANCH   7  27
HETATM   27  C   UNL     1      26.027  38.085  47.210  1.00  0.00     0.294 C 
BRANCH  27  28
HETATM   28  N   UNL     1      25.695  38.603  45.802  1.00  0.00    -0.061 N 
HETATM   29  H   UNL     1      25.398  39.577  45.937  1.00  0.00     0.280 HD
HETATM   30  C   UNL     1      26.873  38.649  44.816  1.00  0.00     0.190 C 
HETATM   31  C   UNL     1      26.358  39.265  43.498  1.00  0.00     0.033 C 
HETATM   32  C   UNL     1      25.142  38.544  42.935  1.00  0.00     0.004 C 
HETATM   33  C   UNL     1      24.024  38.497  43.963  1.00  0.00     0.028 C 
HETATM   34  C   UNL     1      24.503  37.845  45.245  1.00  0.00     0.235 C 
BRANCH  30  35
HETATM   35  C   UNL     1      28.015  39.531  45.351  1.00  0.00     0.059 C 
BRANCH  35  36
HETATM   36  C   UNL     1      27.675  41.018  45.387  1.00  0.00     0.166 C 
BRANCH  36  37
HETATM   37  O   UNL     1      27.929  41.480  46.706  1.00  0.00    -0.401 OA
HETATM   38  H   UNL     1      27.292  42.191  46.899  1.00  0.00     0.209 HD
ENDBRANCH  36  37
ENDBRANCH  35  36
ENDBRANCH  30  35
ENDBRANCH  27  28
ENDBRANCH   7  27
TORSDOF 10
ENDMDL
MODEL 10
REMARK VINA RESULT:      -7.7      6.936     10.842
REMARK  10 active torsions:
REMARK  status: ('A' for Active; 'I' for Inactive)
REMARK    1  A    between atoms: O_2  and  C_3 
REMARK    2  A    between atoms: C_3  and  C_4 
REMARK    3  A    between atoms: C_8  and  N_9 
REMARK       I    between atoms: N_9  and  C_10 
REMARK    4  A    between atoms: C_10  and  C_11 
REMARK    5  A    between atoms: C_12  and  C_13 
REMARK    6  A    between atoms: C_22  and  C_23 
REMARK    7  A    between atoms: C_23  and  N_24 
REMARK    8  A    between atoms: C_26  and  C_27 
REMARK    9  A    between atoms: C_27  and  C_28 
REMARK   10  A    between atoms: C_28  and  O_29 
ROOT
HETATM    1  C   UNL     1      25.193  42.566  49.454  1.00  0.00     0.110 C 
HETATM    2  S   UNL     1      24.559  41.823  48.050  1.00  0.00    -0.061 SA
HETATM    3  C   UNL     1      26.032  41.062  47.704  1.00  0.00     0.111 A 
HETATM    4  C   UNL     1      27.027  41.351  48.628  1.00  0.00     0.028 A 
HETATM    5  C   UNL     1      26.556  42.316  49.601  1.00  0.00     0.071 C 
HETATM    6  N   UNL     1      26.129  40.251  46.626  1.00  0.00    -0.243 NA
HETATM    7  C   UNL     1      27.315  39.622  46.485  1.00  0.00     0.061 A 
HETATM    8  C   UNL     1      28.374  39.771  47.370  1.00  0.00     0.030 A 
HETATM    9  C   UNL     1      28.236  40.639  48.451  1.00  0.00     0.019 A 
ENDROOT
BRANCH   5  10
HETATM   10  N   UNL     1      27.274  42.932  50.637  1.00  0.00    -0.321 N 
HETATM   11  C   UNL     1      27.852  42.297  51.713  1.00  0.00     0.245 C 
HETATM   12  O   UNL     1      27.908  41.088  51.903  1.00  0.00    -0.268 OA
HETATM   13  H   UNL     1      27.551  43.899  50.464  1.00  0.00     0.169 HD
BRANCH  11  14
HETATM   14  C   UNL     1      28.489  43.260  52.653  1.00  0.00     0.075 C 
HETATM   15  C   UNL     1      28.806  42.867  53.896  1.00  0.00     0.017 C 
BRANCH  15  16
HETATM   16  C   UNL     1      29.364  43.781  54.897  1.00  0.00    -0.036 A 
HETATM   17  C   UNL     1      30.519  43.395  55.592  1.00  0.00     0.014 A 
HETATM   18  C   UNL     1      31.077  44.240  56.554  1.00  0.00     0.043 A 
HETATM   19  C   UNL     1      30.489  45.471  56.810  1.00  0.00     0.116 A 
HETATM   20  F   UNL     1      31.023  46.280  57.734  1.00  0.00    -0.206 F 
HETATM   21  C   UNL     1      29.354  45.879  56.116  1.00  0.00     0.043 A 
HETATM   22  C   UNL     1      28.792  45.035  55.157  1.00  0.00     0.014 A 
ENDBRANCH  15  16
ENDBRANCH  11  14
ENDBRANCH   5  10
BRANCH   1  23
HETATM   23  C   UNL     1      24.366  43.391  50.324  1.00  0.00     0.302 C 
HETATM   24  O   UNL     1      23.292  43.019  50.788  1.00  0.00    -0.259 OA
BRANCH  23  25
HETATM   25  O   UNL     1      24.911  44.621  50.538  1.00  0.00    -0.322 OA
HETATM   26  C   UNL     1      24.685  45.146  51.849  1.00  0.00     0.213 C 
ENDBRANCH  23  25
ENDBRANCH   1  23
BRANCH   7  27
HETATM   27  C   UNL     1      27.471  38.738  45.262  1.00  0.00     0.294 C 
BRANCH  27  28
HETATM   28  N   UNL     1      28.701  39.011  44.384  1.00  0.00    -0.061 N 
HETATM   29  H   UNL     1      29.395  39.429  45.015  1.00  0.00     0.280 HD
HETATM   30  C   UNL     1      29.372  37.769  43.775  1.00  0.00     0.190 C 
HETATM   31  C   UNL     1      30.620  38.242  43.002  1.00  0.00     0.033 C 
HETATM   32  C   UNL     1      30.313  39.316  41.968  1.00  0.00     0.004 C 
HETATM   33  C   UNL     1      29.620  40.502  42.618  1.00  0.00     0.028 C 
HETATM   34  C   UNL     1      28.361  40.058  43.337  1.00  0.00     0.235 C 
BRANCH  30  35
HETATM   35  C   UNL     1      29.821  36.785  44.869  1.00  0.00     0.059 C 
BRANCH  35  36
HETATM   36  C   UNL     1      29.108  35.438  44.814  1.00  0.00     0.166 C 
BRANCH  36  37
HETATM   37  O   UNL     1      28.522  35.215  46.088  1.00  0.00    -0.401 OA
HETATM   38  H   UNL     1      29.188  34.776  46.649  1.00  0.00     0.209 HD
ENDBRANCH  36  37
ENDBRANCH  35  36
ENDBRANCH  30  35
ENDBRANCH  27  28
ENDBRANCH   7  27
TORSDOF 10
ENDMDL
