MODEL 1
REMARK VINA RESULT:      -8.9      0.000      0.000
REMARK  7 active torsions:
REMARK  status: ('A' for Active; 'I' for Inactive)
REMARK    1  A    between atoms: C_2  and  C_3 
REMARK       I    between atoms: C_3  and  N_4 
REMARK    2  A    between atoms: N_4  and  C_5 
REMARK    3  A    between atoms: C_7  and  C_8 
REMARK       I    between atoms: C_8  and  N_9 
REMARK    4  A    between atoms: N_9  and  C_10 
REMARK    5  A    between atoms: C_10  and  C_11 
REMARK    6  A    between atoms: C_13  and  O_14 
REMARK    7  A    between atoms: O_14  and  C_15 
ROOT
HETATM    1  C   UNL     1      25.979  46.922  50.506  1.00  0.00     0.252 C 
HETATM    2  N   UNL     1      25.368  46.876  51.740  1.00  0.00    -0.353 N 
HETATM    3  O   UNL     1      26.748  46.052  50.111  1.00  0.00    -0.268 OA
HETATM    4  H   UNL     1      24.779  47.632  52.058  1.00  0.00     0.163 HD
ENDROOT
BRANCH   1   5
HETATM    5  C   UNL     1      25.693  48.102  49.637  1.00  0.00     0.034 A 
HETATM    6  C   UNL     1      24.392  48.559  49.378  1.00  0.00     0.046 A 
HETATM    7  C   UNL     1      24.181  49.669  48.552  1.00  0.00     0.035 A 
HETATM    8  C   UNL     1      25.283  50.301  47.962  1.00  0.00     0.029 A 
HETATM    9  C   UNL     1      26.579  49.842  48.200  1.00  0.00     0.003 A 
HETATM   10  C   UNL     1      26.782  48.746  49.035  1.00  0.00     0.017 A 
BRANCH   7  11
HETATM   11  N   UNL     1      22.907  50.199  48.255  1.00  0.00    -0.327 N 
HETATM   12  C   UNL     1      22.025  50.816  49.129  1.00  0.00     0.221 C 
HETATM   13  O   UNL     1      22.219  51.040  50.317  1.00  0.00    -0.273 OA
HETATM   14  H   UNL     1      22.624  50.155  47.284  1.00  0.00     0.169 HD
BRANCH  12  15
HETATM   15  C   UNL     1      20.743  51.227  48.419  1.00  0.00     0.098 C 
HETATM   16  C   UNL     1      19.628  51.585  49.385  1.00  0.00     0.014 C 
ENDBRANCH  12  15
ENDBRANCH   7  11
ENDBRANCH   1   5
BRANCH   2  17
HETATM   17  C   UNL     1      25.546  45.756  52.639  1.00  0.00     0.161 C 
BRANCH  17  18
HETATM   18  C   UNL     1      26.630  46.023  53.649  1.00  0.00    -0.035 A 
HETATM   19  C   UNL     1      27.413  44.981  54.158  1.00  0.00     0.066 A 
HETATM   20  C   UNL     1      28.404  45.281  55.078  1.00  0.00     0.164 A 
HETATM   21  N   UNL     1      28.688  46.529  55.504  1.00  0.00    -0.237 NA
HETATM   22  C   UNL     1      27.941  47.524  54.982  1.00  0.00     0.120 A 
HETATM   23  C   UNL     1      26.917  47.325  54.067  1.00  0.00     0.028 A 
BRANCH  20  24
HETATM   24  O   UNL     1      29.125  44.214  55.580  1.00  0.00    -0.329 OA
BRANCH  24  25
HETATM   25  C   UNL     1      30.463  44.509  56.032  1.00  0.00     0.130 C 
HETATM   26  C   UNL     1      30.669  44.675  57.562  1.00  0.00     0.032 C 
HETATM   27  C   UNL     1      31.992  43.905  57.406  1.00  0.00     0.005 C 
HETATM   28  C   UNL     1      31.397  43.274  56.136  1.00  0.00     0.032 C 
ENDBRANCH  24  25
ENDBRANCH  20  24
ENDBRANCH  17  18
ENDBRANCH   2  17
TORSDOF 7
ENDMDL
MODEL 2
REMARK VINA RESULT:      -8.8      1.897      9.638
REMARK  7 active torsions:
REMARK  status: ('A' for Active; 'I' for Inactive)
REMARK    1  A    between atoms: C_2  and  C_3 
REMARK       I    between atoms: C_3  and  N_4 
REMARK    2  A    between atoms: N_4  and  C_5 
REMARK    3  A    between atoms: C_7  and  C_8 
REMARK       I    between atoms: C_8  and  N_9 
REMARK    4  A    between atoms: N_9  and  C_10 
REMARK    5  A    between atoms: C_10  and  C_11 
REMARK    6  A    between atoms: C_13  and  O_14 
REMARK    7  A    between atoms: O_14  and  C_15 
ROOT
HETATM    1  C   UNL     1      26.487  44.621  52.222  1.00  0.00     0.252 C 
HETATM    2  N   UNL     1      26.301  45.971  52.020  1.00  0.00    -0.353 N 
HETATM    3  O   UNL     1      25.666  43.776  51.879  1.00  0.00    -0.268 OA
HETATM    4  H   UNL     1      26.971  46.646  52.358  1.00  0.00     0.163 HD
ENDROOT
BRANCH   1   5
HETATM    5  C   UNL     1      27.743  44.192  52.907  1.00  0.00     0.034 A 
HETATM    6  C   UNL     1      28.169  44.738  54.128  1.00  0.00     0.046 A 
HETATM    7  C   UNL     1      29.357  44.301  54.724  1.00  0.00     0.035 A 
HETATM    8  C   UNL     1      30.132  43.332  54.074  1.00  0.00     0.029 A 
HETATM    9  C   UNL     1      29.725  42.797  52.852  1.00  0.00     0.003 A 
HETATM   10  C   UNL     1      28.534  43.226  52.272  1.00  0.00     0.017 A 
BRANCH   7  11
HETATM   11  N   UNL     1      29.845  44.788  55.955  1.00  0.00    -0.327 N 
HETATM   12  C   UNL     1      29.331  45.828  56.715  1.00  0.00     0.221 C 
HETATM   13  O   UNL     1      28.331  46.487  56.461  1.00  0.00    -0.273 OA
HETATM   14  H   UNL     1      30.640  44.296  56.343  1.00  0.00     0.169 HD
BRANCH  12  15
HETATM   15  C   UNL     1      30.164  46.057  57.968  1.00  0.00     0.098 C 
HETATM   16  C   UNL     1      31.042  44.868  58.315  1.00  0.00     0.014 C 
ENDBRANCH  12  15
ENDBRANCH   7  11
ENDBRANCH   1   5
BRANCH   2  17
HETATM   17  C   UNL     1      25.138  46.485  51.329  1.00  0.00     0.161 C 
BRANCH  17  18
HETATM   18  C   UNL     1      25.517  47.511  50.293  1.00  0.00    -0.035 A 
HETATM   19  C   UNL     1      24.541  48.148  49.519  1.00  0.00     0.066 A 
HETATM   20  C   UNL     1      24.941  49.090  48.587  1.00  0.00     0.164 A 
HETATM   21  N   UNL     1      26.222  49.463  48.390  1.00  0.00    -0.237 NA
HETATM   22  C   UNL     1      27.147  48.858  49.165  1.00  0.00     0.120 A 
HETATM   23  C   UNL     1      26.850  47.891  50.114  1.00  0.00     0.028 A 
BRANCH  20  24
HETATM   24  O   UNL     1      23.944  49.664  47.821  1.00  0.00    -0.329 OA
BRANCH  24  25
HETATM   25  C   UNL     1      22.661  49.822  48.464  1.00  0.00     0.130 C 
HETATM   26  C   UNL     1      22.427  51.139  49.252  1.00  0.00     0.032 C 
HETATM   27  C   UNL     1      20.996  51.151  48.686  1.00  0.00     0.005 C 
HETATM   28  C   UNL     1      21.521  50.293  47.523  1.00  0.00     0.032 C 
ENDBRANCH  24  25
ENDBRANCH  20  24
ENDBRANCH  17  18
ENDBRANCH   2  17
TORSDOF 7
ENDMDL
MODEL 3
REMARK VINA RESULT:      -8.7      1.369     10.066
REMARK  7 active torsions:
REMARK  status: ('A' for Active; 'I' for Inactive)
REMARK    1  A    between atoms: C_2  and  C_3 
REMARK       I    between atoms: C_3  and  N_4 
REMARK    2  A    between atoms: N_4  and  C_5 
REMARK    3  A    between atoms: C_7  and  C_8 
REMARK       I    between atoms: C_8  and  N_9 
REMARK    4  A    between atoms: N_9  and  C_10 
REMARK    5  A    between atoms: C_10  and  C_11 
REMARK    6  A    between atoms: C_13  and  O_14 
REMARK    7  A    between atoms: O_14  and  C_15 
ROOT
HETATM    1  C   UNL     1      25.232  46.048  52.080  1.00  0.00     0.252 C 
HETATM    2  N   UNL     1      25.045  47.044  51.147  1.00  0.00    -0.353 N 
HETATM    3  O   UNL     1      24.666  44.961  52.017  1.00  0.00    -0.268 OA
HETATM    4  H   UNL     1      25.485  47.947  51.252  1.00  0.00     0.163 HD
ENDROOT
BRANCH   1   5
HETATM    5  C   UNL     1      26.152  46.334  53.221  1.00  0.00     0.034 A 
HETATM    6  C   UNL     1      27.216  45.488  53.570  1.00  0.00     0.046 A 
HETATM    7  C   UNL     1      28.047  45.802  54.652  1.00  0.00     0.035 A 
HETATM    8  C   UNL     1      27.786  46.958  55.400  1.00  0.00     0.029 A 
HETATM    9  C   UNL     1      26.719  47.794  55.070  1.00  0.00     0.003 A 
HETATM   10  C   UNL     1      25.906  47.483  53.984  1.00  0.00     0.017 A 
BRANCH   7  11
HETATM   11  N   UNL     1      29.144  45.014  55.058  1.00  0.00    -0.327 N 
HETATM   12  C   UNL     1      29.330  43.656  54.849  1.00  0.00     0.221 C 
HETATM   13  O   UNL     1      28.579  42.906  54.238  1.00  0.00    -0.273 OA
HETATM   14  H   UNL     1      29.897  45.506  55.521  1.00  0.00     0.169 HD
BRANCH  12  15
HETATM   15  C   UNL     1      30.637  43.178  55.465  1.00  0.00     0.098 C 
HETATM   16  C   UNL     1      31.164  44.125  56.529  1.00  0.00     0.014 C 
ENDBRANCH  12  15
ENDBRANCH   7  11
ENDBRANCH   1   5
BRANCH   2  17
HETATM   17  C   UNL     1      24.207  46.851  49.983  1.00  0.00     0.161 C 
BRANCH  17  18
HETATM   18  C   UNL     1      24.035  48.129  49.205  1.00  0.00    -0.035 A 
HETATM   19  C   UNL     1      22.763  48.594  48.856  1.00  0.00     0.066 A 
HETATM   20  C   UNL     1      22.658  49.780  48.148  1.00  0.00     0.164 A 
HETATM   21  N   UNL     1      23.712  50.543  47.791  1.00  0.00    -0.237 NA
HETATM   22  C   UNL     1      24.929  50.092  48.160  1.00  0.00     0.120 A 
HETATM   23  C   UNL     1      25.140  48.911  48.856  1.00  0.00     0.028 A 
BRANCH  20  24
HETATM   24  O   UNL     1      21.383  50.178  47.794  1.00  0.00    -0.329 OA
BRANCH  24  25
HETATM   25  C   UNL     1      20.847  51.307  48.516  1.00  0.00     0.130 C 
HETATM   26  C   UNL     1      19.405  51.754  48.155  1.00  0.00     0.032 C 
HETATM   27  C   UNL     1      19.164  51.982  49.657  1.00  0.00     0.005 C 
HETATM   28  C   UNL     1      20.288  50.966  49.923  1.00  0.00     0.032 C 
ENDBRANCH  24  25
ENDBRANCH  20  24
ENDBRANCH  17  18
ENDBRANCH   2  17
TORSDOF 7
ENDMDL
MODEL 4
REMARK VINA RESULT:      -8.5      2.162      2.710
REMARK  7 active torsions:
REMARK  status: ('A' for Active; 'I' for Inactive)
REMARK    1  A    between atoms: C_2  and  C_3 
REMARK       I    between atoms: C_3  and  N_4 
REMARK    2  A    between atoms: N_4  and  C_5 
REMARK    3  A    between atoms: C_7  and  C_8 
REMARK       I    between atoms: C_8  and  N_9 
REMARK    4  A    between atoms: N_9  and  C_10 
REMARK    5  A    between atoms: C_10  and  C_11 
REMARK    6  A    between atoms: C_13  and  O_14 
REMARK    7  A    between atoms: O_14  and  C_15 
ROOT
HETATM    1  C   UNL     1      25.895  47.745  49.645  1.00  0.00     0.252 C 
HETATM    2  N   UNL     1      25.712  46.385  49.770  1.00  0.00    -0.353 N 
HETATM    3  O   UNL     1      26.966  48.297  49.878  1.00  0.00    -0.268 OA
HETATM    4  H   UNL     1      24.806  45.965  49.620  1.00  0.00     0.163 HD
ENDROOT
BRANCH   1   5
HETATM    5  C   UNL     1      24.721  48.564  49.222  1.00  0.00     0.034 A 
HETATM    6  C   UNL     1      23.409  48.285  49.636  1.00  0.00     0.046 A 
HETATM    7  C   UNL     1      22.344  49.085  49.206  1.00  0.00     0.035 A 
HETATM    8  C   UNL     1      22.599  50.151  48.334  1.00  0.00     0.029 A 
HETATM    9  C   UNL     1      23.897  50.424  47.903  1.00  0.00     0.003 A 
HETATM   10  C   UNL     1      24.954  49.633  48.347  1.00  0.00     0.017 A 
BRANCH   7  11
HETATM   11  N   UNL     1      21.002  48.880  49.589  1.00  0.00    -0.327 N 
HETATM   12  C   UNL     1      20.066  48.059  48.978  1.00  0.00     0.221 C 
HETATM   13  O   UNL     1      20.258  47.335  48.009  1.00  0.00    -0.273 OA
HETATM   14  H   UNL     1      20.701  49.361  50.428  1.00  0.00     0.169 HD
BRANCH  12  15
HETATM   15  C   UNL     1      18.720  48.137  49.685  1.00  0.00     0.098 C 
HETATM   16  C   UNL     1      18.742  49.067  50.885  1.00  0.00     0.014 C 
ENDBRANCH  12  15
ENDBRANCH   7  11
ENDBRANCH   1   5
BRANCH   2  17
HETATM   17  C   UNL     1      26.797  45.500  50.133  1.00  0.00     0.161 C 
BRANCH  17  18
HETATM   18  C   UNL     1      26.605  44.920  51.510  1.00  0.00    -0.035 A 
HETATM   19  C   UNL     1      27.636  44.226  52.150  1.00  0.00     0.066 A 
HETATM   20  C   UNL     1      27.412  43.721  53.420  1.00  0.00     0.164 A 
HETATM   21  N   UNL     1      26.260  43.878  54.103  1.00  0.00    -0.237 NA
HETATM   22  C   UNL     1      25.286  44.575  53.481  1.00  0.00     0.120 A 
HETATM   23  C   UNL     1      25.407  45.106  52.205  1.00  0.00     0.028 A 
BRANCH  20  24
HETATM   24  O   UNL     1      28.448  43.010  53.995  1.00  0.00    -0.329 OA
BRANCH  24  25
HETATM   25  C   UNL     1      29.616  43.775  54.361  1.00  0.00     0.130 C 
HETATM   26  C   UNL     1      29.417  44.906  55.407  1.00  0.00     0.032 C 
HETATM   27  C   UNL     1      30.760  44.484  56.028  1.00  0.00     0.005 C 
HETATM   28  C   UNL     1      30.531  43.093  55.412  1.00  0.00     0.032 C 
ENDBRANCH  24  25
ENDBRANCH  20  24
ENDBRANCH  17  18
ENDBRANCH   2  17
TORSDOF 7
ENDMDL
MODEL 5
REMARK VINA RESULT:      -8.3      2.243      9.683
REMARK  7 active torsions:
REMARK  status: ('A' for Active; 'I' for Inactive)
REMARK    1  A    between atoms: C_2  and  C_3 
REMARK       I    between atoms: C_3  and  N_4 
REMARK    2  A    between atoms: N_4  and  C_5 
REMARK    3  A    between atoms: C_7  and  C_8 
REMARK       I    between atoms: C_8  and  N_9 
REMARK    4  A    between atoms: N_9  and  C_10 
REMARK    5  A    between atoms: C_10  and  C_11 
REMARK    6  A    between atoms: C_13  and  O_14 
REMARK    7  A    between atoms: O_14  and  C_15 
ROOT
HETATM    1  C   UNL     1      25.649  44.641  53.078  1.00  0.00     0.252 C 
HETATM    2  N   UNL     1      25.810  44.505  51.716  1.00  0.00    -0.353 N 
HETATM    3  O   UNL     1      24.667  44.214  53.678  1.00  0.00    -0.268 OA
HETATM    4  H   UNL     1      26.604  44.911  51.242  1.00  0.00     0.163 HD
ENDROOT
BRANCH   1   5
HETATM    5  C   UNL     1      26.719  45.358  53.832  1.00  0.00     0.034 A 
HETATM    6  C   UNL     1      27.759  44.691  54.498  1.00  0.00     0.046 A 
HETATM    7  C   UNL     1      28.735  45.414  55.193  1.00  0.00     0.035 A 
HETATM    8  C   UNL     1      28.645  46.811  55.242  1.00  0.00     0.029 A 
HETATM    9  C   UNL     1      27.604  47.480  54.599  1.00  0.00     0.003 A 
HETATM   10  C   UNL     1      26.645  46.756  53.896  1.00  0.00     0.017 A 
BRANCH   7  11
HETATM   11  N   UNL     1      29.818  44.820  55.874  1.00  0.00    -0.327 N 
HETATM   12  C   UNL     1      30.559  43.716  55.481  1.00  0.00     0.221 C 
HETATM   13  O   UNL     1      30.418  43.079  54.444  1.00  0.00    -0.273 OA
HETATM   14  H   UNL     1      30.110  45.278  56.729  1.00  0.00     0.169 HD
BRANCH  12  15
HETATM   15  C   UNL     1      31.630  43.377  56.508  1.00  0.00     0.098 C 
HETATM   16  C   UNL     1      31.446  44.127  57.815  1.00  0.00     0.014 C 
ENDBRANCH  12  15
ENDBRANCH   7  11
ENDBRANCH   1   5
BRANCH   2  17
HETATM   17  C   UNL     1      24.851  43.790  50.902  1.00  0.00     0.161 C 
BRANCH  17  18
HETATM   18  C   UNL     1      23.982  44.732  50.111  1.00  0.00    -0.035 A 
HETATM   19  C   UNL     1      24.341  46.073  49.941  1.00  0.00     0.066 A 
HETATM   20  C   UNL     1      23.512  46.896  49.198  1.00  0.00     0.164 A 
HETATM   21  N   UNL     1      22.380  46.481  48.593  1.00  0.00    -0.237 NA
HETATM   22  C   UNL     1      22.064  45.178  48.745  1.00  0.00     0.120 A 
HETATM   23  C   UNL     1      22.819  44.278  49.483  1.00  0.00     0.028 A 
BRANCH  20  24
HETATM   24  O   UNL     1      23.890  48.221  49.090  1.00  0.00    -0.329 OA
BRANCH  24  25
HETATM   25  C   UNL     1      22.917  49.113  48.507  1.00  0.00     0.130 C 
HETATM   26  C   UNL     1      22.214  50.111  49.466  1.00  0.00     0.032 C 
HETATM   27  C   UNL     1      22.336  51.170  48.356  1.00  0.00     0.005 C 
HETATM   28  C   UNL     1      23.521  50.359  47.806  1.00  0.00     0.032 C 
ENDBRANCH  24  25
ENDBRANCH  20  24
ENDBRANCH  17  18
ENDBRANCH   2  17
TORSDOF 7
ENDMDL
MODEL 6
REMARK VINA RESULT:      -8.2      3.370     10.569
REMARK  7 active torsions:
REMARK  status: ('A' for Active; 'I' for Inactive)
REMARK    1  A    between atoms: C_2  and  C_3 
REMARK       I    between atoms: C_3  and  N_4 
REMARK    2  A    between atoms: N_4  and  C_5 
REMARK    3  A    between atoms: C_7  and  C_8 
REMARK       I    between atoms: C_8  and  N_9 
REMARK    4  A    between atoms: N_9  and  C_10 
REMARK    5  A    between atoms: C_10  and  C_11 
REMARK    6  A    between atoms: C_13  and  O_14 
REMARK    7  A    between atoms: O_14  and  C_15 
ROOT
HETATM    1  C   UNL     1      23.835  50.071  48.212  1.00  0.00     0.252 C 
HETATM    2  N   UNL     1      22.967  50.653  49.111  1.00  0.00    -0.353 N 
HETATM    3  O   UNL     1      23.660  50.107  46.998  1.00  0.00    -0.268 OA
HETATM    4  H   UNL     1      23.110  50.564  50.106  1.00  0.00     0.163 HD
ENDROOT
BRANCH   1   5
HETATM    5  C   UNL     1      25.024  49.357  48.764  1.00  0.00     0.034 A 
HETATM    6  C   UNL     1      24.917  48.256  49.629  1.00  0.00     0.046 A 
HETATM    7  C   UNL     1      26.065  47.626  50.120  1.00  0.00     0.035 A 
HETATM    8  C   UNL     1      27.324  48.123  49.761  1.00  0.00     0.029 A 
HETATM    9  C   UNL     1      27.439  49.227  48.916  1.00  0.00     0.003 A 
HETATM   10  C   UNL     1      26.292  49.841  48.420  1.00  0.00     0.017 A 
BRANCH   7  11
HETATM   11  N   UNL     1      26.043  46.507  50.980  1.00  0.00    -0.327 N 
HETATM   12  C   UNL     1      25.892  46.505  52.358  1.00  0.00     0.221 C 
HETATM   13  O   UNL     1      25.715  47.486  53.070  1.00  0.00    -0.273 OA
HETATM   14  H   UNL     1      26.108  45.602  50.532  1.00  0.00     0.169 HD
BRANCH  12  15
HETATM   15  C   UNL     1      25.946  45.090  52.916  1.00  0.00     0.098 C 
HETATM   16  C   UNL     1      25.224  44.956  54.245  1.00  0.00     0.014 C 
ENDBRANCH  12  15
ENDBRANCH   7  11
ENDBRANCH   1   5
BRANCH   2  17
HETATM   17  C   UNL     1      21.809  51.404  48.676  1.00  0.00     0.161 C 
BRANCH  17  18
HETATM   18  C   UNL     1      20.544  50.894  49.314  1.00  0.00    -0.035 A 
HETATM   19  C   UNL     1      19.434  51.728  49.482  1.00  0.00     0.066 A 
HETATM   20  C   UNL     1      18.292  51.207  50.066  1.00  0.00     0.164 A 
HETATM   21  N   UNL     1      18.163  49.925  50.465  1.00  0.00    -0.237 NA
HETATM   22  C   UNL     1      19.234  49.128  50.269  1.00  0.00     0.120 A 
HETATM   23  C   UNL     1      20.428  49.558  49.708  1.00  0.00     0.028 A 
BRANCH  20  24
HETATM   24  O   UNL     1      17.235  52.081  50.245  1.00  0.00    -0.329 OA
BRANCH  24  25
HETATM   25  C   UNL     1      16.098  51.888  49.378  1.00  0.00     0.130 C 
HETATM   26  C   UNL     1      15.059  53.039  49.314  1.00  0.00     0.032 C 
HETATM   27  C   UNL     1      14.962  52.786  47.799  1.00  0.00     0.005 C 
HETATM   28  C   UNL     1      16.373  52.180  47.879  1.00  0.00     0.032 C 
ENDBRANCH  24  25
ENDBRANCH  20  24
ENDBRANCH  17  18
ENDBRANCH   2  17
TORSDOF 7
ENDMDL
MODEL 7
REMARK VINA RESULT:      -8.1      2.168      2.713
REMARK  7 active torsions:
REMARK  status: ('A' for Active; 'I' for Inactive)
REMARK    1  A    between atoms: C_2  and  C_3 
REMARK       I    between atoms: C_3  and  N_4 
REMARK    2  A    between atoms: N_4  and  C_5 
REMARK    3  A    between atoms: C_7  and  C_8 
REMARK       I    between atoms: C_8  and  N_9 
REMARK    4  A    between atoms: N_9  and  C_10 
REMARK    5  A    between atoms: C_10  and  C_11 
REMARK    6  A    between atoms: C_13  and  O_14 
REMARK    7  A    between atoms: O_14  and  C_15 
ROOT
HETATM    1  C   UNL     1      23.683  47.019  49.487  1.00  0.00     0.252 C 
HETATM    2  N   UNL     1      24.323  46.770  50.681  1.00  0.00    -0.353 N 
HETATM    3  O   UNL     1      23.288  46.126  48.743  1.00  0.00    -0.268 OA
HETATM    4  H   UNL     1      24.681  47.525  51.248  1.00  0.00     0.163 HD
ENDROOT
BRANCH   1   5
HETATM    5  C   UNL     1      23.487  48.445  49.092  1.00  0.00     0.034 A 
HETATM    6  C   UNL     1      22.247  49.096  49.177  1.00  0.00     0.046 A 
HETATM    7  C   UNL     1      22.120  50.434  48.789  1.00  0.00     0.035 A 
HETATM    8  C   UNL     1      23.240  51.110  48.288  1.00  0.00     0.029 A 
HETATM    9  C   UNL     1      24.472  50.465  48.183  1.00  0.00     0.003 A 
HETATM   10  C   UNL     1      24.595  49.138  48.585  1.00  0.00     0.017 A 
BRANCH   7  11
HETATM   11  N   UNL     1      20.913  51.163  48.858  1.00  0.00    -0.327 N 
HETATM   12  C   UNL     1      19.886  51.185  47.926  1.00  0.00     0.221 C 
HETATM   13  O   UNL     1      19.836  50.540  46.887  1.00  0.00    -0.273 OA
HETATM   14  H   UNL     1      20.767  51.701  49.703  1.00  0.00     0.169 HD
BRANCH  12  15
HETATM   15  C   UNL     1      18.767  52.118  48.363  1.00  0.00     0.098 C 
HETATM   16  C   UNL     1      18.544  52.103  49.865  1.00  0.00     0.014 C 
ENDBRANCH  12  15
ENDBRANCH   7  11
ENDBRANCH   1   5
BRANCH   2  17
HETATM   17  C   UNL     1      24.523  45.424  51.173  1.00  0.00     0.161 C 
BRANCH  17  18
HETATM   18  C   UNL     1      25.432  45.401  52.374  1.00  0.00    -0.035 A 
HETATM   19  C   UNL     1      25.904  44.193  52.897  1.00  0.00     0.066 A 
HETATM   20  C   UNL     1      26.745  44.227  53.997  1.00  0.00     0.164 A 
HETATM   21  N   UNL     1      27.169  45.361  54.590  1.00  0.00    -0.237 NA
HETATM   22  C   UNL     1      26.725  46.518  54.054  1.00  0.00     0.120 A 
HETATM   23  C   UNL     1      25.869  46.589  52.966  1.00  0.00     0.028 A 
BRANCH  20  24
HETATM   24  O   UNL     1      27.154  43.006  54.500  1.00  0.00    -0.329 OA
BRANCH  24  25
HETATM   25  C   UNL     1      28.342  42.440  53.906  1.00  0.00     0.130 C 
HETATM   26  C   UNL     1      28.901  43.148  52.642  1.00  0.00     0.032 C 
HETATM   27  C   UNL     1      30.312  42.911  53.209  1.00  0.00     0.005 C 
HETATM   28  C   UNL     1      29.668  42.844  54.603  1.00  0.00     0.032 C 
ENDBRANCH  24  25
ENDBRANCH  20  24
ENDBRANCH  17  18
ENDBRANCH   2  17
TORSDOF 7
ENDMDL
MODEL 8
REMARK VINA RESULT:      -8.0      2.529      3.447
REMARK  7 active torsions:
REMARK  status: ('A' for Active; 'I' for Inactive)
REMARK    1  A    between atoms: C_2  and  C_3 
REMARK       I    between atoms: C_3  and  N_4 
REMARK    2  A    between atoms: N_4  and  C_5 
REMARK    3  A    between atoms: C_7  and  C_8 
REMARK       I    between atoms: C_8  and  N_9 
REMARK    4  A    between atoms: N_9  and  C_10 
REMARK    5  A    between atoms: C_10  and  C_11 
REMARK    6  A    between atoms: C_13  and  O_14 
REMARK    7  A    between atoms: O_14  and  C_15 
ROOT
HETATM    1  C   UNL     1      24.265  48.451  49.247  1.00  0.00     0.252 C 
HETATM    2  N   UNL     1      24.271  47.230  49.885  1.00  0.00    -0.353 N 
HETATM    3  O   UNL     1      25.289  49.002  48.854  1.00  0.00    -0.268 OA
HETATM    4  H   UNL     1      23.418  46.825  50.243  1.00  0.00     0.163 HD
ENDROOT
BRANCH   1   5
HETATM    5  C   UNL     1      22.946  49.124  49.054  1.00  0.00     0.034 A 
HETATM    6  C   UNL     1      21.740  48.416  48.942  1.00  0.00     0.046 A 
HETATM    7  C   UNL     1      20.532  49.097  48.758  1.00  0.00     0.035 A 
HETATM    8  C   UNL     1      20.544  50.494  48.658  1.00  0.00     0.029 A 
HETATM    9  C   UNL     1      21.741  51.205  48.750  1.00  0.00     0.003 A 
HETATM   10  C   UNL     1      22.937  50.521  48.948  1.00  0.00     0.017 A 
BRANCH   7  11
HETATM   11  N   UNL     1      19.277  48.461  48.652  1.00  0.00    -0.327 N 
HETATM   12  C   UNL     1      18.395  48.157  49.678  1.00  0.00     0.221 C 
HETATM   13  O   UNL     1      18.542  48.425  50.864  1.00  0.00    -0.273 OA
HETATM   14  H   UNL     1      18.972  48.235  47.713  1.00  0.00     0.169 HD
BRANCH  12  15
HETATM   15  C   UNL     1      17.158  47.447  49.148  1.00  0.00     0.098 C 
HETATM   16  C   UNL     1      16.556  48.140  47.939  1.00  0.00     0.014 C 
ENDBRANCH  12  15
ENDBRANCH   7  11
ENDBRANCH   1   5
BRANCH   2  17
HETATM   17  C   UNL     1      25.491  46.478  50.083  1.00  0.00     0.161 C 
BRANCH  17  18
HETATM   18  C   UNL     1      25.815  46.320  51.545  1.00  0.00    -0.035 A 
HETATM   19  C   UNL     1      26.475  45.181  52.018  1.00  0.00     0.066 A 
HETATM   20  C   UNL     1      26.758  45.088  53.371  1.00  0.00     0.164 A 
HETATM   21  N   UNL     1      26.462  46.046  54.273  1.00  0.00    -0.237 NA
HETATM   22  C   UNL     1      25.850  47.150  53.794  1.00  0.00     0.120 A 
HETATM   23  C   UNL     1      25.510  47.331  52.461  1.00  0.00     0.028 A 
BRANCH  20  24
HETATM   24  O   UNL     1      27.377  43.927  53.795  1.00  0.00    -0.329 OA
BRANCH  24  25
HETATM   25  C   UNL     1      28.820  43.945  53.806  1.00  0.00     0.130 C 
HETATM   26  C   UNL     1      29.508  44.358  55.135  1.00  0.00     0.032 C 
HETATM   27  C   UNL     1      30.544  43.252  54.871  1.00  0.00     0.005 C 
HETATM   28  C   UNL     1      29.481  42.556  54.004  1.00  0.00     0.032 C 
ENDBRANCH  24  25
ENDBRANCH  20  24
ENDBRANCH  17  18
ENDBRANCH   2  17
TORSDOF 7
ENDMDL
MODEL 9
REMARK VINA RESULT:      -7.8      4.972      7.522
REMARK  7 active torsions:
REMARK  status: ('A' for Active; 'I' for Inactive)
REMARK    1  A    between atoms: C_2  and  C_3 
REMARK       I    between atoms: C_3  and  N_4 
REMARK    2  A    between atoms: N_4  and  C_5 
REMARK    3  A    between atoms: C_7  and  C_8 
REMARK       I    between atoms: C_8  and  N_9 
REMARK    4  A    between atoms: N_9  and  C_10 
REMARK    5  A    between atoms: C_10  and  C_11 
REMARK    6  A    between atoms: C_13  and  O_14 
REMARK    7  A    between atoms: O_14  and  C_15 
ROOT
HETATM    1  C   UNL     1      24.754  43.558  51.535  1.00  0.00     0.252 C 
HETATM    2  N   UNL     1      25.343  43.518  52.780  1.00  0.00    -0.353 N 
HETATM    3  O   UNL     1      23.956  44.429  51.203  1.00  0.00    -0.268 OA
HETATM    4  H   UNL     1      25.958  42.761  53.042  1.00  0.00     0.163 HD
ENDROOT
BRANCH   1   5
HETATM    5  C   UNL     1      25.105  42.475  50.569  1.00  0.00     0.034 A 
HETATM    6  C   UNL     1      26.020  41.454  50.870  1.00  0.00     0.046 A 
HETATM    7  C   UNL     1      26.315  40.465  49.925  1.00  0.00     0.035 A 
HETATM    8  C   UNL     1      25.707  40.521  48.664  1.00  0.00     0.029 A 
HETATM    9  C   UNL     1      24.811  41.543  48.351  1.00  0.00     0.003 A 
HETATM   10  C   UNL     1      24.511  42.516  49.301  1.00  0.00     0.017 A 
BRANCH   7  11
HETATM   11  N   UNL     1      27.210  39.398  50.155  1.00  0.00    -0.327 N 
HETATM   12  C   UNL     1      28.388  39.125  49.478  1.00  0.00     0.221 C 
HETATM   13  O   UNL     1      28.878  39.792  48.575  1.00  0.00    -0.273 OA
HETATM   14  H   UNL     1      26.981  38.786  50.928  1.00  0.00     0.169 HD
BRANCH  12  15
HETATM   15  C   UNL     1      29.053  37.866  50.016  1.00  0.00     0.098 C 
HETATM   16  C   UNL     1      29.968  38.144  51.195  1.00  0.00     0.014 C 
ENDBRANCH  12  15
ENDBRANCH   7  11
ENDBRANCH   1   5
BRANCH   2  17
HETATM   17  C   UNL     1      25.101  44.544  53.772  1.00  0.00     0.161 C 
BRANCH  17  18
HETATM   18  C   UNL     1      26.381  45.207  54.207  1.00  0.00    -0.035 A 
HETATM   19  C   UNL     1      27.509  44.450  54.538  1.00  0.00     0.066 A 
HETATM   20  C   UNL     1      28.664  45.109  54.923  1.00  0.00     0.164 A 
HETATM   21  N   UNL     1      28.788  46.451  54.976  1.00  0.00    -0.237 NA
HETATM   22  C   UNL     1      27.697  47.166  54.627  1.00  0.00     0.120 A 
HETATM   23  C   UNL     1      26.490  46.600  54.243  1.00  0.00     0.028 A 
BRANCH  20  24
HETATM   24  O   UNL     1      29.741  44.316  55.276  1.00  0.00    -0.329 OA
BRANCH  24  25
HETATM   25  C   UNL     1      30.651  44.878  56.245  1.00  0.00     0.130 C 
HETATM   26  C   UNL     1      30.044  45.337  57.597  1.00  0.00     0.032 C 
HETATM   27  C   UNL     1      31.289  44.752  58.286  1.00  0.00     0.005 C 
HETATM   28  C   UNL     1      31.447  43.829  57.066  1.00  0.00     0.032 C 
ENDBRANCH  24  25
ENDBRANCH  20  24
ENDBRANCH  17  18
ENDBRANCH   2  17
TORSDOF 7
ENDMDL
MODEL 10
REMARK VINA RESULT:      -7.7      2.143      2.951
REMARK  7 active torsions:
REMARK  status: ('A' for Active; 'I' for Inactive)
REMARK    1  A    between atoms: C_2  and  C_3 
REMARK       I    between atoms: C_3  and  N_4 
REMARK    2  A    between atoms: N_4  and  C_5 
REMARK    3  A    between atoms: C_7  and  C_8 
REMARK       I    between atoms: C_8  and  N_9 
REMARK    4  A    between atoms: N_9  and  C_10 
REMARK    5  A    between atoms: C_10  and  C_11 
REMARK    6  A    between atoms: C_13  and  O_14 
REMARK    7  A    between atoms: O_14  and  C_15 
ROOT
HETATM    1  C   UNL     1      24.523  47.446  49.688  1.00  0.00     0.252 C 
HETATM    2  N   UNL     1      24.967  46.184  50.018  1.00  0.00    -0.353 N 
HETATM    3  O   UNL     1      25.205  48.454  49.845  1.00  0.00    -0.268 OA
HETATM    4  H   UNL     1      24.365  45.378  49.925  1.00  0.00     0.163 HD
ENDROOT
BRANCH   1   5
HETATM    5  C   UNL     1      23.143  47.570  49.134  1.00  0.00     0.034 A 
HETATM    6  C   UNL     1      22.352  48.716  49.308  1.00  0.00     0.046 A 
HETATM    7  C   UNL     1      21.062  48.777  48.770  1.00  0.00     0.035 A 
HETATM    8  C   UNL     1      20.558  47.669  48.078  1.00  0.00     0.029 A 
HETATM    9  C   UNL     1      21.330  46.519  47.915  1.00  0.00     0.003 A 
HETATM   10  C   UNL     1      22.618  46.470  48.441  1.00  0.00     0.017 A 
BRANCH   7  11
HETATM   11  N   UNL     1      20.212  49.897  48.888  1.00  0.00    -0.327 N 
HETATM   12  C   UNL     1      20.272  50.906  49.837  1.00  0.00     0.221 C 
HETATM   13  O   UNL     1      21.107  51.017  50.726  1.00  0.00    -0.273 OA
HETATM   14  H   UNL     1      19.500  49.991  48.174  1.00  0.00     0.169 HD
BRANCH  12  15
HETATM   15  C   UNL     1      19.156  51.920  49.634  1.00  0.00     0.098 C 
HETATM   16  C   UNL     1      19.081  52.430  48.205  1.00  0.00     0.014 C 
ENDBRANCH  12  15
ENDBRANCH   7  11
ENDBRANCH   1   5
BRANCH   2  17
HETATM   17  C   UNL     1      26.303  45.952  50.523  1.00  0.00     0.161 C 
BRANCH  17  18
HETATM   18  C   UNL     1      26.281  45.225  51.841  1.00  0.00    -0.035 A 
HETATM   19  C   UNL     1      27.387  44.486  52.275  1.00  0.00     0.066 A 
HETATM   20  C   UNL     1      27.319  43.843  53.500  1.00  0.00     0.164 A 
HETATM   21  N   UNL     1      26.256  43.904  54.328  1.00  0.00    -0.237 NA
HETATM   22  C   UNL     1      25.210  44.644  53.905  1.00  0.00     0.120 A 
HETATM   23  C   UNL     1      25.174  45.312  52.690  1.00  0.00     0.028 A 
BRANCH  20  24
HETATM   24  O   UNL     1      28.422  43.095  53.867  1.00  0.00    -0.329 OA
BRANCH  24  25
HETATM   25  C   UNL     1      29.584  43.841  54.286  1.00  0.00     0.130 C 
HETATM   26  C   UNL     1      29.382  44.878  55.423  1.00  0.00     0.032 C 
HETATM   27  C   UNL     1      30.735  44.422  55.997  1.00  0.00     0.005 C 
HETATM   28  C   UNL     1      30.517  43.085  55.269  1.00  0.00     0.032 C 
ENDBRANCH  24  25
ENDBRANCH  20  24
ENDBRANCH  17  18
ENDBRANCH   2  17
TORSDOF 7
ENDMDL
