MODEL 1
REMARK VINA RESULT:     -10.2      0.000      0.000
REMARK  5 active torsions:
REMARK  status: ('A' for Active; 'I' for Inactive)
REMARK    1  A    between atoms: C_3  and  O_4 
REMARK    2  A    between atoms: C_6  and  N_7 
REMARK       I    between atoms: N_7  and  C_8 
REMARK    3  A    between atoms: C_8  and  C_9 
REMARK    4  A    between atoms: C_14  and  C_15 
REMARK    5  A    between atoms: C_23  and  C_24 
ROOT
HETATM    1  C   UNL     1      27.274  44.495  53.272  1.00  0.00     0.148 A 
HETATM    2  N   UNL     1      27.268  44.018  52.006  1.00  0.00    -0.165 NA
HETATM    3  N   UNL     1      26.277  44.706  51.409  1.00  0.00    -0.240 N 
HETATM    4  C   UNL     1      25.697  45.643  52.222  1.00  0.00     0.123 A 
HETATM    5  N   UNL     1      24.746  46.490  51.767  1.00  0.00    -0.366 N 
HETATM    6  C   UNL     1      24.443  46.597  50.343  1.00  0.00     0.118 C 
HETATM    7  C   UNL     1      24.644  45.243  49.650  1.00  0.00     0.066 C 
HETATM    8  C   UNL     1      26.000  44.594  49.987  1.00  0.00     0.221 C 
HETATM    9  C   UNL     1      26.301  45.514  53.444  1.00  0.00     0.089 A 
HETATM   10  H   UNL     1      24.470  47.295  52.327  1.00  0.00     0.161 HD
ENDROOT
BRANCH   1  11
HETATM   11  C   UNL     1      28.209  43.991  54.296  1.00  0.00     0.276 C 
HETATM   12  N   UNL     1      28.730  45.014  55.064  1.00  0.00    -0.322 N 
HETATM   13  H   UNL     1      28.403  45.936  54.784  1.00  0.00     0.169 HD
HETATM   14  O   UNL     1      28.460  42.796  54.393  1.00  0.00    -0.266 OA
BRANCH  12  15
HETATM   15  C   UNL     1      29.648  44.928  56.125  1.00  0.00     0.037 A 
HETATM   16  C   UNL     1      30.627  43.940  56.231  1.00  0.00     0.066 A 
HETATM   17  C   UNL     1      31.496  43.933  57.322  1.00  0.00     0.067 A 
HETATM   18  C   UNL     1      31.411  44.903  58.315  1.00  0.00     0.036 A 
HETATM   19  C   UNL     1      30.435  45.892  58.215  1.00  0.00     0.005 A 
HETATM   20  C   UNL     1      29.556  45.901  57.130  1.00  0.00     0.029 A 
BRANCH  17  21
HETATM   21  O   UNL     1      32.431  42.940  57.384  1.00  0.00    -0.361 OA
HETATM   22  H   UNL     1      32.764  42.769  56.488  1.00  0.00     0.217 HD
ENDBRANCH  17  21
ENDBRANCH  12  15
ENDBRANCH   1  11
BRANCH   8  23
HETATM   23  C   UNL     1      25.998  43.152  49.526  1.00  0.00     0.409 C 
HETATM   24  F   UNL     1      25.499  42.311  50.461  1.00  0.00    -0.169 F 
HETATM   25  F   UNL     1      25.206  43.023  48.428  1.00  0.00    -0.169 F 
HETATM   26  F   UNL     1      27.217  42.702  49.162  1.00  0.00    -0.169 F 
ENDBRANCH   8  23
BRANCH   6  27
HETATM   27  C   UNL     1      25.187  47.742  49.671  1.00  0.00    -0.035 A 
HETATM   28  C   UNL     1      26.587  47.873  49.705  1.00  0.00     0.012 A 
HETATM   29  C   UNL     1      27.221  48.953  49.082  1.00  0.00     0.043 A 
HETATM   30  C   UNL     1      26.461  49.906  48.419  1.00  0.00     0.116 A 
HETATM   31  F   UNL     1      27.069  50.944  47.830  1.00  0.00    -0.206 F 
HETATM   32  C   UNL     1      25.079  49.798  48.360  1.00  0.00     0.043 A 
HETATM   33  C   UNL     1      24.444  48.719  48.981  1.00  0.00     0.012 A 
ENDBRANCH   6  27
TORSDOF 5
ENDMDL
MODEL 2
REMARK VINA RESULT:      -9.3      4.406      8.508
REMARK  5 active torsions:
REMARK  status: ('A' for Active; 'I' for Inactive)
REMARK    1  A    between atoms: C_3  and  O_4 
REMARK    2  A    between atoms: C_6  and  N_7 
REMARK       I    between atoms: N_7  and  C_8 
REMARK    3  A    between atoms: C_8  and  C_9 
REMARK    4  A    between atoms: C_14  and  C_15 
REMARK    5  A    between atoms: C_23  and  C_24 
ROOT
HETATM    1  C   UNL     1      27.003  41.976  49.587  1.00  0.00     0.148 A 
HETATM    2  N   UNL     1      27.209  43.313  49.548  1.00  0.00    -0.165 NA
HETATM    3  N   UNL     1      26.876  43.724  50.786  1.00  0.00    -0.240 N 
HETATM    4  C   UNL     1      26.529  42.700  51.627  1.00  0.00     0.123 A 
HETATM    5  N   UNL     1      26.252  42.914  52.933  1.00  0.00    -0.366 N 
HETATM    6  C   UNL     1      26.515  44.203  53.563  1.00  0.00     0.118 C 
HETATM    7  C   UNL     1      26.322  45.342  52.553  1.00  0.00     0.066 C 
HETATM    8  C   UNL     1      27.064  45.096  51.226  1.00  0.00     0.221 C 
HETATM    9  C   UNL     1      26.575  41.557  50.874  1.00  0.00     0.089 A 
HETATM   10  H   UNL     1      26.187  42.127  53.575  1.00  0.00     0.161 HD
ENDROOT
BRANCH   1  11
HETATM   11  C   UNL     1      27.228  41.113  48.412  1.00  0.00     0.276 C 
HETATM   12  N   UNL     1      26.593  39.893  48.540  1.00  0.00    -0.322 N 
HETATM   13  H   UNL     1      26.100  39.786  49.424  1.00  0.00     0.169 HD
HETATM   14  O   UNL     1      27.918  41.489  47.472  1.00  0.00    -0.266 OA
BRANCH  12  15
HETATM   15  C   UNL     1      26.580  38.817  47.637  1.00  0.00     0.037 A 
HETATM   16  C   UNL     1      27.617  37.891  47.512  1.00  0.00     0.066 A 
HETATM   17  C   UNL     1      27.517  36.854  46.585  1.00  0.00     0.067 A 
HETATM   18  C   UNL     1      26.392  36.715  45.779  1.00  0.00     0.036 A 
HETATM   19  C   UNL     1      25.354  37.636  45.899  1.00  0.00     0.005 A 
HETATM   20  C   UNL     1      25.450  38.683  46.819  1.00  0.00     0.029 A 
BRANCH  17  21
HETATM   21  O   UNL     1      28.562  35.979  46.495  1.00  0.00    -0.361 OA
HETATM   22  H   UNL     1      28.511  35.354  47.235  1.00  0.00     0.217 HD
ENDBRANCH  17  21
ENDBRANCH  12  15
ENDBRANCH   1  11
BRANCH   8  23
HETATM   23  C   UNL     1      26.587  46.091  50.189  1.00  0.00     0.409 C 
HETATM   24  F   UNL     1      25.451  45.690  49.572  1.00  0.00    -0.169 F 
HETATM   25  F   UNL     1      26.302  47.277  50.789  1.00  0.00    -0.169 F 
HETATM   26  F   UNL     1      27.507  46.363  49.240  1.00  0.00    -0.169 F 
ENDBRANCH   8  23
BRANCH   6  27
HETATM   27  C   UNL     1      27.859  44.242  54.277  1.00  0.00    -0.035 A 
HETATM   28  C   UNL     1      28.303  45.352  55.019  1.00  0.00     0.012 A 
HETATM   29  C   UNL     1      29.553  45.341  55.645  1.00  0.00     0.043 A 
HETATM   30  C   UNL     1      30.366  44.222  55.537  1.00  0.00     0.116 A 
HETATM   31  F   UNL     1      31.566  44.216  56.130  1.00  0.00    -0.206 F 
HETATM   32  C   UNL     1      29.951  43.107  54.821  1.00  0.00     0.043 A 
HETATM   33  C   UNL     1      28.701  43.116  54.196  1.00  0.00     0.012 A 
ENDBRANCH   6  27
TORSDOF 5
ENDMDL
MODEL 3
REMARK VINA RESULT:      -9.3      4.257      8.298
REMARK  5 active torsions:
REMARK  status: ('A' for Active; 'I' for Inactive)
REMARK    1  A    between atoms: C_3  and  O_4 
REMARK    2  A    between atoms: C_6  and  N_7 
REMARK       I    between atoms: N_7  and  C_8 
REMARK    3  A    between atoms: C_8  and  C_9 
REMARK    4  A    between atoms: C_14  and  C_15 
REMARK    5  A    between atoms: C_23  and  C_24 
ROOT
HETATM    1  C   UNL     1      26.198  42.336  49.484  1.00  0.00     0.148 A 
HETATM    2  N   UNL     1      26.655  43.609  49.432  1.00  0.00    -0.165 NA
HETATM    3  N   UNL     1      26.465  44.069  50.683  1.00  0.00    -0.240 N 
HETATM    4  C   UNL     1      25.967  43.125  51.542  1.00  0.00     0.123 A 
HETATM    5  N   UNL     1      25.797  43.379  52.858  1.00  0.00    -0.366 N 
HETATM    6  C   UNL     1      26.332  44.590  53.473  1.00  0.00     0.118 C 
HETATM    7  C   UNL     1      26.315  45.751  52.470  1.00  0.00     0.066 C 
HETATM    8  C   UNL     1      26.934  45.375  51.110  1.00  0.00     0.221 C 
HETATM    9  C   UNL     1      25.758  41.999  50.790  1.00  0.00     0.089 A 
HETATM   10  H   UNL     1      25.611  42.615  53.505  1.00  0.00     0.161 HD
ENDROOT
BRANCH   1  11
HETATM   11  C   UNL     1      26.199  41.453  48.302  1.00  0.00     0.276 C 
HETATM   12  N   UNL     1      27.422  40.837  48.121  1.00  0.00    -0.322 N 
HETATM   13  H   UNL     1      28.117  41.109  48.813  1.00  0.00     0.169 HD
HETATM   14  O   UNL     1      25.203  41.334  47.598  1.00  0.00    -0.266 OA
BRANCH  12  15
HETATM   15  C   UNL     1      27.805  39.938  47.112  1.00  0.00     0.037 A 
HETATM   16  C   UNL     1      28.077  38.587  47.333  1.00  0.00     0.066 A 
HETATM   17  C   UNL     1      28.453  37.768  46.269  1.00  0.00     0.067 A 
HETATM   18  C   UNL     1      28.558  38.271  44.976  1.00  0.00     0.036 A 
HETATM   19  C   UNL     1      28.290  39.618  44.749  1.00  0.00     0.005 A 
HETATM   20  C   UNL     1      27.920  40.447  45.811  1.00  0.00     0.029 A 
BRANCH  17  21
HETATM   21  O   UNL     1      28.716  36.455  46.538  1.00  0.00    -0.361 OA
HETATM   22  H   UNL     1      29.541  36.204  46.094  1.00  0.00     0.217 HD
ENDBRANCH  17  21
ENDBRANCH  12  15
ENDBRANCH   1  11
BRANCH   8  23
HETATM   23  C   UNL     1      26.609  46.450  50.094  1.00  0.00     0.409 C 
HETATM   24  F   UNL     1      26.555  47.684  50.647  1.00  0.00    -0.169 F 
HETATM   25  F   UNL     1      27.584  46.494  49.146  1.00  0.00    -0.169 F 
HETATM   26  F   UNL     1      25.454  46.233  49.432  1.00  0.00    -0.169 F 
ENDBRANCH   8  23
BRANCH   6  27
HETATM   27  C   UNL     1      27.689  44.365  54.123  1.00  0.00    -0.035 A 
HETATM   28  C   UNL     1      28.431  43.180  53.964  1.00  0.00     0.012 A 
HETATM   29  C   UNL     1      29.668  43.019  54.595  1.00  0.00     0.043 A 
HETATM   30  C   UNL     1      30.174  44.042  55.386  1.00  0.00     0.116 A 
HETATM   31  F   UNL     1      31.355  43.883  55.996  1.00  0.00    -0.206 F 
HETATM   32  C   UNL     1      29.471  45.226  55.554  1.00  0.00     0.043 A 
HETATM   33  C   UNL     1      28.235  45.389  54.923  1.00  0.00     0.012 A 
ENDBRANCH   6  27
TORSDOF 5
ENDMDL
MODEL 4
REMARK VINA RESULT:      -9.2      3.168      5.362
REMARK  5 active torsions:
REMARK  status: ('A' for Active; 'I' for Inactive)
REMARK    1  A    between atoms: C_3  and  O_4 
REMARK    2  A    between atoms: C_6  and  N_7 
REMARK       I    between atoms: N_7  and  C_8 
REMARK    3  A    between atoms: C_8  and  C_9 
REMARK    4  A    between atoms: C_14  and  C_15 
REMARK    5  A    between atoms: C_23  and  C_24 
ROOT
HETATM    1  C   UNL     1      25.179  46.619  51.170  1.00  0.00     0.148 A 
HETATM    2  N   UNL     1      25.617  47.799  50.676  1.00  0.00    -0.165 NA
HETATM    3  N   UNL     1      24.761  48.064  49.671  1.00  0.00    -0.240 N 
HETATM    4  C   UNL     1      23.761  47.136  49.547  1.00  0.00     0.123 A 
HETATM    5  N   UNL     1      22.759  47.284  48.652  1.00  0.00    -0.366 N 
HETATM    6  C   UNL     1      22.569  48.536  47.926  1.00  0.00     0.118 C 
HETATM    7  C   UNL     1      23.921  49.214  47.667  1.00  0.00     0.066 C 
HETATM    8  C   UNL     1      24.792  49.315  48.933  1.00  0.00     0.221 C 
HETATM    9  C   UNL     1      24.018  46.172  50.485  1.00  0.00     0.089 A 
HETATM   10  H   UNL     1      21.934  46.690  48.708  1.00  0.00     0.161 HD
ENDROOT
BRANCH   1  11
HETATM   11  C   UNL     1      25.854  45.938  52.291  1.00  0.00     0.276 C 
HETATM   12  N   UNL     1      26.667  44.910  51.855  1.00  0.00    -0.322 N 
HETATM   13  H   UNL     1      26.647  44.781  50.845  1.00  0.00     0.169 HD
HETATM   14  O   UNL     1      25.663  46.284  53.451  1.00  0.00    -0.266 OA
BRANCH  12  15
HETATM   15  C   UNL     1      27.460  44.039  52.621  1.00  0.00     0.037 A 
HETATM   16  C   UNL     1      27.381  42.647  52.551  1.00  0.00     0.066 A 
HETATM   17  C   UNL     1      28.209  41.861  53.352  1.00  0.00     0.067 A 
HETATM   18  C   UNL     1      29.126  42.438  54.223  1.00  0.00     0.036 A 
HETATM   19  C   UNL     1      29.210  43.827  54.298  1.00  0.00     0.005 A 
HETATM   20  C   UNL     1      28.378  44.622  53.505  1.00  0.00     0.029 A 
BRANCH  17  21
HETATM   21  O   UNL     1      28.087  40.505  53.253  1.00  0.00    -0.361 OA
HETATM   22  H   UNL     1      28.793  40.089  53.773  1.00  0.00     0.217 HD
ENDBRANCH  17  21
ENDBRANCH  12  15
ENDBRANCH   1  11
BRANCH   8  23
HETATM   23  C   UNL     1      26.202  49.706  48.546  1.00  0.00     0.409 C 
HETATM   24  F   UNL     1      27.013  48.634  48.396  1.00  0.00    -0.169 F 
HETATM   25  F   UNL     1      26.187  50.349  47.348  1.00  0.00    -0.169 F 
HETATM   26  F   UNL     1      26.784  50.555  49.419  1.00  0.00    -0.169 F 
ENDBRANCH   8  23
BRANCH   6  27
HETATM   27  C   UNL     1      21.546  49.447  48.588  1.00  0.00    -0.035 A 
HETATM   28  C   UNL     1      20.627  48.997  49.553  1.00  0.00     0.012 A 
HETATM   29  C   UNL     1      19.698  49.874  50.121  1.00  0.00     0.043 A 
HETATM   30  C   UNL     1      19.683  51.206  49.732  1.00  0.00     0.116 A 
HETATM   31  F   UNL     1      18.787  52.043  50.271  1.00  0.00    -0.206 F 
HETATM   32  C   UNL     1      20.584  51.682  48.789  1.00  0.00     0.043 A 
HETATM   33  C   UNL     1      21.514  50.807  48.222  1.00  0.00     0.012 A 
ENDBRANCH   6  27
TORSDOF 5
ENDMDL
MODEL 5
REMARK VINA RESULT:      -9.2      5.117      6.840
REMARK  5 active torsions:
REMARK  status: ('A' for Active; 'I' for Inactive)
REMARK    1  A    between atoms: C_3  and  O_4 
REMARK    2  A    between atoms: C_6  and  N_7 
REMARK       I    between atoms: N_7  and  C_8 
REMARK    3  A    between atoms: C_8  and  C_9 
REMARK    4  A    between atoms: C_14  and  C_15 
REMARK    5  A    between atoms: C_23  and  C_24 
ROOT
HETATM    1  C   UNL     1      27.519  41.462  51.613  1.00  0.00     0.148 A 
HETATM    2  N   UNL     1      28.570  40.644  51.378  1.00  0.00    -0.165 NA
HETATM    3  N   UNL     1      28.107  39.789  50.446  1.00  0.00    -0.240 N 
HETATM    4  C   UNL     1      26.832  40.068  50.034  1.00  0.00     0.123 A 
HETATM    5  N   UNL     1      26.236  39.372  49.040  1.00  0.00    -0.366 N 
HETATM    6  C   UNL     1      26.989  38.436  48.212  1.00  0.00     0.118 C 
HETATM    7  C   UNL     1      28.108  37.778  49.030  1.00  0.00     0.066 C 
HETATM    8  C   UNL     1      28.959  38.800  49.809  1.00  0.00     0.221 C 
HETATM    9  C   UNL     1      26.411  41.130  50.789  1.00  0.00     0.089 A 
HETATM   10  H   UNL     1      25.373  39.716  48.623  1.00  0.00     0.161 HD
ENDROOT
BRANCH   1  11
HETATM   11  C   UNL     1      27.581  42.556  52.602  1.00  0.00     0.276 C 
HETATM   12  N   UNL     1      28.820  42.632  53.207  1.00  0.00    -0.322 N 
HETATM   13  H   UNL     1      29.469  41.915  52.889  1.00  0.00     0.169 HD
HETATM   14  O   UNL     1      26.609  43.269  52.822  1.00  0.00    -0.266 OA
BRANCH  12  15
HETATM   15  C   UNL     1      29.256  43.533  54.193  1.00  0.00     0.037 A 
HETATM   16  C   UNL     1      28.608  44.731  54.497  1.00  0.00     0.066 A 
HETATM   17  C   UNL     1      29.114  45.565  55.493  1.00  0.00     0.067 A 
HETATM   18  C   UNL     1      30.260  45.223  56.203  1.00  0.00     0.036 A 
HETATM   19  C   UNL     1      30.913  44.030  55.904  1.00  0.00     0.005 A 
HETATM   20  C   UNL     1      30.416  43.193  54.902  1.00  0.00     0.029 A 
BRANCH  17  21
HETATM   21  O   UNL     1      28.448  46.729  55.747  1.00  0.00    -0.361 OA
HETATM   22  H   UNL     1      28.344  47.218  54.915  1.00  0.00     0.217 HD
ENDBRANCH  17  21
ENDBRANCH  12  15
ENDBRANCH   1  11
BRANCH   8  23
HETATM   23  C   UNL     1      29.827  38.072  50.813  1.00  0.00     0.409 C 
HETATM   24  F   UNL     1      29.620  38.500  52.080  1.00  0.00    -0.169 F 
HETATM   25  F   UNL     1      29.530  36.745  50.800  1.00  0.00    -0.169 F 
HETATM   26  F   UNL     1      31.147  38.162  50.549  1.00  0.00    -0.169 F 
ENDBRANCH   8  23
BRANCH   6  27
HETATM   27  C   UNL     1      27.473  39.063  46.911  1.00  0.00    -0.035 A 
HETATM   28  C   UNL     1      27.558  40.453  46.714  1.00  0.00     0.012 A 
HETATM   29  C   UNL     1      27.996  40.978  45.495  1.00  0.00     0.043 A 
HETATM   30  C   UNL     1      28.355  40.118  44.466  1.00  0.00     0.116 A 
HETATM   31  F   UNL     1      28.767  40.622  43.296  1.00  0.00    -0.206 F 
HETATM   32  C   UNL     1      28.292  38.742  44.634  1.00  0.00     0.043 A 
HETATM   33  C   UNL     1      27.856  38.216  45.853  1.00  0.00     0.012 A 
ENDBRANCH   6  27
TORSDOF 5
ENDMDL
MODEL 6
REMARK VINA RESULT:      -9.1      7.451     10.292
REMARK  5 active torsions:
REMARK  status: ('A' for Active; 'I' for Inactive)
REMARK    1  A    between atoms: C_3  and  O_4 
REMARK    2  A    between atoms: C_6  and  N_7 
REMARK       I    between atoms: N_7  and  C_8 
REMARK    3  A    between atoms: C_8  and  C_9 
REMARK    4  A    between atoms: C_14  and  C_15 
REMARK    5  A    between atoms: C_23  and  C_24 
ROOT
HETATM    1  C   UNL     1      20.825  50.667  48.818  1.00  0.00     0.148 A 
HETATM    2  N   UNL     1      20.058  49.648  48.368  1.00  0.00    -0.165 NA
HETATM    3  N   UNL     1      18.950  50.259  47.909  1.00  0.00    -0.240 N 
HETATM    4  C   UNL     1      19.007  51.625  47.988  1.00  0.00     0.123 A 
HETATM    5  N   UNL     1      18.024  52.409  47.492  1.00  0.00    -0.366 N 
HETATM    6  C   UNL     1      16.961  51.857  46.658  1.00  0.00     0.118 C 
HETATM    7  C   UNL     1      16.638  50.419  47.085  1.00  0.00     0.066 C 
HETATM    8  C   UNL     1      17.895  49.538  47.217  1.00  0.00     0.221 C 
HETATM    9  C   UNL     1      20.197  51.921  48.597  1.00  0.00     0.089 A 
HETATM   10  H   UNL     1      18.174  53.411  47.389  1.00  0.00     0.161 HD
ENDROOT
BRANCH   1  11
HETATM   11  C   UNL     1      22.146  50.443  49.435  1.00  0.00     0.276 C 
HETATM   12  N   UNL     1      22.926  49.586  48.684  1.00  0.00    -0.322 N 
HETATM   13  H   UNL     1      22.456  49.238  47.851  1.00  0.00     0.169 HD
HETATM   14  O   UNL     1      22.449  50.975  50.497  1.00  0.00    -0.266 OA
BRANCH  12  15
HETATM   15  C   UNL     1      24.230  49.134  48.948  1.00  0.00     0.037 A 
HETATM   16  C   UNL     1      25.385  49.793  48.522  1.00  0.00     0.066 A 
HETATM   17  C   UNL     1      26.640  49.269  48.831  1.00  0.00     0.067 A 
HETATM   18  C   UNL     1      26.769  48.097  49.567  1.00  0.00     0.036 A 
HETATM   19  C   UNL     1      25.621  47.434  49.994  1.00  0.00     0.005 A 
HETATM   20  C   UNL     1      24.359  47.947  49.682  1.00  0.00     0.029 A 
BRANCH  17  21
HETATM   21  O   UNL     1      27.738  49.947  48.384  1.00  0.00    -0.361 OA
HETATM   22  H   UNL     1      27.967  49.621  47.499  1.00  0.00     0.217 HD
ENDBRANCH  17  21
ENDBRANCH  12  15
ENDBRANCH   1  11
BRANCH   8  23
HETATM   23  C   UNL     1      17.536  48.249  47.925  1.00  0.00     0.409 C 
HETATM   24  F   UNL     1      17.543  48.380  49.272  1.00  0.00    -0.169 F 
HETATM   25  F   UNL     1      16.276  47.872  47.580  1.00  0.00    -0.169 F 
HETATM   26  F   UNL     1      18.338  47.214  47.599  1.00  0.00    -0.169 F 
ENDBRANCH   8  23
BRANCH   6  27
HETATM   27  C   UNL     1      17.250  52.001  45.170  1.00  0.00    -0.035 A 
HETATM   28  C   UNL     1      17.936  51.026  44.423  1.00  0.00     0.012 A 
HETATM   29  C   UNL     1      18.187  51.214  43.061  1.00  0.00     0.043 A 
HETATM   30  C   UNL     1      17.752  52.374  42.435  1.00  0.00     0.116 A 
HETATM   31  F   UNL     1      18.000  52.556  41.132  1.00  0.00    -0.206 F 
HETATM   32  C   UNL     1      17.062  53.348  43.143  1.00  0.00     0.043 A 
HETATM   33  C   UNL     1      16.809  53.162  44.505  1.00  0.00     0.012 A 
ENDBRANCH   6  27
TORSDOF 5
ENDMDL
MODEL 7
REMARK VINA RESULT:      -9.0      4.303      9.151
REMARK  5 active torsions:
REMARK  status: ('A' for Active; 'I' for Inactive)
REMARK    1  A    between atoms: C_3  and  O_4 
REMARK    2  A    between atoms: C_6  and  N_7 
REMARK       I    between atoms: N_7  and  C_8 
REMARK    3  A    between atoms: C_8  and  C_9 
REMARK    4  A    between atoms: C_14  and  C_15 
REMARK    5  A    between atoms: C_23  and  C_24 
ROOT
HETATM    1  C   UNL     1      25.046  46.938  51.291  1.00  0.00     0.148 A 
HETATM    2  N   UNL     1      25.821  47.484  52.257  1.00  0.00    -0.165 NA
HETATM    3  N   UNL     1      25.975  46.485  53.146  1.00  0.00    -0.240 N 
HETATM    4  C   UNL     1      25.385  45.312  52.757  1.00  0.00     0.123 A 
HETATM    5  N   UNL     1      25.512  44.177  53.481  1.00  0.00    -0.366 N 
HETATM    6  C   UNL     1      26.454  44.087  54.592  1.00  0.00     0.118 C 
HETATM    7  C   UNL     1      26.592  45.447  55.288  1.00  0.00     0.066 C 
HETATM    8  C   UNL     1      26.849  46.601  54.300  1.00  0.00     0.221 C 
HETATM    9  C   UNL     1      24.753  45.578  51.572  1.00  0.00     0.089 A 
HETATM   10  H   UNL     1      25.233  43.284  53.080  1.00  0.00     0.161 HD
ENDROOT
BRANCH   1  11
HETATM   11  C   UNL     1      24.608  47.706  50.109  1.00  0.00     0.276 C 
HETATM   12  N   UNL     1      23.279  48.070  50.196  1.00  0.00    -0.322 N 
HETATM   13  H   UNL     1      22.823  47.734  51.041  1.00  0.00     0.169 HD
HETATM   14  O   UNL     1      25.379  47.946  49.187  1.00  0.00    -0.266 OA
BRANCH  12  15
HETATM   15  C   UNL     1      22.511  48.797  49.271  1.00  0.00     0.037 A 
HETATM   16  C   UNL     1      21.526  48.232  48.460  1.00  0.00     0.066 A 
HETATM   17  C   UNL     1      20.813  49.033  47.568  1.00  0.00     0.067 A 
HETATM   18  C   UNL     1      21.059  50.398  47.472  1.00  0.00     0.036 A 
HETATM   19  C   UNL     1      22.042  50.968  48.278  1.00  0.00     0.005 A 
HETATM   20  C   UNL     1      22.766  50.172  49.168  1.00  0.00     0.029 A 
BRANCH  17  21
HETATM   21  O   UNL     1      19.866  48.430  46.790  1.00  0.00    -0.361 OA
HETATM   22  H   UNL     1      19.064  48.299  47.321  1.00  0.00     0.217 HD
ENDBRANCH  17  21
ENDBRANCH  12  15
ENDBRANCH   1  11
BRANCH   8  23
HETATM   23  C   UNL     1      26.670  47.925  55.013  1.00  0.00     0.409 C 
HETATM   24  F   UNL     1      25.508  48.535  54.684  1.00  0.00    -0.169 F 
HETATM   25  F   UNL     1      26.631  47.720  56.357  1.00  0.00    -0.169 F 
HETATM   26  F   UNL     1      27.679  48.794  54.796  1.00  0.00    -0.169 F 
ENDBRANCH   8  23
BRANCH   6  27
HETATM   27  C   UNL     1      27.786  43.474  54.182  1.00  0.00    -0.035 A 
HETATM   28  C   UNL     1      29.004  43.796  54.806  1.00  0.00     0.012 A 
HETATM   29  C   UNL     1      30.202  43.214  54.381  1.00  0.00     0.043 A 
HETATM   30  C   UNL     1      30.190  42.303  53.334  1.00  0.00     0.116 A 
HETATM   31  F   UNL     1      31.340  41.752  52.923  1.00  0.00    -0.206 F 
HETATM   32  C   UNL     1      29.002  41.957  52.705  1.00  0.00     0.043 A 
HETATM   33  C   UNL     1      27.804  42.537  53.129  1.00  0.00     0.012 A 
ENDBRANCH   6  27
TORSDOF 5
ENDMDL
MODEL 8
REMARK VINA RESULT:      -9.0      6.338      8.813
REMARK  5 active torsions:
REMARK  status: ('A' for Active; 'I' for Inactive)
REMARK    1  A    between atoms: C_3  and  O_4 
REMARK    2  A    between atoms: C_6  and  N_7 
REMARK       I    between atoms: N_7  and  C_8 
REMARK    3  A    between atoms: C_8  and  C_9 
REMARK    4  A    between atoms: C_14  and  C_15 
REMARK    5  A    between atoms: C_23  and  C_24 
ROOT
HETATM    1  C   UNL     1      22.198  49.419  49.153  1.00  0.00     0.148 A 
HETATM    2  N   UNL     1      21.101  48.631  49.085  1.00  0.00    -0.165 NA
HETATM    3  N   UNL     1      20.094  49.500  48.882  1.00  0.00    -0.240 N 
HETATM    4  C   UNL     1      20.511  50.799  48.754  1.00  0.00     0.123 A 
HETATM    5  N   UNL     1      19.650  51.797  48.457  1.00  0.00    -0.366 N 
HETATM    6  C   UNL     1      18.278  51.519  48.046  1.00  0.00     0.118 C 
HETATM    7  C   UNL     1      17.757  50.253  48.740  1.00  0.00     0.066 C 
HETATM    8  C   UNL     1      18.732  49.065  48.626  1.00  0.00     0.221 C 
HETATM    9  C   UNL     1      21.866  50.784  48.952  1.00  0.00     0.089 A 
HETATM   10  H   UNL     1      20.004  52.711  48.180  1.00  0.00     0.161 HD
ENDROOT
BRANCH   1  11
HETATM   11  C   UNL     1      23.547  48.869  49.392  1.00  0.00     0.276 C 
HETATM   12  N   UNL     1      23.496  47.597  49.927  1.00  0.00    -0.322 N 
HETATM   13  H   UNL     1      22.548  47.264  50.087  1.00  0.00     0.169 HD
HETATM   14  O   UNL     1      24.552  49.521  49.135  1.00  0.00    -0.266 OA
BRANCH  12  15
HETATM   15  C   UNL     1      24.565  46.760  50.290  1.00  0.00     0.037 A 
HETATM   16  C   UNL     1      25.087  45.762  49.467  1.00  0.00     0.066 A 
HETATM   17  C   UNL     1      26.150  44.976  49.912  1.00  0.00     0.067 A 
HETATM   18  C   UNL     1      26.712  45.171  51.169  1.00  0.00     0.036 A 
HETATM   19  C   UNL     1      26.194  46.165  51.996  1.00  0.00     0.005 A 
HETATM   20  C   UNL     1      25.124  46.951  51.561  1.00  0.00     0.029 A 
BRANCH  17  21
HETATM   21  O   UNL     1      26.620  44.008  49.072  1.00  0.00    -0.361 OA
HETATM   22  H   UNL     1      25.866  43.523  48.701  1.00  0.00     0.217 HD
ENDBRANCH  17  21
ENDBRANCH  12  15
ENDBRANCH   1  11
BRANCH   8  23
HETATM   23  C   UNL     1      18.303  47.968  49.577  1.00  0.00     0.409 C 
HETATM   24  F   UNL     1      18.567  48.271  50.869  1.00  0.00    -0.169 F 
HETATM   25  F   UNL     1      16.958  47.786  49.490  1.00  0.00    -0.169 F 
HETATM   26  F   UNL     1      18.860  46.770  49.303  1.00  0.00    -0.169 F 
ENDBRANCH   8  23
BRANCH   6  27
HETATM   27  C   UNL     1      18.114  51.496  46.532  1.00  0.00    -0.035 A 
HETATM   28  C   UNL     1      18.757  50.558  45.704  1.00  0.00     0.012 A 
HETATM   29  C   UNL     1      18.583  50.589  44.317  1.00  0.00     0.043 A 
HETATM   30  C   UNL     1      17.763  51.554  43.749  1.00  0.00     0.116 A 
HETATM   31  F   UNL     1      17.604  51.587  42.420  1.00  0.00    -0.206 F 
HETATM   32  C   UNL     1      17.106  52.486  44.541  1.00  0.00     0.043 A 
HETATM   33  C   UNL     1      17.278  52.455  45.928  1.00  0.00     0.012 A 
ENDBRANCH   6  27
TORSDOF 5
ENDMDL
MODEL 9
REMARK VINA RESULT:      -8.9      4.016      6.558
REMARK  5 active torsions:
REMARK  status: ('A' for Active; 'I' for Inactive)
REMARK    1  A    between atoms: C_3  and  O_4 
REMARK    2  A    between atoms: C_6  and  N_7 
REMARK       I    between atoms: N_7  and  C_8 
REMARK    3  A    between atoms: C_8  and  C_9 
REMARK    4  A    between atoms: C_14  and  C_15 
REMARK    5  A    between atoms: C_23  and  C_24 
ROOT
HETATM    1  C   UNL     1      24.521  47.003  50.535  1.00  0.00     0.148 A 
HETATM    2  N   UNL     1      24.109  48.286  50.411  1.00  0.00    -0.165 NA
HETATM    3  N   UNL     1      23.313  48.263  49.325  1.00  0.00    -0.240 N 
HETATM    4  C   UNL     1      23.150  47.011  48.794  1.00  0.00     0.123 A 
HETATM    5  N   UNL     1      22.315  46.781  47.757  1.00  0.00    -0.366 N 
HETATM    6  C   UNL     1      21.384  47.803  47.291  1.00  0.00     0.118 C 
HETATM    7  C   UNL     1      21.987  49.201  47.479  1.00  0.00     0.066 C 
HETATM    8  C   UNL     1      22.552  49.423  48.895  1.00  0.00     0.221 C 
HETATM    9  C   UNL     1      23.941  46.176  49.538  1.00  0.00     0.089 A 
HETATM   10  H   UNL     1      22.065  45.826  47.507  1.00  0.00     0.161 HD
ENDROOT
BRANCH   1  11
HETATM   11  C   UNL     1      25.444  46.575  51.604  1.00  0.00     0.276 C 
HETATM   12  N   UNL     1      25.825  45.256  51.457  1.00  0.00    -0.322 N 
HETATM   13  H   UNL     1      25.393  44.798  50.658  1.00  0.00     0.169 HD
HETATM   14  O   UNL     1      25.783  47.345  52.496  1.00  0.00    -0.266 OA
BRANCH  12  15
HETATM   15  C   UNL     1      26.683  44.499  52.273  1.00  0.00     0.037 A 
HETATM   16  C   UNL     1      27.964  44.094  51.894  1.00  0.00     0.066 A 
HETATM   17  C   UNL     1      28.745  43.342  52.771  1.00  0.00     0.067 A 
HETATM   18  C   UNL     1      28.275  42.989  54.031  1.00  0.00     0.036 A 
HETATM   19  C   UNL     1      26.998  43.390  54.415  1.00  0.00     0.005 A 
HETATM   20  C   UNL     1      26.205  44.136  53.539  1.00  0.00     0.029 A 
BRANCH  17  21
HETATM   21  O   UNL     1      29.987  42.963  52.349  1.00  0.00    -0.361 OA
HETATM   22  H   UNL     1      29.893  42.397  51.567  1.00  0.00     0.217 HD
ENDBRANCH  17  21
ENDBRANCH  12  15
ENDBRANCH   1  11
BRANCH   8  23
HETATM   23  C   UNL     1      23.389  50.684  48.913  1.00  0.00     0.409 C 
HETATM   24  F   UNL     1      23.203  51.411  50.039  1.00  0.00    -0.169 F 
HETATM   25  F   UNL     1      24.709  50.359  48.877  1.00  0.00    -0.169 F 
HETATM   26  F   UNL     1      23.173  51.489  47.852  1.00  0.00    -0.169 F 
ENDBRANCH   8  23
BRANCH   6  27
HETATM   27  C   UNL     1      19.996  47.651  47.896  1.00  0.00    -0.035 A 
HETATM   28  C   UNL     1      19.352  48.678  48.611  1.00  0.00     0.012 A 
HETATM   29  C   UNL     1      18.081  48.482  49.158  1.00  0.00     0.043 A 
HETATM   30  C   UNL     1      17.443  47.261  48.993  1.00  0.00     0.116 A 
HETATM   31  F   UNL     1      16.229  47.072  49.525  1.00  0.00    -0.206 F 
HETATM   32  C   UNL     1      18.047  46.232  48.284  1.00  0.00     0.043 A 
HETATM   33  C   UNL     1      19.318  46.427  47.735  1.00  0.00     0.012 A 
ENDBRANCH   6  27
TORSDOF 5
ENDMDL
MODEL 10
REMARK VINA RESULT:      -8.8     12.674     14.198
REMARK  5 active torsions:
REMARK  status: ('A' for Active; 'I' for Inactive)
REMARK    1  A    between atoms: C_3  and  O_4 
REMARK    2  A    between atoms: C_6  and  N_7 
REMARK       I    between atoms: N_7  and  C_8 
REMARK    3  A    between atoms: C_8  and  C_9 
REMARK    4  A    between atoms: C_14  and  C_15 
REMARK    5  A    between atoms: C_23  and  C_24 
ROOT
HETATM    1  C   UNL     1      34.299  51.232  41.588  1.00  0.00     0.148 A 
HETATM    2  N   UNL     1      33.105  51.629  42.085  1.00  0.00    -0.165 NA
HETATM    3  N   UNL     1      32.242  51.385  41.081  1.00  0.00    -0.240 N 
HETATM    4  C   UNL     1      32.826  50.792  39.993  1.00  0.00     0.123 A 
HETATM    5  N   UNL     1      32.099  50.391  38.925  1.00  0.00    -0.366 N 
HETATM    6  C   UNL     1      30.640  50.371  38.964  1.00  0.00     0.118 C 
HETATM    7  C   UNL     1      30.114  51.503  39.856  1.00  0.00     0.066 C 
HETATM    8  C   UNL     1      30.807  51.555  41.230  1.00  0.00     0.221 C 
HETATM    9  C   UNL     1      34.162  50.703  40.278  1.00  0.00     0.089 A 
HETATM   10  H   UNL     1      32.519  49.786  38.221  1.00  0.00     0.161 HD
ENDROOT
BRANCH   1  11
HETATM   11  C   UNL     1      35.548  51.344  42.364  1.00  0.00     0.276 C 
HETATM   12  N   UNL     1      35.683  52.590  42.945  1.00  0.00    -0.322 N 
HETATM   13  H   UNL     1      34.918  53.223  42.725  1.00  0.00     0.169 HD
HETATM   14  O   UNL     1      36.337  50.409  42.435  1.00  0.00    -0.266 OA
BRANCH  12  15
HETATM   15  C   UNL     1      36.733  53.070  43.747  1.00  0.00     0.037 A 
HETATM   16  C   UNL     1      37.024  52.586  45.023  1.00  0.00     0.066 A 
HETATM   17  C   UNL     1      38.086  53.125  45.748  1.00  0.00     0.067 A 
HETATM   18  C   UNL     1      38.875  54.140  45.221  1.00  0.00     0.036 A 
HETATM   19  C   UNL     1      38.590  54.629  43.948  1.00  0.00     0.005 A 
HETATM   20  C   UNL     1      37.522  54.100  43.218  1.00  0.00     0.029 A 
BRANCH  17  21
HETATM   21  O   UNL     1      38.324  52.622  46.995  1.00  0.00    -0.361 OA
HETATM   22  H   UNL     1      37.527  52.162  47.304  1.00  0.00     0.217 HD
ENDBRANCH  17  21
ENDBRANCH  12  15
ENDBRANCH   1  11
BRANCH   8  23
HETATM   23  C   UNL     1      30.463  52.857  41.921  1.00  0.00     0.409 C 
HETATM   24  F   UNL     1      31.112  53.915  41.383  1.00  0.00    -0.169 F 
HETATM   25  F   UNL     1      29.134  53.110  41.786  1.00  0.00    -0.169 F 
HETATM   26  F   UNL     1      30.708  52.844  43.248  1.00  0.00    -0.169 F 
ENDBRANCH   8  23
BRANCH   6  27
HETATM   27  C   UNL     1      30.084  49.001  39.325  1.00  0.00    -0.035 A 
HETATM   28  C   UNL     1      30.835  47.816  39.228  1.00  0.00     0.012 A 
HETATM   29  C   UNL     1      30.271  46.581  39.560  1.00  0.00     0.043 A 
HETATM   30  C   UNL     1      28.955  46.521  39.994  1.00  0.00     0.116 A 
HETATM   31  F   UNL     1      28.413  45.336  40.304  1.00  0.00    -0.206 F 
HETATM   32  C   UNL     1      28.191  47.674  40.111  1.00  0.00     0.043 A 
HETATM   33  C   UNL     1      28.753  48.910  39.781  1.00  0.00     0.012 A 
ENDBRANCH   6  27
TORSDOF 5
ENDMDL
