MODEL 1
REMARK VINA RESULT:      -8.8      0.000      0.000
REMARK  7 active torsions:
REMARK  status: ('A' for Active; 'I' for Inactive)
REMARK    1  A    between atoms: C_2  and  C_3 
REMARK    2  A    between atoms: C_2  and  C_20 
REMARK    3  A    between atoms: C_3  and  C_4 
REMARK       I    between atoms: C_4  and  N_5 
REMARK    4  A    between atoms: N_5  and  C_6 
REMARK    5  A    between atoms: C_13  and  C_14 
REMARK       I    between atoms: C_14  and  N_15 
REMARK    6  A    between atoms: C_20  and  C_21 
REMARK    7  A    between atoms: C_22  and  O_23 
ROOT
HETATM    1  C   UNL     1      27.747  41.404  51.085  1.00  0.00     0.222 C 
HETATM    2  N   UNL     1      26.974  42.136  50.230  1.00  0.00    -0.327 N 
HETATM    3  O   UNL     1      28.351  40.435  50.611  1.00  0.00    -0.273 OA
HETATM    4  H   UNL     1      26.883  41.658  49.341  1.00  0.00     0.169 HD
ENDROOT
BRANCH   2   5
HETATM    5  C   UNL     1      26.292  43.358  50.355  1.00  0.00     0.035 A 
HETATM    6  C   UNL     1      26.782  44.580  49.886  1.00  0.00     0.046 A 
HETATM    7  C   UNL     1      26.040  45.761  50.101  1.00  0.00     0.030 A 
HETATM    8  C   UNL     1      24.802  45.674  50.721  1.00  0.00     0.063 A 
HETATM    9  C   UNL     1      26.225  47.151  49.837  1.00  0.00     0.156 A 
HETATM   10  N   UNL     1      24.336  46.957  50.785  1.00  0.00    -0.277 N 
HETATM   11  C   UNL     1      24.248  44.462  51.140  1.00  0.00     0.034 A 
HETATM   12  H   UNL     1      23.455  47.272  51.175  1.00  0.00     0.189 HD
HETATM   13  N   UNL     1      25.168  47.877  50.268  1.00  0.00    -0.168 NA
HETATM   14  C   UNL     1      25.018  43.309  50.938  1.00  0.00     0.032 A 
BRANCH   9  15
HETATM   15  C   UNL     1      27.394  47.788  49.213  1.00  0.00     0.270 C 
HETATM   16  N   UNL     1      27.361  49.155  49.228  1.00  0.00    -0.365 N 
HETATM   17  H   UNL     1      26.575  49.617  49.671  1.00  0.00     0.159 HD
HETATM   18  H   UNL     1      28.135  49.680  48.853  1.00  0.00     0.159 HD
HETATM   19  O   UNL     1      28.338  47.177  48.724  1.00  0.00    -0.266 OA
ENDBRANCH   9  15
ENDBRANCH   2   5
BRANCH   1  20
HETATM   20  C   UNL     1      27.754  41.664  52.579  1.00  0.00     0.107 C 
BRANCH  20  21
HETATM   21  C   UNL     1      28.452  42.967  53.020  1.00  0.00    -0.006 C 
HETATM   22  C   UNL     1      29.981  42.904  52.928  1.00  0.00     0.011 C 
BRANCH  21  23
HETATM   23  C   UNL     1      28.019  43.429  54.432  1.00  0.00     0.046 C 
BRANCH  23  24
HETATM   24  C   UNL     1      27.640  44.900  54.514  1.00  0.00    -0.024 A 
HETATM   25  C   UNL     1      28.502  45.859  55.084  1.00  0.00     0.074 A 
HETATM   26  C   UNL     1      28.089  47.194  55.173  1.00  0.00     0.037 A 
HETATM   27  C   UNL     1      26.840  47.587  54.686  1.00  0.00     0.003 A 
HETATM   28  C   UNL     1      25.999  46.654  54.094  1.00  0.00     0.001 A 
HETATM   29  C   UNL     1      26.400  45.322  54.000  1.00  0.00     0.010 A 
BRANCH  25  30
HETATM   30  O   UNL     1      29.711  45.396  55.533  1.00  0.00    -0.355 OA
HETATM   31  C   UNL     1      30.099  45.734  56.856  1.00  0.00     0.210 C 
ENDBRANCH  25  30
ENDBRANCH  23  24
ENDBRANCH  21  23
ENDBRANCH  20  21
ENDBRANCH   1  20
TORSDOF 7
ENDMDL
MODEL 2
REMARK VINA RESULT:      -8.1     12.165     14.325
REMARK  7 active torsions:
REMARK  status: ('A' for Active; 'I' for Inactive)
REMARK    1  A    between atoms: C_2  and  C_3 
REMARK    2  A    between atoms: C_2  and  C_20 
REMARK    3  A    between atoms: C_3  and  C_4 
REMARK       I    between atoms: C_4  and  N_5 
REMARK    4  A    between atoms: N_5  and  C_6 
REMARK    5  A    between atoms: C_13  and  C_14 
REMARK       I    between atoms: C_14  and  N_15 
REMARK    6  A    between atoms: C_20  and  C_21 
REMARK    7  A    between atoms: C_22  and  O_23 
ROOT
HETATM    1  C   UNL     1      30.695  47.217  39.848  1.00  0.00     0.222 C 
HETATM    2  N   UNL     1      31.492  47.425  40.936  1.00  0.00    -0.327 N 
HETATM    3  O   UNL     1      30.227  46.082  39.700  1.00  0.00    -0.273 OA
HETATM    4  H   UNL     1      31.718  46.544  41.382  1.00  0.00     0.169 HD
ENDROOT
BRANCH   2   5
HETATM    5  C   UNL     1      32.054  48.577  41.512  1.00  0.00     0.035 A 
HETATM    6  C   UNL     1      33.366  49.004  41.290  1.00  0.00     0.046 A 
HETATM    7  C   UNL     1      33.851  50.153  41.953  1.00  0.00     0.030 A 
HETATM    8  C   UNL     1      32.988  50.874  42.766  1.00  0.00     0.063 A 
HETATM    9  C   UNL     1      35.097  50.842  42.030  1.00  0.00     0.156 A 
HETATM   10  N   UNL     1      33.732  51.910  43.257  1.00  0.00    -0.277 N 
HETATM   11  C   UNL     1      31.652  50.518  42.957  1.00  0.00     0.034 A 
HETATM   12  H   UNL     1      33.426  52.643  43.886  1.00  0.00     0.189 HD
HETATM   13  N   UNL     1      35.011  51.922  42.841  1.00  0.00    -0.168 NA
HETATM   14  C   UNL     1      31.204  49.359  42.307  1.00  0.00     0.032 A 
BRANCH   9  15
HETATM   15  C   UNL     1      36.358  50.473  41.371  1.00  0.00     0.270 C 
HETATM   16  N   UNL     1      36.222  50.132  40.054  1.00  0.00    -0.365 N 
HETATM   17  H   UNL     1      35.301  50.177  39.633  1.00  0.00     0.159 HD
HETATM   18  H   UNL     1      37.037  49.897  39.509  1.00  0.00     0.159 HD
HETATM   19  O   UNL     1      37.454  50.474  41.921  1.00  0.00    -0.266 OA
ENDBRANCH   9  15
ENDBRANCH   2   5
BRANCH   1  20
HETATM   20  C   UNL     1      30.505  48.277  38.780  1.00  0.00     0.107 C 
BRANCH  20  21
HETATM   21  C   UNL     1      29.333  49.251  39.015  1.00  0.00    -0.006 C 
HETATM   22  C   UNL     1      27.966  48.662  38.651  1.00  0.00     0.011 C 
BRANCH  21  23
HETATM   23  C   UNL     1      29.536  50.613  38.308  1.00  0.00     0.046 C 
BRANCH  23  24
HETATM   24  C   UNL     1      30.249  51.653  39.158  1.00  0.00    -0.024 A 
HETATM   25  C   UNL     1      29.543  52.526  40.012  1.00  0.00     0.074 A 
HETATM   26  C   UNL     1      30.242  53.493  40.744  1.00  0.00     0.037 A 
HETATM   27  C   UNL     1      31.633  53.590  40.649  1.00  0.00     0.003 A 
HETATM   28  C   UNL     1      32.338  52.714  39.836  1.00  0.00     0.001 A 
HETATM   29  C   UNL     1      31.652  51.746  39.103  1.00  0.00     0.010 A 
BRANCH  25  30
HETATM   30  O   UNL     1      28.183  52.363  40.053  1.00  0.00    -0.355 OA
HETATM   31  C   UNL     1      27.618  51.820  41.237  1.00  0.00     0.210 C 
ENDBRANCH  25  30
ENDBRANCH  23  24
ENDBRANCH  21  23
ENDBRANCH  20  21
ENDBRANCH   1  20
TORSDOF 7
ENDMDL
MODEL 3
REMARK VINA RESULT:      -8.0      1.977      3.334
REMARK  7 active torsions:
REMARK  status: ('A' for Active; 'I' for Inactive)
REMARK    1  A    between atoms: C_2  and  C_3 
REMARK    2  A    between atoms: C_2  and  C_20 
REMARK    3  A    between atoms: C_3  and  C_4 
REMARK       I    between atoms: C_4  and  N_5 
REMARK    4  A    between atoms: N_5  and  C_6 
REMARK    5  A    between atoms: C_13  and  C_14 
REMARK       I    between atoms: C_14  and  N_15 
REMARK    6  A    between atoms: C_20  and  C_21 
REMARK    7  A    between atoms: C_22  and  O_23 
ROOT
HETATM    1  C   UNL     1      28.412  41.712  51.734  1.00  0.00     0.222 C 
HETATM    2  N   UNL     1      27.209  42.102  51.218  1.00  0.00    -0.327 N 
HETATM    3  O   UNL     1      28.671  40.504  51.712  1.00  0.00    -0.273 OA
HETATM    4  H   UNL     1      26.625  41.293  51.038  1.00  0.00     0.169 HD
ENDROOT
BRANCH   2   5
HETATM    5  C   UNL     1      26.646  43.355  50.927  1.00  0.00     0.035 A 
HETATM    6  C   UNL     1      26.601  44.423  51.828  1.00  0.00     0.046 A 
HETATM    7  C   UNL     1      25.972  45.630  51.454  1.00  0.00     0.030 A 
HETATM    8  C   UNL     1      25.465  45.753  50.168  1.00  0.00     0.063 A 
HETATM    9  C   UNL     1      25.682  46.874  52.089  1.00  0.00     0.156 A 
HETATM   10  N   UNL     1      24.929  47.009  50.108  1.00  0.00    -0.277 N 
HETATM   11  C   UNL     1      25.553  44.734  49.218  1.00  0.00     0.034 A 
HETATM   12  H   UNL     1      24.472  47.445  49.316  1.00  0.00     0.189 HD
HETATM   13  N   UNL     1      25.035  47.714  51.248  1.00  0.00    -0.168 NA
HETATM   14  C   UNL     1      26.160  43.538  49.625  1.00  0.00     0.032 A 
BRANCH   9  15
HETATM   15  C   UNL     1      25.985  47.256  53.476  1.00  0.00     0.270 C 
HETATM   16  N   UNL     1      27.091  46.642  53.995  1.00  0.00    -0.365 N 
HETATM   17  H   UNL     1      27.617  46.008  53.405  1.00  0.00     0.159 HD
HETATM   18  H   UNL     1      27.397  46.866  54.929  1.00  0.00     0.159 HD
HETATM   19  O   UNL     1      25.332  48.060  54.132  1.00  0.00    -0.266 OA
ENDBRANCH   9  15
ENDBRANCH   2   5
BRANCH   1  20
HETATM   20  C   UNL     1      29.331  42.689  52.442  1.00  0.00     0.107 C 
BRANCH  20  21
HETATM   21  C   UNL     1      29.095  42.839  53.959  1.00  0.00    -0.006 C 
HETATM   22  C   UNL     1      27.702  42.387  54.409  1.00  0.00     0.011 C 
BRANCH  21  23
HETATM   23  C   UNL     1      29.385  44.271  54.470  1.00  0.00     0.046 C 
BRANCH  23  24
HETATM   24  C   UNL     1      30.179  44.317  55.768  1.00  0.00    -0.024 A 
HETATM   25  C   UNL     1      29.993  45.343  56.716  1.00  0.00     0.074 A 
HETATM   26  C   UNL     1      30.777  45.363  57.876  1.00  0.00     0.037 A 
HETATM   27  C   UNL     1      31.728  44.366  58.110  1.00  0.00     0.003 A 
HETATM   28  C   UNL     1      31.894  43.335  57.196  1.00  0.00     0.001 A 
HETATM   29  C   UNL     1      31.119  43.304  56.038  1.00  0.00     0.010 A 
BRANCH  25  30
HETATM   30  O   UNL     1      29.038  46.278  56.417  1.00  0.00    -0.355 OA
HETATM   31  C   UNL     1      28.111  46.626  57.435  1.00  0.00     0.210 C 
ENDBRANCH  25  30
ENDBRANCH  23  24
ENDBRANCH  21  23
ENDBRANCH  20  21
ENDBRANCH   1  20
TORSDOF 7
ENDMDL
MODEL 4
REMARK VINA RESULT:      -7.9      2.658      4.131
REMARK  7 active torsions:
REMARK  status: ('A' for Active; 'I' for Inactive)
REMARK    1  A    between atoms: C_2  and  C_3 
REMARK    2  A    between atoms: C_2  and  C_20 
REMARK    3  A    between atoms: C_3  and  C_4 
REMARK       I    between atoms: C_4  and  N_5 
REMARK    4  A    between atoms: N_5  and  C_6 
REMARK    5  A    between atoms: C_13  and  C_14 
REMARK       I    between atoms: C_14  and  N_15 
REMARK    6  A    between atoms: C_20  and  C_21 
REMARK    7  A    between atoms: C_22  and  O_23 
ROOT
HETATM    1  C   UNL     1      24.946  44.956  51.884  1.00  0.00     0.222 C 
HETATM    2  N   UNL     1      24.508  45.731  50.850  1.00  0.00    -0.327 N 
HETATM    3  O   UNL     1      24.275  43.956  52.164  1.00  0.00    -0.273 OA
HETATM    4  H   UNL     1      23.578  45.447  50.566  1.00  0.00     0.169 HD
ENDROOT
BRANCH   2   5
HETATM    5  C   UNL     1      25.069  46.815  50.154  1.00  0.00     0.035 A 
HETATM    6  C   UNL     1      24.326  47.867  49.610  1.00  0.00     0.046 A 
HETATM    7  C   UNL     1      24.980  48.888  48.888  1.00  0.00     0.030 A 
HETATM    8  C   UNL     1      26.364  48.859  48.787  1.00  0.00     0.063 A 
HETATM    9  C   UNL     1      24.580  50.049  48.162  1.00  0.00     0.156 A 
HETATM   10  N   UNL     1      26.697  49.957  48.045  1.00  0.00    -0.277 N 
HETATM   11  C   UNL     1      27.146  47.863  49.375  1.00  0.00     0.034 A 
HETATM   12  H   UNL     1      27.627  50.256  47.772  1.00  0.00     0.189 HD
HETATM   13  N   UNL     1      25.648  50.696  47.644  1.00  0.00    -0.168 NA
HETATM   14  C   UNL     1      26.468  46.847  50.064  1.00  0.00     0.032 A 
BRANCH   9  15
HETATM   15  C   UNL     1      23.207  50.525  47.937  1.00  0.00     0.270 C 
HETATM   16  N   UNL     1      22.659  51.176  49.007  1.00  0.00    -0.365 N 
HETATM   17  H   UNL     1      23.222  51.300  49.841  1.00  0.00     0.159 HD
HETATM   18  H   UNL     1      21.733  51.569  48.936  1.00  0.00     0.159 HD
HETATM   19  O   UNL     1      22.586  50.380  46.890  1.00  0.00    -0.266 OA
ENDBRANCH   9  15
ENDBRANCH   2   5
BRANCH   1  20
HETATM   20  C   UNL     1      26.116  45.372  52.756  1.00  0.00     0.107 C 
BRANCH  20  21
HETATM   21  C   UNL     1      27.360  44.463  52.671  1.00  0.00    -0.006 C 
HETATM   22  C   UNL     1      27.409  43.610  51.400  1.00  0.00     0.011 C 
BRANCH  21  23
HETATM   23  C   UNL     1      27.533  43.570  53.923  1.00  0.00     0.046 C 
BRANCH  23  24
HETATM   24  C   UNL     1      28.757  43.908  54.762  1.00  0.00    -0.024 A 
HETATM   25  C   UNL     1      28.825  45.083  55.537  1.00  0.00     0.074 A 
HETATM   26  C   UNL     1      29.990  45.369  56.259  1.00  0.00     0.037 A 
HETATM   27  C   UNL     1      31.077  44.492  56.233  1.00  0.00     0.003 A 
HETATM   28  C   UNL     1      31.005  43.316  55.498  1.00  0.00     0.001 A 
HETATM   29  C   UNL     1      29.850  43.021  54.776  1.00  0.00     0.010 A 
BRANCH  25  30
HETATM   30  O   UNL     1      27.717  45.888  55.514  1.00  0.00    -0.355 OA
HETATM   31  C   UNL     1      27.920  47.290  55.414  1.00  0.00     0.210 C 
ENDBRANCH  25  30
ENDBRANCH  23  24
ENDBRANCH  21  23
ENDBRANCH  20  21
ENDBRANCH   1  20
TORSDOF 7
ENDMDL
MODEL 5
REMARK VINA RESULT:      -7.8      2.779      4.172
REMARK  7 active torsions:
REMARK  status: ('A' for Active; 'I' for Inactive)
REMARK    1  A    between atoms: C_2  and  C_3 
REMARK    2  A    between atoms: C_2  and  C_20 
REMARK    3  A    between atoms: C_3  and  C_4 
REMARK       I    between atoms: C_4  and  N_5 
REMARK    4  A    between atoms: N_5  and  C_6 
REMARK    5  A    between atoms: C_13  and  C_14 
REMARK       I    between atoms: C_14  and  N_15 
REMARK    6  A    between atoms: C_20  and  C_21 
REMARK    7  A    between atoms: C_22  and  O_23 
ROOT
HETATM    1  C   UNL     1      26.297  43.242  50.011  1.00  0.00     0.222 C 
HETATM    2  N   UNL     1      25.987  44.256  49.150  1.00  0.00    -0.327 N 
HETATM    3  O   UNL     1      27.169  42.444  49.652  1.00  0.00    -0.273 OA
HETATM    4  H   UNL     1      26.420  44.096  48.248  1.00  0.00     0.169 HD
ENDROOT
BRANCH   2   5
HETATM    5  C   UNL     1      25.196  45.411  49.267  1.00  0.00     0.035 A 
HETATM    6  C   UNL     1      23.828  45.457  48.982  1.00  0.00     0.046 A 
HETATM    7  C   UNL     1      23.132  46.680  49.088  1.00  0.00     0.030 A 
HETATM    8  C   UNL     1      23.810  47.804  49.536  1.00  0.00     0.063 A 
HETATM    9  C   UNL     1      21.800  47.127  48.835  1.00  0.00     0.156 A 
HETATM   10  N   UNL     1      22.887  48.812  49.532  1.00  0.00    -0.277 N 
HETATM   11  C   UNL     1      25.159  47.781  49.897  1.00  0.00     0.034 A 
HETATM   12  H   UNL     1      23.030  49.778  49.803  1.00  0.00     0.189 HD
HETATM   13  N   UNL     1      21.665  48.444  49.110  1.00  0.00    -0.168 NA
HETATM   14  C   UNL     1      25.833  46.560  49.757  1.00  0.00     0.032 A 
BRANCH   9  15
HETATM   15  C   UNL     1      20.680  46.329  48.317  1.00  0.00     0.270 C 
HETATM   16  N   UNL     1      20.163  45.439  49.217  1.00  0.00    -0.365 N 
HETATM   17  H   UNL     1      20.558  45.407  50.150  1.00  0.00     0.159 HD
HETATM   18  H   UNL     1      19.370  44.871  48.963  1.00  0.00     0.159 HD
HETATM   19  O   UNL     1      20.217  46.436  47.186  1.00  0.00    -0.266 OA
ENDBRANCH   9  15
ENDBRANCH   2   5
BRANCH   1  20
HETATM   20  C   UNL     1      25.509  43.007  51.286  1.00  0.00     0.107 C 
BRANCH  20  21
HETATM   21  C   UNL     1      25.959  43.838  52.504  1.00  0.00    -0.006 C 
HETATM   22  C   UNL     1      24.898  44.828  52.997  1.00  0.00     0.011 C 
BRANCH  21  23
HETATM   23  C   UNL     1      27.303  44.569  52.266  1.00  0.00     0.046 C 
BRANCH  23  24
HETATM   24  C   UNL     1      28.442  44.073  53.145  1.00  0.00    -0.024 A 
HETATM   25  C   UNL     1      28.675  44.603  54.429  1.00  0.00     0.074 A 
HETATM   26  C   UNL     1      29.762  44.141  55.182  1.00  0.00     0.037 A 
HETATM   27  C   UNL     1      30.606  43.148  54.679  1.00  0.00     0.003 A 
HETATM   28  C   UNL     1      30.364  42.598  53.427  1.00  0.00     0.001 A 
HETATM   29  C   UNL     1      29.284  43.049  52.669  1.00  0.00     0.010 A 
BRANCH  25  30
HETATM   30  O   UNL     1      27.801  45.569  54.853  1.00  0.00    -0.355 OA
HETATM   31  C   UNL     1      28.317  46.870  55.091  1.00  0.00     0.210 C 
ENDBRANCH  25  30
ENDBRANCH  23  24
ENDBRANCH  21  23
ENDBRANCH  20  21
ENDBRANCH   1  20
TORSDOF 7
ENDMDL
MODEL 6
REMARK VINA RESULT:      -7.8      1.820      2.587
REMARK  7 active torsions:
REMARK  status: ('A' for Active; 'I' for Inactive)
REMARK    1  A    between atoms: C_2  and  C_3 
REMARK    2  A    between atoms: C_2  and  C_20 
REMARK    3  A    between atoms: C_3  and  C_4 
REMARK       I    between atoms: C_4  and  N_5 
REMARK    4  A    between atoms: N_5  and  C_6 
REMARK    5  A    between atoms: C_13  and  C_14 
REMARK       I    between atoms: C_14  and  N_15 
REMARK    6  A    between atoms: C_20  and  C_21 
REMARK    7  A    between atoms: C_22  and  O_23 
ROOT
HETATM    1  C   UNL     1      28.275  41.213  52.781  1.00  0.00     0.222 C 
HETATM    2  N   UNL     1      27.051  40.957  52.233  1.00  0.00    -0.327 N 
HETATM    3  O   UNL     1      28.650  40.473  53.697  1.00  0.00    -0.273 OA
HETATM    4  H   UNL     1      26.551  40.276  52.792  1.00  0.00     0.169 HD
ENDROOT
BRANCH   2   5
HETATM    5  C   UNL     1      26.377  41.457  51.106  1.00  0.00     0.035 A 
HETATM    6  C   UNL     1      26.141  42.815  50.872  1.00  0.00     0.046 A 
HETATM    7  C   UNL     1      25.413  43.212  49.729  1.00  0.00     0.030 A 
HETATM    8  C   UNL     1      25.000  42.244  48.825  1.00  0.00     0.063 A 
HETATM    9  C   UNL     1      24.936  44.446  49.197  1.00  0.00     0.156 A 
HETATM   10  N   UNL     1      24.333  42.924  47.844  1.00  0.00    -0.277 N 
HETATM   11  C   UNL     1      25.277  40.886  48.990  1.00  0.00     0.034 A 
HETATM   12  H   UNL     1      23.895  42.537  47.017  1.00  0.00     0.189 HD
HETATM   13  N   UNL     1      24.268  44.254  48.036  1.00  0.00    -0.168 NA
HETATM   14  C   UNL     1      25.978  40.516  50.146  1.00  0.00     0.032 A 
BRANCH   9  15
HETATM   15  C   UNL     1      25.083  45.785  49.787  1.00  0.00     0.270 C 
HETATM   16  N   UNL     1      24.014  46.185  50.539  1.00  0.00    -0.365 N 
HETATM   17  H   UNL     1      23.233  45.548  50.651  1.00  0.00     0.159 HD
HETATM   18  H   UNL     1      24.037  47.075  51.012  1.00  0.00     0.159 HD
HETATM   19  O   UNL     1      26.070  46.499  49.648  1.00  0.00    -0.266 OA
ENDBRANCH   9  15
ENDBRANCH   2   5
BRANCH   1  20
HETATM   20  C   UNL     1      29.083  42.438  52.396  1.00  0.00     0.107 C 
BRANCH  20  21
HETATM   21  C   UNL     1      29.269  43.486  53.513  1.00  0.00    -0.006 C 
HETATM   22  C   UNL     1      30.461  43.197  54.431  1.00  0.00     0.011 C 
BRANCH  21  23
HETATM   23  C   UNL     1      27.986  43.699  54.352  1.00  0.00     0.046 C 
BRANCH  23  24
HETATM   24  C   UNL     1      27.495  45.139  54.379  1.00  0.00    -0.024 A 
HETATM   25  C   UNL     1      27.911  46.047  55.373  1.00  0.00     0.074 A 
HETATM   26  C   UNL     1      27.399  47.350  55.378  1.00  0.00     0.037 A 
HETATM   27  C   UNL     1      26.493  47.763  54.397  1.00  0.00     0.003 A 
HETATM   28  C   UNL     1      26.104  46.884  53.396  1.00  0.00     0.001 A 
HETATM   29  C   UNL     1      26.608  45.584  53.381  1.00  0.00     0.010 A 
BRANCH  25  30
HETATM   30  O   UNL     1      28.804  45.569  56.295  1.00  0.00    -0.355 OA
HETATM   31  C   UNL     1      28.811  46.167  57.582  1.00  0.00     0.210 C 
ENDBRANCH  25  30
ENDBRANCH  23  24
ENDBRANCH  21  23
ENDBRANCH  20  21
ENDBRANCH   1  20
TORSDOF 7
ENDMDL
MODEL 7
REMARK VINA RESULT:      -7.7     12.003     14.292
REMARK  7 active torsions:
REMARK  status: ('A' for Active; 'I' for Inactive)
REMARK    1  A    between atoms: C_2  and  C_3 
REMARK    2  A    between atoms: C_2  and  C_20 
REMARK    3  A    between atoms: C_3  and  C_4 
REMARK       I    between atoms: C_4  and  N_5 
REMARK    4  A    between atoms: N_5  and  C_6 
REMARK    5  A    between atoms: C_13  and  C_14 
REMARK       I    between atoms: C_14  and  N_15 
REMARK    6  A    between atoms: C_20  and  C_21 
REMARK    7  A    between atoms: C_22  and  O_23 
ROOT
HETATM    1  C   UNL     1      33.865  53.164  39.531  1.00  0.00     0.222 C 
HETATM    2  N   UNL     1      32.572  53.483  39.831  1.00  0.00    -0.327 N 
HETATM    3  O   UNL     1      34.640  54.099  39.302  1.00  0.00    -0.273 OA
HETATM    4  H   UNL     1      32.402  54.466  39.654  1.00  0.00     0.169 HD
ENDROOT
BRANCH   2   5
HETATM    5  C   UNL     1      31.477  52.734  40.293  1.00  0.00     0.035 A 
HETATM    6  C   UNL     1      31.087  51.504  39.757  1.00  0.00     0.046 A 
HETATM    7  C   UNL     1      29.943  50.850  40.263  1.00  0.00     0.030 A 
HETATM    8  C   UNL     1      29.263  51.416  41.332  1.00  0.00     0.063 A 
HETATM    9  C   UNL     1      29.220  49.660  39.952  1.00  0.00     0.156 A 
HETATM   10  N   UNL     1      28.223  50.568  41.592  1.00  0.00    -0.277 N 
HETATM   11  C   UNL     1      29.664  52.608  41.940  1.00  0.00     0.034 A 
HETATM   12  H   UNL     1      27.516  50.665  42.311  1.00  0.00     0.189 HD
HETATM   13  N   UNL     1      28.159  49.501  40.777  1.00  0.00    -0.168 NA
HETATM   14  C   UNL     1      30.787  53.249  41.400  1.00  0.00     0.032 A 
BRANCH   9  15
HETATM   15  C   UNL     1      29.509  48.702  38.875  1.00  0.00     0.270 C 
HETATM   16  N   UNL     1      28.403  48.076  38.372  1.00  0.00    -0.365 N 
HETATM   17  H   UNL     1      27.493  48.323  38.745  1.00  0.00     0.159 HD
HETATM   18  H   UNL     1      28.498  47.426  37.607  1.00  0.00     0.159 HD
HETATM   19  O   UNL     1      30.630  48.470  38.436  1.00  0.00    -0.266 OA
ENDBRANCH   9  15
ENDBRANCH   2   5
BRANCH   1  20
HETATM   20  C   UNL     1      34.309  51.726  39.335  1.00  0.00     0.107 C 
BRANCH  20  21
HETATM   21  C   UNL     1      35.640  51.346  40.015  1.00  0.00    -0.006 C 
HETATM   22  C   UNL     1      36.736  50.934  39.027  1.00  0.00     0.011 C 
BRANCH  21  23
HETATM   23  C   UNL     1      35.466  50.262  41.105  1.00  0.00     0.046 C 
BRANCH  23  24
HETATM   24  C   UNL     1      34.401  50.590  42.142  1.00  0.00    -0.024 A 
HETATM   25  C   UNL     1      33.164  49.915  42.176  1.00  0.00     0.074 A 
HETATM   26  C   UNL     1      32.202  50.282  43.125  1.00  0.00     0.037 A 
HETATM   27  C   UNL     1      32.463  51.298  44.048  1.00  0.00     0.003 A 
HETATM   28  C   UNL     1      33.691  51.945  44.041  1.00  0.00     0.001 A 
HETATM   29  C   UNL     1      34.657  51.587  43.101  1.00  0.00     0.010 A 
BRANCH  25  30
HETATM   30  O   UNL     1      32.987  48.928  41.242  1.00  0.00    -0.355 OA
HETATM   31  C   UNL     1      32.115  47.857  41.570  1.00  0.00     0.210 C 
ENDBRANCH  25  30
ENDBRANCH  23  24
ENDBRANCH  21  23
ENDBRANCH  20  21
ENDBRANCH   1  20
TORSDOF 7
ENDMDL
MODEL 8
REMARK VINA RESULT:      -7.7     11.521     13.800
REMARK  7 active torsions:
REMARK  status: ('A' for Active; 'I' for Inactive)
REMARK    1  A    between atoms: C_2  and  C_3 
REMARK    2  A    between atoms: C_2  and  C_20 
REMARK    3  A    between atoms: C_3  and  C_4 
REMARK       I    between atoms: C_4  and  N_5 
REMARK    4  A    between atoms: N_5  and  C_6 
REMARK    5  A    between atoms: C_13  and  C_14 
REMARK       I    between atoms: C_14  and  N_15 
REMARK    6  A    between atoms: C_20  and  C_21 
REMARK    7  A    between atoms: C_22  and  O_23 
ROOT
HETATM    1  C   UNL     1      27.308  48.295  40.892  1.00  0.00     0.222 C 
HETATM    2  N   UNL     1      28.395  48.123  41.700  1.00  0.00    -0.327 N 
HETATM    3  O   UNL     1      26.193  48.157  41.408  1.00  0.00    -0.273 OA
HETATM    4  H   UNL     1      28.113  47.735  42.593  1.00  0.00     0.169 HD
ENDROOT
BRANCH   2   5
HETATM    5  C   UNL     1      29.770  48.350  41.525  1.00  0.00     0.035 A 
HETATM    6  C   UNL     1      30.526  49.228  42.308  1.00  0.00     0.046 A 
HETATM    7  C   UNL     1      31.895  49.419  42.023  1.00  0.00     0.030 A 
HETATM    8  C   UNL     1      32.479  48.680  41.005  1.00  0.00     0.063 A 
HETATM    9  C   UNL     1      32.943  50.241  42.534  1.00  0.00     0.156 A 
HETATM   10  N   UNL     1      33.786  49.079  40.970  1.00  0.00    -0.277 N 
HETATM   11  C   UNL     1      31.774  47.743  40.247  1.00  0.00     0.034 A 
HETATM   12  H   UNL     1      34.514  48.746  40.348  1.00  0.00     0.189 HD
HETATM   13  N   UNL     1      34.103  50.023  41.873  1.00  0.00    -0.168 NA
HETATM   14  C   UNL     1      30.410  47.592  40.535  1.00  0.00     0.032 A 
BRANCH   9  15
HETATM   15  C   UNL     1      32.846  51.236  43.612  1.00  0.00     0.270 C 
HETATM   16  N   UNL     1      33.939  52.051  43.721  1.00  0.00    -0.365 N 
HETATM   17  H   UNL     1      34.701  51.932  43.063  1.00  0.00     0.159 HD
HETATM   18  H   UNL     1      33.950  52.786  44.410  1.00  0.00     0.159 HD
HETATM   19  O   UNL     1      31.880  51.359  44.357  1.00  0.00    -0.266 OA
ENDBRANCH   9  15
ENDBRANCH   2   5
BRANCH   1  20
HETATM   20  C   UNL     1      27.448  48.497  39.395  1.00  0.00     0.107 C 
BRANCH  20  21
HETATM   21  C   UNL     1      27.218  49.938  38.898  1.00  0.00    -0.006 C 
HETATM   22  C   UNL     1      26.144  50.047  37.810  1.00  0.00     0.011 C 
BRANCH  21  23
HETATM   23  C   UNL     1      28.524  50.626  38.432  1.00  0.00     0.046 C 
BRANCH  23  24
HETATM   24  C   UNL     1      29.190  51.481  39.500  1.00  0.00    -0.024 A 
HETATM   25  C   UNL     1      30.520  51.929  39.372  1.00  0.00     0.074 A 
HETATM   26  C   UNL     1      31.099  52.680  40.401  1.00  0.00     0.037 A 
HETATM   27  C   UNL     1      30.367  53.004  41.546  1.00  0.00     0.003 A 
HETATM   28  C   UNL     1      29.046  52.594  41.666  1.00  0.00     0.001 A 
HETATM   29  C   UNL     1      28.458  51.847  40.646  1.00  0.00     0.010 A 
BRANCH  25  30
HETATM   30  O   UNL     1      31.169  51.575  38.218  1.00  0.00    -0.355 OA
HETATM   31  C   UNL     1      32.553  51.273  38.305  1.00  0.00     0.210 C 
ENDBRANCH  25  30
ENDBRANCH  23  24
ENDBRANCH  21  23
ENDBRANCH  20  21
ENDBRANCH   1  20
TORSDOF 7
ENDMDL
MODEL 9
REMARK VINA RESULT:      -7.5      3.456      6.621
REMARK  7 active torsions:
REMARK  status: ('A' for Active; 'I' for Inactive)
REMARK    1  A    between atoms: C_2  and  C_3 
REMARK    2  A    between atoms: C_2  and  C_20 
REMARK    3  A    between atoms: C_3  and  C_4 
REMARK       I    between atoms: C_4  and  N_5 
REMARK    4  A    between atoms: N_5  and  C_6 
REMARK    5  A    between atoms: C_13  and  C_14 
REMARK       I    between atoms: C_14  and  N_15 
REMARK    6  A    between atoms: C_20  and  C_21 
REMARK    7  A    between atoms: C_22  and  O_23 
ROOT
HETATM    1  C   UNL     1      24.995  43.533  51.414  1.00  0.00     0.222 C 
HETATM    2  N   UNL     1      25.211  43.698  52.752  1.00  0.00    -0.327 N 
HETATM    3  O   UNL     1      23.972  42.928  51.078  1.00  0.00    -0.273 OA
HETATM    4  H   UNL     1      24.559  43.135  53.286  1.00  0.00     0.169 HD
ENDROOT
BRANCH   2   5
HETATM    5  C   UNL     1      26.142  44.445  53.493  1.00  0.00     0.035 A 
HETATM    6  C   UNL     1      27.417  43.987  53.840  1.00  0.00     0.046 A 
HETATM    7  C   UNL     1      28.262  44.799  54.627  1.00  0.00     0.030 A 
HETATM    8  C   UNL     1      27.831  46.068  54.988  1.00  0.00     0.063 A 
HETATM    9  C   UNL     1      29.556  44.666  55.213  1.00  0.00     0.156 A 
HETATM   10  N   UNL     1      28.848  46.599  55.731  1.00  0.00    -0.277 N 
HETATM   11  C   UNL     1      26.594  46.586  54.602  1.00  0.00     0.034 A 
HETATM   12  H   UNL     1      28.881  47.517  56.160  1.00  0.00     0.189 HD
HETATM   13  N   UNL     1      29.903  45.782  55.894  1.00  0.00    -0.168 NA
HETATM   14  C   UNL     1      25.764  45.749  53.843  1.00  0.00     0.032 A 
BRANCH   9  15
HETATM   15  C   UNL     1      30.441  43.493  55.154  1.00  0.00     0.270 C 
HETATM   16  N   UNL     1      31.036  43.182  56.345  1.00  0.00    -0.365 N 
HETATM   17  H   UNL     1      30.817  43.745  57.160  1.00  0.00     0.159 HD
HETATM   18  H   UNL     1      31.634  42.373  56.411  1.00  0.00     0.159 HD
HETATM   19  O   UNL     1      30.639  42.824  54.146  1.00  0.00    -0.266 OA
ENDBRANCH   9  15
ENDBRANCH   2   5
BRANCH   1  20
HETATM   20  C   UNL     1      26.030  43.937  50.382  1.00  0.00     0.107 C 
BRANCH  20  21
HETATM   21  C   UNL     1      25.800  45.309  49.715  1.00  0.00    -0.006 C 
HETATM   22  C   UNL     1      27.059  46.180  49.655  1.00  0.00     0.011 C 
BRANCH  21  23
HETATM   23  C   UNL     1      24.633  46.097  50.358  1.00  0.00     0.046 C 
BRANCH  23  24
HETATM   24  C   UNL     1      23.596  46.592  49.361  1.00  0.00    -0.024 A 
HETATM   25  C   UNL     1      23.492  47.954  49.011  1.00  0.00     0.074 A 
HETATM   26  C   UNL     1      22.495  48.365  48.119  1.00  0.00     0.037 A 
HETATM   27  C   UNL     1      21.613  47.436  47.559  1.00  0.00     0.003 A 
HETATM   28  C   UNL     1      21.730  46.089  47.874  1.00  0.00     0.001 A 
HETATM   29  C   UNL     1      22.720  45.668  48.760  1.00  0.00     0.010 A 
BRANCH  25  30
HETATM   30  O   UNL     1      24.396  48.800  49.597  1.00  0.00    -0.355 OA
HETATM   31  C   UNL     1      25.345  49.439  48.757  1.00  0.00     0.210 C 
ENDBRANCH  25  30
ENDBRANCH  23  24
ENDBRANCH  21  23
ENDBRANCH  20  21
ENDBRANCH   1  20
TORSDOF 7
ENDMDL
MODEL 10
REMARK VINA RESULT:      -7.4      3.342      6.277
REMARK  7 active torsions:
REMARK  status: ('A' for Active; 'I' for Inactive)
REMARK    1  A    between atoms: C_2  and  C_3 
REMARK    2  A    between atoms: C_2  and  C_20 
REMARK    3  A    between atoms: C_3  and  C_4 
REMARK       I    between atoms: C_4  and  N_5 
REMARK    4  A    between atoms: N_5  and  C_6 
REMARK    5  A    between atoms: C_13  and  C_14 
REMARK       I    between atoms: C_14  and  N_15 
REMARK    6  A    between atoms: C_20  and  C_21 
REMARK    7  A    between atoms: C_22  and  O_23 
ROOT
HETATM    1  C   UNL     1      24.749  43.400  51.205  1.00  0.00     0.222 C 
HETATM    2  N   UNL     1      25.866  43.076  51.921  1.00  0.00    -0.327 N 
HETATM    3  O   UNL     1      24.246  42.511  50.509  1.00  0.00    -0.273 OA
HETATM    4  H   UNL     1      26.217  42.169  51.634  1.00  0.00     0.169 HD
ENDROOT
BRANCH   2   5
HETATM    5  C   UNL     1      26.599  43.743  52.916  1.00  0.00     0.035 A 
HETATM    6  C   UNL     1      26.267  45.003  53.423  1.00  0.00     0.046 A 
HETATM    7  C   UNL     1      27.096  45.609  54.392  1.00  0.00     0.030 A 
HETATM    8  C   UNL     1      28.195  44.909  54.869  1.00  0.00     0.063 A 
HETATM    9  C   UNL     1      27.125  46.859  55.079  1.00  0.00     0.156 A 
HETATM   10  N   UNL     1      28.788  45.740  55.778  1.00  0.00    -0.277 N 
HETATM   11  C   UNL     1      28.519  43.621  54.439  1.00  0.00     0.034 A 
HETATM   12  H   UNL     1      29.619  45.556  56.328  1.00  0.00     0.189 HD
HETATM   13  N   UNL     1      28.176  46.927  55.928  1.00  0.00    -0.168 NA
HETATM   14  C   UNL     1      27.694  43.054  53.457  1.00  0.00     0.032 A 
BRANCH   9  15
HETATM   15  C   UNL     1      26.191  47.982  54.918  1.00  0.00     0.270 C 
HETATM   16  N   UNL     1      26.299  48.943  55.884  1.00  0.00    -0.365 N 
HETATM   17  H   UNL     1      27.004  48.830  56.604  1.00  0.00     0.159 HD
HETATM   18  H   UNL     1      25.723  49.769  55.839  1.00  0.00     0.159 HD
HETATM   19  O   UNL     1      25.382  48.085  54.002  1.00  0.00    -0.266 OA
ENDBRANCH   9  15
ENDBRANCH   2   5
BRANCH   1  20
HETATM   20  C   UNL     1      24.227  44.823  51.139  1.00  0.00     0.107 C 
BRANCH  20  21
HETATM   21  C   UNL     1      24.788  45.681  49.987  1.00  0.00    -0.006 C 
HETATM   22  C   UNL     1      26.186  45.251  49.529  1.00  0.00     0.011 C 
BRANCH  21  23
HETATM   23  C   UNL     1      24.770  47.195  50.305  1.00  0.00     0.046 C 
BRANCH  23  24
HETATM   24  C   UNL     1      23.892  48.015  49.372  1.00  0.00    -0.024 A 
HETATM   25  C   UNL     1      24.309  49.260  48.860  1.00  0.00     0.074 A 
HETATM   26  C   UNL     1      23.447  49.994  48.037  1.00  0.00     0.037 A 
HETATM   27  C   UNL     1      22.185  49.496  47.704  1.00  0.00     0.003 A 
HETATM   28  C   UNL     1      21.779  48.256  48.178  1.00  0.00     0.001 A 
HETATM   29  C   UNL     1      22.630  47.515  48.997  1.00  0.00     0.010 A 
BRANCH  25  30
HETATM   30  O   UNL     1      25.562  49.676  49.228  1.00  0.00    -0.355 OA
HETATM   31  C   UNL     1      26.533  49.834  48.205  1.00  0.00     0.210 C 
ENDBRANCH  25  30
ENDBRANCH  23  24
ENDBRANCH  21  23
ENDBRANCH  20  21
ENDBRANCH   1  20
TORSDOF 7
ENDMDL
