MODEL 1
REMARK VINA RESULT:     -10.7      0.000      0.000
REMARK  5 active torsions:
REMARK  status: ('A' for Active; 'I' for Inactive)
REMARK       I    between atoms: C_2  and  N_3 
REMARK    1  A    between atoms: N_3  and  C_4 
REMARK    2  A    between atoms: C_5  and  C_6 
REMARK    3  A    between atoms: C_15  and  C_16 
REMARK       I    between atoms: C_16  and  N_17 
REMARK    4  A    between atoms: N_17  and  C_18 
REMARK    5  A    between atoms: C_18  and  C_19 
ROOT
HETATM    1  C   UNL     1      26.302  45.193  51.643  1.00  0.00     0.138 A 
HETATM    2  N   UNL     1      26.632  46.335  51.097  1.00  0.00    -0.240 NA
HETATM    3  C   UNL     1      25.670  47.024  50.339  1.00  0.00     0.084 A 
HETATM    4  C   UNL     1      24.371  46.537  50.153  1.00  0.00     0.065 A 
HETATM    5  N   UNL     1      24.009  45.327  50.746  1.00  0.00    -0.320 N 
HETATM    6  C   UNL     1      24.887  44.605  51.515  1.00  0.00     0.275 A 
HETATM    7  O   UNL     1      24.562  43.569  52.074  1.00  0.00    -0.266 OA
HETATM    8  C   UNL     1      26.018  48.243  49.755  1.00  0.00     0.035 A 
HETATM    9  C   UNL     1      25.087  48.967  48.996  1.00  0.00     0.019 A 
HETATM   10  C   UNL     1      23.793  48.465  48.808  1.00  0.00     0.034 A 
HETATM   11  C   UNL     1      23.436  47.245  49.400  1.00  0.00     0.049 A 
HETATM   12  H   UNL     1      23.071  44.963  50.657  1.00  0.00     0.169 HD
ENDROOT
BRANCH  10  13
HETATM   13  C   UNL     1      22.741  49.189  48.039  1.00  0.00     0.252 C 
HETATM   14  N   UNL     1      21.426  48.871  48.296  1.00  0.00    -0.353 N 
HETATM   15  H   UNL     1      21.181  48.141  48.946  1.00  0.00     0.163 HD
HETATM   16  O   UNL     1      23.069  50.045  47.222  1.00  0.00    -0.268 OA
BRANCH  14  17
HETATM   17  C   UNL     1      20.375  49.423  47.469  1.00  0.00     0.163 C 
BRANCH  17  18
HETATM   18  C   UNL     1      19.485  50.367  48.232  1.00  0.00    -0.019 A 
HETATM   19  C   UNL     1      18.502  49.923  49.131  1.00  0.00     0.042 A 
HETATM   20 CL   UNL     1      18.266  48.244  49.462  1.00  0.00    -0.084 Cl
HETATM   21  C   UNL     1      17.684  50.838  49.801  1.00  0.00     0.024 A 
HETATM   22  C   UNL     1      17.840  52.207  49.589  1.00  0.00     0.002 A 
HETATM   23  C   UNL     1      18.819  52.664  48.712  1.00  0.00     0.001 A 
HETATM   24  C   UNL     1      19.638  51.753  48.041  1.00  0.00     0.010 A 
ENDBRANCH  17  18
ENDBRANCH  14  17
ENDBRANCH  10  13
BRANCH   1  25
HETATM   25  C   UNL     1      27.320  44.453  52.447  1.00  0.00     0.025 A 
HETATM   26  C   UNL     1      27.444  44.673  53.839  1.00  0.00     0.047 A 
HETATM   27  C   UNL     1      28.416  43.951  54.539  1.00  0.00     0.030 A 
HETATM   28  C   UNL     1      29.231  43.019  53.887  1.00  0.00     0.002 A 
HETATM   29  C   UNL     1      29.098  42.806  52.519  1.00  0.00     0.001 A 
HETATM   30  C   UNL     1      28.151  43.527  51.797  1.00  0.00     0.016 A 
BRANCH  26  31
HETATM   31  N   UNL     1      26.625  45.647  54.453  1.00  0.00    -0.327 N 
HETATM   32  C   UNL     1      26.801  46.959  54.772  1.00  0.00     0.218 C 
HETATM   33  C   UNL     1      28.163  47.592  54.733  1.00  0.00     0.117 C 
HETATM   34  O   UNL     1      25.826  47.615  55.149  1.00  0.00    -0.274 OA
HETATM   35  H   UNL     1      25.687  45.323  54.698  1.00  0.00     0.169 HD
ENDBRANCH  26  31
ENDBRANCH   1  25
TORSDOF 5
ENDMDL
MODEL 2
REMARK VINA RESULT:     -10.3      1.294      2.630
REMARK  5 active torsions:
REMARK  status: ('A' for Active; 'I' for Inactive)
REMARK       I    between atoms: C_2  and  N_3 
REMARK    1  A    between atoms: N_3  and  C_4 
REMARK    2  A    between atoms: C_5  and  C_6 
REMARK    3  A    between atoms: C_15  and  C_16 
REMARK       I    between atoms: C_16  and  N_17 
REMARK    4  A    between atoms: N_17  and  C_18 
REMARK    5  A    between atoms: C_18  and  C_19 
ROOT
HETATM    1  C   UNL     1      26.331  45.433  51.785  1.00  0.00     0.138 A 
HETATM    2  N   UNL     1      26.772  46.483  51.143  1.00  0.00    -0.240 NA
HETATM    3  C   UNL     1      25.870  47.230  50.367  1.00  0.00     0.084 A 
HETATM    4  C   UNL     1      24.515  46.894  50.260  1.00  0.00     0.065 A 
HETATM    5  N   UNL     1      24.035  45.783  50.954  1.00  0.00    -0.320 N 
HETATM    6  C   UNL     1      24.851  45.015  51.747  1.00  0.00     0.275 A 
HETATM    7  O   UNL     1      24.427  44.069  52.393  1.00  0.00    -0.266 OA
HETATM    8  C   UNL     1      26.338  48.352  49.682  1.00  0.00     0.035 A 
HETATM    9  C   UNL     1      25.470  49.129  48.899  1.00  0.00     0.019 A 
HETATM   10  C   UNL     1      24.119  48.778  48.792  1.00  0.00     0.034 A 
HETATM   11  C   UNL     1      23.642  47.656  49.485  1.00  0.00     0.049 A 
HETATM   12  H   UNL     1      23.057  45.531  50.923  1.00  0.00     0.169 HD
ENDROOT
BRANCH  10  13
HETATM   13  C   UNL     1      23.130  49.568  48.004  1.00  0.00     0.252 C 
HETATM   14  N   UNL     1      21.794  49.387  48.284  1.00  0.00    -0.353 N 
HETATM   15  H   UNL     1      21.489  48.708  48.964  1.00  0.00     0.163 HD
HETATM   16  O   UNL     1      23.528  50.358  47.152  1.00  0.00    -0.268 OA
BRANCH  14  17
HETATM   17  C   UNL     1      20.791  50.004  47.445  1.00  0.00     0.163 C 
BRANCH  17  18
HETATM   18  C   UNL     1      19.654  50.582  48.246  1.00  0.00    -0.019 A 
HETATM   19  C   UNL     1      18.617  49.793  48.769  1.00  0.00     0.042 A 
HETATM   20 CL   UNL     1      18.589  48.078  48.564  1.00  0.00    -0.084 Cl
HETATM   21  C   UNL     1      17.571  50.378  49.489  1.00  0.00     0.024 A 
HETATM   22  C   UNL     1      17.549  51.756  49.702  1.00  0.00     0.002 A 
HETATM   23  C   UNL     1      18.577  52.549  49.202  1.00  0.00     0.001 A 
HETATM   24  C   UNL     1      19.623  51.968  48.483  1.00  0.00     0.010 A 
ENDBRANCH  17  18
ENDBRANCH  14  17
ENDBRANCH  10  13
BRANCH   1  25
HETATM   25  C   UNL     1      27.284  44.633  52.609  1.00  0.00     0.025 A 
HETATM   26  C   UNL     1      28.042  43.587  52.031  1.00  0.00     0.047 A 
HETATM   27  C   UNL     1      28.918  42.872  52.854  1.00  0.00     0.030 A 
HETATM   28  C   UNL     1      29.059  43.193  54.209  1.00  0.00     0.002 A 
HETATM   29  C   UNL     1      28.313  44.225  54.767  1.00  0.00     0.001 A 
HETATM   30  C   UNL     1      27.420  44.939  53.972  1.00  0.00     0.016 A 
BRANCH  26  31
HETATM   31  N   UNL     1      27.846  43.273  50.668  1.00  0.00    -0.327 N 
HETATM   32  C   UNL     1      27.017  42.416  50.009  1.00  0.00     0.218 C 
HETATM   33  C   UNL     1      26.250  41.357  50.748  1.00  0.00     0.117 C 
HETATM   34  O   UNL     1      26.943  42.489  48.780  1.00  0.00    -0.274 OA
HETATM   35  H   UNL     1      28.425  43.810  50.018  1.00  0.00     0.169 HD
ENDBRANCH  26  31
ENDBRANCH   1  25
TORSDOF 5
ENDMDL
MODEL 3
REMARK VINA RESULT:      -9.7      3.682      9.556
REMARK  5 active torsions:
REMARK  status: ('A' for Active; 'I' for Inactive)
REMARK       I    between atoms: C_2  and  N_3 
REMARK    1  A    between atoms: N_3  and  C_4 
REMARK    2  A    between atoms: C_5  and  C_6 
REMARK    3  A    between atoms: C_15  and  C_16 
REMARK       I    between atoms: C_16  and  N_17 
REMARK    4  A    between atoms: N_17  and  C_18 
REMARK    5  A    between atoms: C_18  and  C_19 
ROOT
HETATM    1  C   UNL     1      19.831  46.784  48.233  1.00  0.00     0.138 A 
HETATM    2  N   UNL     1      20.835  47.593  48.454  1.00  0.00    -0.240 NA
HETATM    3  C   UNL     1      22.076  47.045  48.823  1.00  0.00     0.084 A 
HETATM    4  C   UNL     1      22.277  45.666  48.956  1.00  0.00     0.065 A 
HETATM    5  N   UNL     1      21.214  44.798  48.707  1.00  0.00    -0.320 N 
HETATM    6  C   UNL     1      19.978  45.256  48.325  1.00  0.00     0.275 A 
HETATM    7  O   UNL     1      19.057  44.498  48.061  1.00  0.00    -0.266 OA
HETATM    8  C   UNL     1      23.149  47.905  49.059  1.00  0.00     0.035 A 
HETATM    9  C   UNL     1      24.406  47.401  49.424  1.00  0.00     0.019 A 
HETATM   10  C   UNL     1      24.594  46.020  49.563  1.00  0.00     0.034 A 
HETATM   11  C   UNL     1      23.521  45.151  49.318  1.00  0.00     0.049 A 
HETATM   12  H   UNL     1      21.335  43.796  48.763  1.00  0.00     0.169 HD
ENDROOT
BRANCH  10  13
HETATM   13  C   UNL     1      25.906  45.406  49.919  1.00  0.00     0.252 C 
HETATM   14  N   UNL     1      25.943  44.557  51.003  1.00  0.00    -0.353 N 
HETATM   15  H   UNL     1      25.125  44.392  51.567  1.00  0.00     0.163 HD
HETATM   16  O   UNL     1      26.896  45.658  49.239  1.00  0.00    -0.268 OA
BRANCH  14  17
HETATM   17  C   UNL     1      27.213  44.064  51.489  1.00  0.00     0.163 C 
BRANCH  17  18
HETATM   18  C   UNL     1      27.549  44.602  52.855  1.00  0.00    -0.019 A 
HETATM   19  C   UNL     1      28.657  44.158  53.593  1.00  0.00     0.042 A 
HETATM   20 CL   UNL     1      29.752  42.977  52.967  1.00  0.00    -0.084 Cl
HETATM   21  C   UNL     1      28.916  44.672  54.868  1.00  0.00     0.024 A 
HETATM   22  C   UNL     1      28.077  45.640  55.419  1.00  0.00     0.002 A 
HETATM   23  C   UNL     1      26.983  46.101  54.693  1.00  0.00     0.001 A 
HETATM   24  C   UNL     1      26.722  45.590  53.420  1.00  0.00     0.010 A 
ENDBRANCH  17  18
ENDBRANCH  14  17
ENDBRANCH  10  13
BRANCH   1  25
HETATM   25  C   UNL     1      18.509  47.358  47.844  1.00  0.00     0.025 A 
HETATM   26  C   UNL     1      17.640  47.902  48.819  1.00  0.00     0.047 A 
HETATM   27  C   UNL     1      16.414  48.425  48.394  1.00  0.00     0.030 A 
HETATM   28  C   UNL     1      16.062  48.431  47.040  1.00  0.00     0.002 A 
HETATM   29  C   UNL     1      16.926  47.899  46.089  1.00  0.00     0.001 A 
HETATM   30  C   UNL     1      18.143  47.354  46.489  1.00  0.00     0.016 A 
BRANCH  26  31
HETATM   31  N   UNL     1      18.017  47.847  50.179  1.00  0.00    -0.327 N 
HETATM   32  C   UNL     1      18.540  48.756  51.049  1.00  0.00     0.218 C 
HETATM   33  C   UNL     1      19.095  50.064  50.563  1.00  0.00     0.117 C 
HETATM   34  O   UNL     1      18.601  48.465  52.246  1.00  0.00    -0.274 OA
HETATM   35  H   UNL     1      17.849  46.946  50.633  1.00  0.00     0.169 HD
ENDBRANCH  26  31
ENDBRANCH   1  25
TORSDOF 5
ENDMDL
MODEL 4
REMARK VINA RESULT:      -9.3      3.395      9.540
REMARK  5 active torsions:
REMARK  status: ('A' for Active; 'I' for Inactive)
REMARK       I    between atoms: C_2  and  N_3 
REMARK    1  A    between atoms: N_3  and  C_4 
REMARK    2  A    between atoms: C_5  and  C_6 
REMARK    3  A    between atoms: C_15  and  C_16 
REMARK       I    between atoms: C_16  and  N_17 
REMARK    4  A    between atoms: N_17  and  C_18 
REMARK    5  A    between atoms: C_18  and  C_19 
ROOT
HETATM    1  C   UNL     1      21.754  46.863  48.512  1.00  0.00     0.138 A 
HETATM    2  N   UNL     1      22.924  47.384  48.774  1.00  0.00    -0.240 NA
HETATM    3  C   UNL     1      23.870  46.607  49.466  1.00  0.00     0.084 A 
HETATM    4  C   UNL     1      23.607  45.296  49.877  1.00  0.00     0.065 A 
HETATM    5  N   UNL     1      22.366  44.729  49.587  1.00  0.00    -0.320 N 
HETATM    6  C   UNL     1      21.397  45.417  48.900  1.00  0.00     0.275 A 
HETATM    7  O   UNL     1      20.326  44.911  48.602  1.00  0.00    -0.266 OA
HETATM    8  C   UNL     1      25.120  47.160  49.747  1.00  0.00     0.035 A 
HETATM    9  C   UNL     1      26.095  46.419  50.430  1.00  0.00     0.019 A 
HETATM   10  C   UNL     1      25.818  45.110  50.845  1.00  0.00     0.034 A 
HETATM   11  C   UNL     1      24.566  44.547  50.557  1.00  0.00     0.049 A 
HETATM   12  H   UNL     1      22.155  43.774  49.842  1.00  0.00     0.169 HD
ENDROOT
BRANCH  10  13
HETATM   13  C   UNL     1      26.812  44.250  51.549  1.00  0.00     0.252 C 
HETATM   14  N   UNL     1      26.670  44.089  52.910  1.00  0.00    -0.353 N 
HETATM   15  H   UNL     1      25.950  44.573  53.422  1.00  0.00     0.163 HD
HETATM   16  O   UNL     1      27.704  43.705  50.906  1.00  0.00    -0.268 OA
BRANCH  14  17
HETATM   17  C   UNL     1      27.694  43.400  53.664  1.00  0.00     0.163 C 
BRANCH  17  18
HETATM   18  C   UNL     1      28.392  44.310  54.640  1.00  0.00    -0.019 A 
HETATM   19  C   UNL     1      29.716  44.101  55.057  1.00  0.00     0.042 A 
HETATM   20 CL   UNL     1      30.667  42.795  54.445  1.00  0.00    -0.084 Cl
HETATM   21  C   UNL     1      30.316  44.962  55.983  1.00  0.00     0.024 A 
HETATM   22  C   UNL     1      29.604  46.045  56.498  1.00  0.00     0.002 A 
HETATM   23  C   UNL     1      28.295  46.273  56.084  1.00  0.00     0.001 A 
HETATM   24  C   UNL     1      27.695  45.415  55.160  1.00  0.00     0.010 A 
ENDBRANCH  17  18
ENDBRANCH  14  17
ENDBRANCH  10  13
BRANCH   1  25
HETATM   25  C   UNL     1      20.742  47.682  47.781  1.00  0.00     0.025 A 
HETATM   26  C   UNL     1      20.426  48.994  48.207  1.00  0.00     0.047 A 
HETATM   27  C   UNL     1      19.469  49.713  47.484  1.00  0.00     0.030 A 
HETATM   28  C   UNL     1      18.855  49.161  46.354  1.00  0.00     0.002 A 
HETATM   29  C   UNL     1      19.176  47.873  45.939  1.00  0.00     0.001 A 
HETATM   30  C   UNL     1      20.111  47.130  46.655  1.00  0.00     0.016 A 
BRANCH  26  31
HETATM   31  N   UNL     1      21.043  49.501  49.372  1.00  0.00    -0.327 N 
HETATM   32  C   UNL     1      21.964  50.480  49.599  1.00  0.00     0.218 C 
HETATM   33  C   UNL     1      22.746  51.086  48.470  1.00  0.00     0.117 C 
HETATM   34  O   UNL     1      22.186  50.828  50.762  1.00  0.00    -0.274 OA
HETATM   35  H   UNL     1      20.730  49.071  50.245  1.00  0.00     0.169 HD
ENDBRANCH  26  31
ENDBRANCH   1  25
TORSDOF 5
ENDMDL
MODEL 5
REMARK VINA RESULT:      -9.2     12.174     15.636
REMARK  5 active torsions:
REMARK  status: ('A' for Active; 'I' for Inactive)
REMARK       I    between atoms: C_2  and  N_3 
REMARK    1  A    between atoms: N_3  and  C_4 
REMARK    2  A    between atoms: C_5  and  C_6 
REMARK    3  A    between atoms: C_15  and  C_16 
REMARK       I    between atoms: C_16  and  N_17 
REMARK    4  A    between atoms: N_17  and  C_18 
REMARK    5  A    between atoms: C_18  and  C_19 
ROOT
HETATM    1  C   UNL     1      30.257  49.446  40.925  1.00  0.00     0.138 A 
HETATM    2  N   UNL     1      30.543  50.137  41.997  1.00  0.00    -0.240 NA
HETATM    3  C   UNL     1      31.880  50.508  42.225  1.00  0.00     0.084 A 
HETATM    4  C   UNL     1      32.913  50.170  41.344  1.00  0.00     0.065 A 
HETATM    5  N   UNL     1      32.611  49.444  40.191  1.00  0.00    -0.320 N 
HETATM    6  C   UNL     1      31.328  49.062  39.890  1.00  0.00     0.275 A 
HETATM    7  O   UNL     1      31.051  48.468  38.859  1.00  0.00    -0.266 OA
HETATM    8  C   UNL     1      32.189  51.247  43.368  1.00  0.00     0.035 A 
HETATM    9  C   UNL     1      33.508  51.642  43.632  1.00  0.00     0.019 A 
HETATM   10  C   UNL     1      34.536  51.290  42.748  1.00  0.00     0.034 A 
HETATM   11  C   UNL     1      34.229  50.555  41.593  1.00  0.00     0.049 A 
HETATM   12  H   UNL     1      33.328  49.211  39.519  1.00  0.00     0.169 HD
ENDROOT
BRANCH  10  13
HETATM   13  C   UNL     1      35.957  51.697  42.945  1.00  0.00     0.252 C 
HETATM   14  N   UNL     1      36.201  52.966  43.420  1.00  0.00    -0.353 N 
HETATM   15  H   UNL     1      35.449  53.617  43.584  1.00  0.00     0.163 HD
HETATM   16  O   UNL     1      36.855  50.897  42.697  1.00  0.00    -0.268 OA
BRANCH  14  17
HETATM   17  C   UNL     1      37.556  53.467  43.476  1.00  0.00     0.163 C 
BRANCH  17  18
HETATM   18  C   UNL     1      38.081  53.538  44.885  1.00  0.00    -0.019 A 
HETATM   19  C   UNL     1      38.995  52.606  45.402  1.00  0.00     0.042 A 
HETATM   20 CL   UNL     1      39.623  51.318  44.436  1.00  0.00    -0.084 Cl
HETATM   21  C   UNL     1      39.437  52.700  46.725  1.00  0.00     0.024 A 
HETATM   22  C   UNL     1      38.979  53.728  47.548  1.00  0.00     0.002 A 
HETATM   23  C   UNL     1      38.084  54.668  47.046  1.00  0.00     0.001 A 
HETATM   24  C   UNL     1      37.641  54.577  45.725  1.00  0.00     0.010 A 
ENDBRANCH  17  18
ENDBRANCH  14  17
ENDBRANCH  10  13
BRANCH   1  25
HETATM   25  C   UNL     1      28.840  49.045  40.678  1.00  0.00     0.025 A 
HETATM   26  C   UNL     1      27.962  49.892  39.960  1.00  0.00     0.047 A 
HETATM   27  C   UNL     1      26.646  49.463  39.760  1.00  0.00     0.030 A 
HETATM   28  C   UNL     1      26.211  48.221  40.237  1.00  0.00     0.002 A 
HETATM   29  C   UNL     1      27.083  47.394  40.937  1.00  0.00     0.001 A 
HETATM   30  C   UNL     1      28.393  47.808  41.166  1.00  0.00     0.016 A 
BRANCH  26  31
HETATM   31  N   UNL     1      28.430  51.151  39.525  1.00  0.00    -0.327 N 
HETATM   32  C   UNL     1      28.519  52.377  40.113  1.00  0.00     0.218 C 
HETATM   33  C   UNL     1      27.815  52.670  41.407  1.00  0.00     0.117 C 
HETATM   34  O   UNL     1      29.149  53.268  39.537  1.00  0.00    -0.274 OA
HETATM   35  H   UNL     1      28.808  51.162  38.575  1.00  0.00     0.169 HD
ENDBRANCH  26  31
ENDBRANCH   1  25
TORSDOF 5
ENDMDL
MODEL 6
REMARK VINA RESULT:      -8.9      2.077      2.623
REMARK  5 active torsions:
REMARK  status: ('A' for Active; 'I' for Inactive)
REMARK       I    between atoms: C_2  and  N_3 
REMARK    1  A    between atoms: N_3  and  C_4 
REMARK    2  A    between atoms: C_5  and  C_6 
REMARK    3  A    between atoms: C_15  and  C_16 
REMARK       I    between atoms: C_16  and  N_17 
REMARK    4  A    between atoms: N_17  and  C_18 
REMARK    5  A    between atoms: C_18  and  C_19 
ROOT
HETATM    1  C   UNL     1      25.935  43.565  50.799  1.00  0.00     0.138 A 
HETATM    2  N   UNL     1      24.668  43.248  50.756  1.00  0.00    -0.240 NA
HETATM    3  C   UNL     1      23.795  44.050  50.001  1.00  0.00     0.084 A 
HETATM    4  C   UNL     1      24.235  45.172  49.288  1.00  0.00     0.065 A 
HETATM    5  N   UNL     1      25.589  45.506  49.318  1.00  0.00    -0.320 N 
HETATM    6  C   UNL     1      26.505  44.762  50.018  1.00  0.00     0.275 A 
HETATM    7  O   UNL     1      27.698  45.023  50.010  1.00  0.00    -0.266 OA
HETATM    8  C   UNL     1      22.442  43.714  49.953  1.00  0.00     0.035 A 
HETATM    9  C   UNL     1      21.537  44.484  49.207  1.00  0.00     0.019 A 
HETATM   10  C   UNL     1      21.987  45.610  48.505  1.00  0.00     0.034 A 
HETATM   11  C   UNL     1      23.348  45.947  48.544  1.00  0.00     0.049 A 
HETATM   12  H   UNL     1      25.944  46.291  48.790  1.00  0.00     0.169 HD
ENDROOT
BRANCH  10  13
HETATM   13  C   UNL     1      21.093  46.461  47.668  1.00  0.00     0.252 C 
HETATM   14  N   UNL     1      21.031  47.806  47.959  1.00  0.00    -0.353 N 
HETATM   15  H   UNL     1      21.534  48.196  48.740  1.00  0.00     0.163 HD
HETATM   16  O   UNL     1      20.459  45.951  46.748  1.00  0.00    -0.268 OA
BRANCH  14  17
HETATM   17  C   UNL     1      20.063  48.645  47.287  1.00  0.00     0.163 C 
BRANCH  17  18
HETATM   18  C   UNL     1      19.581  49.771  48.162  1.00  0.00    -0.019 A 
HETATM   19  C   UNL     1      18.690  49.574  49.230  1.00  0.00     0.042 A 
HETATM   20 CL   UNL     1      18.107  48.002  49.648  1.00  0.00    -0.084 Cl
HETATM   21  C   UNL     1      18.253  50.655  50.002  1.00  0.00     0.024 A 
HETATM   22  C   UNL     1      18.704  51.945  49.723  1.00  0.00     0.002 A 
HETATM   23  C   UNL     1      19.597  52.155  48.677  1.00  0.00     0.001 A 
HETATM   24  C   UNL     1      20.036  51.077  47.905  1.00  0.00     0.010 A 
ENDBRANCH  17  18
ENDBRANCH  14  17
ENDBRANCH  10  13
BRANCH   1  25
HETATM   25  C   UNL     1      26.868  42.719  51.602  1.00  0.00     0.025 A 
HETATM   26  C   UNL     1      26.943  42.857  53.008  1.00  0.00     0.047 A 
HETATM   27  C   UNL     1      27.836  42.038  53.706  1.00  0.00     0.030 A 
HETATM   28  C   UNL     1      28.621  41.091  53.037  1.00  0.00     0.002 A 
HETATM   29  C   UNL     1      28.537  40.960  51.656  1.00  0.00     0.001 A 
HETATM   30  C   UNL     1      27.669  41.778  50.936  1.00  0.00     0.016 A 
BRANCH  26  31
HETATM   31  N   UNL     1      26.159  43.846  53.641  1.00  0.00    -0.327 N 
HETATM   32  C   UNL     1      26.439  45.064  54.186  1.00  0.00     0.218 C 
HETATM   33  C   UNL     1      27.856  45.489  54.446  1.00  0.00     0.117 C 
HETATM   34  O   UNL     1      25.503  45.797  54.514  1.00  0.00    -0.274 OA
HETATM   35  H   UNL     1      25.160  43.633  53.691  1.00  0.00     0.169 HD
ENDBRANCH  26  31
ENDBRANCH   1  25
TORSDOF 5
ENDMDL
MODEL 7
REMARK VINA RESULT:      -8.9      3.022      9.655
REMARK  5 active torsions:
REMARK  status: ('A' for Active; 'I' for Inactive)
REMARK       I    between atoms: C_2  and  N_3 
REMARK    1  A    between atoms: N_3  and  C_4 
REMARK    2  A    between atoms: C_5  and  C_6 
REMARK    3  A    between atoms: C_15  and  C_16 
REMARK       I    between atoms: C_16  and  N_17 
REMARK    4  A    between atoms: N_17  and  C_18 
REMARK    5  A    between atoms: C_18  and  C_19 
ROOT
HETATM    1  C   UNL     1      20.686  49.423  47.996  1.00  0.00     0.138 A 
HETATM    2  N   UNL     1      20.778  48.121  47.938  1.00  0.00    -0.240 NA
HETATM    3  C   UNL     1      21.915  47.499  48.481  1.00  0.00     0.084 A 
HETATM    4  C   UNL     1      22.948  48.222  49.089  1.00  0.00     0.065 A 
HETATM    5  N   UNL     1      22.848  49.611  49.167  1.00  0.00    -0.320 N 
HETATM    6  C   UNL     1      21.761  50.289  48.676  1.00  0.00     0.275 A 
HETATM    7  O   UNL     1      21.646  51.500  48.784  1.00  0.00    -0.266 OA
HETATM    8  C   UNL     1      22.017  46.108  48.421  1.00  0.00     0.035 A 
HETATM    9  C   UNL     1      23.131  45.446  48.956  1.00  0.00     0.019 A 
HETATM   10  C   UNL     1      24.164  46.180  49.553  1.00  0.00     0.034 A 
HETATM   11  C   UNL     1      24.062  47.578  49.624  1.00  0.00     0.049 A 
HETATM   12  H   UNL     1      23.561  50.160  49.627  1.00  0.00     0.169 HD
ENDROOT
BRANCH  10  13
HETATM   13  C   UNL     1      25.365  45.548  50.169  1.00  0.00     0.252 C 
HETATM   14  N   UNL     1      25.280  45.156  51.486  1.00  0.00    -0.353 N 
HETATM   15  H   UNL     1      24.452  45.334  52.033  1.00  0.00     0.163 HD
HETATM   16  O   UNL     1      26.376  45.381  49.491  1.00  0.00    -0.268 OA
BRANCH  14  17
HETATM   17  C   UNL     1      26.461  44.688  52.177  1.00  0.00     0.163 C 
BRANCH  17  18
HETATM   18  C   UNL     1      26.838  45.579  53.331  1.00  0.00    -0.019 A 
HETATM   19  C   UNL     1      27.868  45.260  54.230  1.00  0.00     0.042 A 
HETATM   20 CL   UNL     1      28.815  43.826  54.056  1.00  0.00    -0.084 Cl
HETATM   21  C   UNL     1      28.167  46.110  55.300  1.00  0.00     0.024 A 
HETATM   22  C   UNL     1      27.449  47.291  55.482  1.00  0.00     0.002 A 
HETATM   23  C   UNL     1      26.435  47.628  54.590  1.00  0.00     0.001 A 
HETATM   24  C   UNL     1      26.134  46.782  53.521  1.00  0.00     0.010 A 
ENDBRANCH  17  18
ENDBRANCH  14  17
ENDBRANCH  10  13
BRANCH   1  25
HETATM   25  C   UNL     1      19.483  50.092  47.418  1.00  0.00     0.025 A 
HETATM   26  C   UNL     1      18.436  50.549  48.252  1.00  0.00     0.047 A 
HETATM   27  C   UNL     1      17.333  51.167  47.653  1.00  0.00     0.030 A 
HETATM   28  C   UNL     1      17.274  51.350  46.267  1.00  0.00     0.002 A 
HETATM   29  C   UNL     1      18.310  50.901  45.455  1.00  0.00     0.001 A 
HETATM   30  C   UNL     1      19.410  50.265  46.027  1.00  0.00     0.016 A 
BRANCH  26  31
HETATM   31  N   UNL     1      18.519  50.316  49.643  1.00  0.00    -0.327 N 
HETATM   32  C   UNL     1      18.390  49.205  50.421  1.00  0.00     0.218 C 
HETATM   33  C   UNL     1      17.825  47.929  49.864  1.00  0.00     0.117 C 
HETATM   34  O   UNL     1      18.697  49.275  51.613  1.00  0.00    -0.274 OA
HETATM   35  H   UNL     1      18.746  51.141  50.202  1.00  0.00     0.169 HD
ENDBRANCH  26  31
ENDBRANCH   1  25
TORSDOF 5
ENDMDL
MODEL 8
REMARK VINA RESULT:      -8.7      3.168      9.749
REMARK  5 active torsions:
REMARK  status: ('A' for Active; 'I' for Inactive)
REMARK       I    between atoms: C_2  and  N_3 
REMARK    1  A    between atoms: N_3  and  C_4 
REMARK    2  A    between atoms: C_5  and  C_6 
REMARK    3  A    between atoms: C_15  and  C_16 
REMARK       I    between atoms: C_16  and  N_17 
REMARK    4  A    between atoms: N_17  and  C_18 
REMARK    5  A    between atoms: C_18  and  C_19 
ROOT
HETATM    1  C   UNL     1      21.037  49.618  49.118  1.00  0.00     0.138 A 
HETATM    2  N   UNL     1      20.743  48.415  48.698  1.00  0.00    -0.240 NA
HETATM    3  C   UNL     1      21.721  47.409  48.788  1.00  0.00     0.084 A 
HETATM    4  C   UNL     1      22.995  47.647  49.318  1.00  0.00     0.065 A 
HETATM    5  N   UNL     1      23.309  48.924  49.782  1.00  0.00    -0.320 N 
HETATM    6  C   UNL     1      22.402  49.953  49.744  1.00  0.00     0.275 A 
HETATM    7  O   UNL     1      22.656  51.061  50.191  1.00  0.00    -0.266 OA
HETATM    8  C   UNL     1      21.410  46.125  48.341  1.00  0.00     0.035 A 
HETATM    9  C   UNL     1      22.354  45.090  48.418  1.00  0.00     0.019 A 
HETATM   10  C   UNL     1      23.629  45.341  48.941  1.00  0.00     0.034 A 
HETATM   11  C   UNL     1      23.943  46.629  49.400  1.00  0.00     0.049 A 
HETATM   12  H   UNL     1      24.208  49.121  50.199  1.00  0.00     0.169 HD
ENDROOT
BRANCH  10  13
HETATM   13  C   UNL     1      24.675  44.288  49.081  1.00  0.00     0.252 C 
HETATM   14  N   UNL     1      25.698  44.516  49.975  1.00  0.00    -0.353 N 
HETATM   15  H   UNL     1      25.767  45.385  50.482  1.00  0.00     0.163 HD
HETATM   16  O   UNL     1      24.589  43.257  48.420  1.00  0.00    -0.268 OA
BRANCH  14  17
HETATM   17  C   UNL     1      26.821  43.606  50.033  1.00  0.00     0.163 C 
BRANCH  17  18
HETATM   18  C   UNL     1      27.298  43.378  51.443  1.00  0.00    -0.019 A 
HETATM   19  C   UNL     1      27.832  42.153  51.874  1.00  0.00     0.042 A 
HETATM   20 CL   UNL     1      28.021  40.815  50.798  1.00  0.00    -0.084 Cl
HETATM   21  C   UNL     1      28.242  41.982  53.200  1.00  0.00     0.024 A 
HETATM   22  C   UNL     1      28.130  43.032  54.111  1.00  0.00     0.002 A 
HETATM   23  C   UNL     1      27.616  44.257  53.695  1.00  0.00     0.001 A 
HETATM   24  C   UNL     1      27.206  44.430  52.372  1.00  0.00     0.010 A 
ENDBRANCH  17  18
ENDBRANCH  14  17
ENDBRANCH  10  13
BRANCH   1  25
HETATM   25  C   UNL     1      20.005  50.692  49.023  1.00  0.00     0.025 A 
HETATM   26  C   UNL     1      18.968  50.789  49.980  1.00  0.00     0.047 A 
HETATM   27  C   UNL     1      18.030  51.816  49.838  1.00  0.00     0.030 A 
HETATM   28  C   UNL     1      18.123  52.738  48.789  1.00  0.00     0.002 A 
HETATM   29  C   UNL     1      19.148  52.638  47.855  1.00  0.00     0.001 A 
HETATM   30  C   UNL     1      20.084  51.611  47.965  1.00  0.00     0.016 A 
BRANCH  26  31
HETATM   31  N   UNL     1      18.890  49.819  51.004  1.00  0.00    -0.327 N 
HETATM   32  C   UNL     1      18.367  48.563  51.073  1.00  0.00     0.218 C 
HETATM   33  C   UNL     1      17.457  48.042  49.998  1.00  0.00     0.117 C 
HETATM   34  O   UNL     1      18.610  47.872  52.066  1.00  0.00    -0.274 OA
HETATM   35  H   UNL     1      19.337  50.089  51.884  1.00  0.00     0.169 HD
ENDBRANCH  26  31
ENDBRANCH   1  25
TORSDOF 5
ENDMDL
MODEL 9
REMARK VINA RESULT:      -8.7     13.448     16.731
REMARK  5 active torsions:
REMARK  status: ('A' for Active; 'I' for Inactive)
REMARK       I    between atoms: C_2  and  N_3 
REMARK    1  A    between atoms: N_3  and  C_4 
REMARK    2  A    between atoms: C_5  and  C_6 
REMARK    3  A    between atoms: C_15  and  C_16 
REMARK       I    between atoms: C_16  and  N_17 
REMARK    4  A    between atoms: N_17  and  C_18 
REMARK    5  A    between atoms: C_18  and  C_19 
ROOT
HETATM    1  C   UNL     1      33.006  50.356  41.406  1.00  0.00     0.138 A 
HETATM    2  N   UNL     1      34.068  50.742  40.748  1.00  0.00    -0.240 NA
HETATM    3  C   UNL     1      35.079  51.429  41.442  1.00  0.00     0.084 A 
HETATM    4  C   UNL     1      34.995  51.708  42.810  1.00  0.00     0.065 A 
HETATM    5  N   UNL     1      33.870  51.285  43.520  1.00  0.00    -0.320 N 
HETATM    6  C   UNL     1      32.850  50.594  42.918  1.00  0.00     0.275 A 
HETATM    7  O   UNL     1      31.885  50.181  43.544  1.00  0.00    -0.266 OA
HETATM    8  C   UNL     1      36.214  51.842  40.743  1.00  0.00     0.035 A 
HETATM    9  C   UNL     1      37.251  52.526  41.396  1.00  0.00     0.019 A 
HETATM   10  C   UNL     1      37.151  52.808  42.764  1.00  0.00     0.034 A 
HETATM   11  C   UNL     1      36.016  52.387  43.473  1.00  0.00     0.049 A 
HETATM   12  H   UNL     1      33.792  51.443  44.516  1.00  0.00     0.169 HD
ENDROOT
BRANCH  10  13
HETATM   13  C   UNL     1      38.221  53.504  43.535  1.00  0.00     0.252 C 
HETATM   14  N   UNL     1      37.841  54.508  44.397  1.00  0.00    -0.353 N 
HETATM   15  H   UNL     1      36.879  54.798  44.471  1.00  0.00     0.163 HD
HETATM   16  O   UNL     1      39.391  53.157  43.393  1.00  0.00    -0.268 OA
BRANCH  14  17
HETATM   17  C   UNL     1      38.847  55.321  45.045  1.00  0.00     0.163 C 
BRANCH  17  18
HETATM   18  C   UNL     1      39.203  54.804  46.414  1.00  0.00    -0.019 A 
HETATM   19  C   UNL     1      40.523  54.766  46.891  1.00  0.00     0.042 A 
HETATM   20 CL   UNL     1      41.847  55.351  45.947  1.00  0.00    -0.084 Cl
HETATM   21  C   UNL     1      40.806  54.257  48.162  1.00  0.00     0.024 A 
HETATM   22  C   UNL     1      39.776  53.787  48.977  1.00  0.00     0.002 A 
HETATM   23  C   UNL     1      38.461  53.832  48.524  1.00  0.00     0.001 A 
HETATM   24  C   UNL     1      38.175  54.340  47.255  1.00  0.00     0.010 A 
ENDBRANCH  17  18
ENDBRANCH  14  17
ENDBRANCH  10  13
BRANCH   1  25
HETATM   25  C   UNL     1      31.925  49.629  40.676  1.00  0.00     0.025 A 
HETATM   26  C   UNL     1      30.933  50.337  39.958  1.00  0.00     0.047 A 
HETATM   27  C   UNL     1      29.945  49.601  39.294  1.00  0.00     0.030 A 
HETATM   28  C   UNL     1      29.948  48.202  39.321  1.00  0.00     0.002 A 
HETATM   29  C   UNL     1      30.930  47.515  40.026  1.00  0.00     0.001 A 
HETATM   30  C   UNL     1      31.912  48.226  40.711  1.00  0.00     0.016 A 
BRANCH  26  31
HETATM   31  N   UNL     1      30.946  51.749  39.983  1.00  0.00    -0.327 N 
HETATM   32  C   UNL     1      30.429  52.680  40.832  1.00  0.00     0.218 C 
HETATM   33  C   UNL     1      29.425  52.300  41.882  1.00  0.00     0.117 C 
HETATM   34  O   UNL     1      30.760  53.860  40.693  1.00  0.00    -0.274 OA
HETATM   35  H   UNL     1      31.471  52.185  39.222  1.00  0.00     0.169 HD
ENDBRANCH  26  31
ENDBRANCH   1  25
TORSDOF 5
ENDMDL
MODEL 10
REMARK VINA RESULT:      -8.3     13.456     16.722
REMARK  5 active torsions:
REMARK  status: ('A' for Active; 'I' for Inactive)
REMARK       I    between atoms: C_2  and  N_3 
REMARK    1  A    between atoms: N_3  and  C_4 
REMARK    2  A    between atoms: C_5  and  C_6 
REMARK    3  A    between atoms: C_15  and  C_16 
REMARK       I    between atoms: C_16  and  N_17 
REMARK    4  A    between atoms: N_17  and  C_18 
REMARK    5  A    between atoms: C_18  and  C_19 
ROOT
HETATM    1  C   UNL     1      31.630  49.977  39.581  1.00  0.00     0.138 A 
HETATM    2  N   UNL     1      32.168  49.893  40.770  1.00  0.00    -0.240 NA
HETATM    3  C   UNL     1      33.332  50.635  41.039  1.00  0.00     0.084 A 
HETATM    4  C   UNL     1      33.931  51.464  40.083  1.00  0.00     0.065 A 
HETATM    5  N   UNL     1      33.353  51.568  38.818  1.00  0.00    -0.320 N 
HETATM    6  C   UNL     1      32.207  50.890  38.486  1.00  0.00     0.275 A 
HETATM    7  O   UNL     1      31.670  51.013  37.395  1.00  0.00    -0.266 OA
HETATM    8  C   UNL     1      33.908  50.549  42.306  1.00  0.00     0.035 A 
HETATM    9  C   UNL     1      35.067  51.275  42.619  1.00  0.00     0.019 A 
HETATM   10  C   UNL     1      35.663  52.094  41.652  1.00  0.00     0.034 A 
HETATM   11  C   UNL     1      35.082  52.191  40.379  1.00  0.00     0.049 A 
HETATM   12  H   UNL     1      33.742  52.182  38.115  1.00  0.00     0.169 HD
ENDROOT
BRANCH  10  13
HETATM   13  C   UNL     1      36.877  52.919  41.917  1.00  0.00     0.252 C 
HETATM   14  N   UNL     1      37.832  52.401  42.762  1.00  0.00    -0.353 N 
HETATM   15  H   UNL     1      37.697  51.516  43.227  1.00  0.00     0.163 HD
HETATM   16  O   UNL     1      36.997  54.012  41.370  1.00  0.00    -0.268 OA
BRANCH  14  17
HETATM   17  C   UNL     1      38.948  53.222  43.179  1.00  0.00     0.163 C 
BRANCH  17  18
HETATM   18  C   UNL     1      38.798  53.711  44.596  1.00  0.00    -0.019 A 
HETATM   19  C   UNL     1      39.089  55.030  44.977  1.00  0.00     0.042 A 
HETATM   20 CL   UNL     1      39.608  56.214  43.831  1.00  0.00    -0.084 Cl
HETATM   21  C   UNL     1      38.955  55.432  46.310  1.00  0.00     0.024 A 
HETATM   22  C   UNL     1      38.522  54.526  47.277  1.00  0.00     0.002 A 
HETATM   23  C   UNL     1      38.216  53.218  46.912  1.00  0.00     0.001 A 
HETATM   24  C   UNL     1      38.349  52.814  45.582  1.00  0.00     0.010 A 
ENDBRANCH  17  18
ENDBRANCH  14  17
ENDBRANCH  10  13
BRANCH   1  25
HETATM   25  C   UNL     1      30.396  49.190  39.287  1.00  0.00     0.025 A 
HETATM   26  C   UNL     1      29.116  49.708  39.593  1.00  0.00     0.047 A 
HETATM   27  C   UNL     1      27.996  48.924  39.295  1.00  0.00     0.030 A 
HETATM   28  C   UNL     1      28.134  47.669  38.690  1.00  0.00     0.002 A 
HETATM   29  C   UNL     1      29.397  47.171  38.389  1.00  0.00     0.001 A 
HETATM   30  C   UNL     1      30.528  47.924  38.694  1.00  0.00     0.016 A 
BRANCH  26  31
HETATM   31  N   UNL     1      29.021  50.963  40.232  1.00  0.00    -0.327 N 
HETATM   32  C   UNL     1      28.706  52.218  39.803  1.00  0.00     0.218 C 
HETATM   33  C   UNL     1      28.638  52.541  38.338  1.00  0.00     0.117 C 
HETATM   34  O   UNL     1      28.528  53.105  40.641  1.00  0.00    -0.274 OA
HETATM   35  H   UNL     1      29.201  50.945  41.239  1.00  0.00     0.169 HD
ENDBRANCH  26  31
ENDBRANCH   1  25
TORSDOF 5
ENDMDL
