MODEL 1
REMARK VINA RESULT:      -8.2      0.000      0.000
REMARK  10 active torsions:
REMARK  status: ('A' for Active; 'I' for Inactive)
REMARK    1  A    between atoms: C_2  and  C_3 
REMARK    2  A    between atoms: C_3  and  C_4 
REMARK    3  A    between atoms: N_7  and  C_9 
REMARK    4  A    between atoms: C_9  and  C_10 
REMARK    5  A    between atoms: C_12  and  O_13 
REMARK    6  A    between atoms: O_13  and  C_14 
REMARK    7  A    between atoms: C_16  and  O_17 
REMARK    8  A    between atoms: N_25  and  C_26 
REMARK    9  A    between atoms: C_26  and  C_27 
REMARK   10  A    between atoms: C_27  and  C_28 
ROOT
HETATM    1  C   UNL     1      18.753  50.915  48.004  1.00  0.00     0.026 C 
HETATM    2  C   UNL     1      18.636  52.400  48.414  1.00  0.00     0.035 C 
HETATM    3  C   UNL     1      17.528  52.700  49.416  1.00  0.00     0.235 C 
HETATM    4  N   UNL     1      16.204  52.184  48.909  1.00  0.00    -0.067 N 
HETATM    5  H   UNL     1      15.968  52.749  48.083  1.00  0.00     0.280 HD
HETATM    6  C   UNL     1      16.236  50.735  48.489  1.00  0.00     0.235 C 
HETATM    7  C   UNL     1      17.367  50.463  47.510  1.00  0.00     0.035 C 
ENDROOT
BRANCH   1   8
HETATM    8  C   UNL     1      19.446  49.973  49.060  1.00  0.00     0.119 A 
HETATM    9  N   UNL     1      20.190  50.710  50.052  1.00  0.00    -0.324 N 
HETATM   10  C   UNL     1      21.550  50.511  49.940  1.00  0.00     0.326 A 
HETATM   11  H   UNL     1      19.835  51.065  50.932  1.00  0.00     0.165 HD
HETATM   12  O   UNL     1      22.350  51.103  50.641  1.00  0.00    -0.247 OA
HETATM   13  N   UNL     1      21.788  49.644  48.923  1.00  0.00    -0.268 N 
HETATM   14  C   UNL     1      20.610  49.236  48.357  1.00  0.00     0.256 A 
HETATM   15  O   UNL     1      20.478  48.486  47.400  1.00  0.00    -0.270 OA
BRANCH   8  16
HETATM   16  C   UNL     1      18.471  48.970  49.703  1.00  0.00     0.037 C 
HETATM   17  C   UNL     1      18.662  48.756  51.204  1.00  0.00     0.008 C 
ENDBRANCH   8  16
BRANCH  13  18
HETATM   18  C   UNL     1      23.103  49.339  48.382  1.00  0.00     0.142 C 
BRANCH  18  19
HETATM   19  C   UNL     1      23.874  48.277  49.171  1.00  0.00     0.068 C 
BRANCH  19  20
HETATM   20  C   UNL     1      25.335  48.606  49.213  1.00  0.00     0.010 A 
HETATM   21  S   UNL     1      25.980  49.854  48.221  1.00  0.00    -0.085 SA
HETATM   22  C   UNL     1      27.541  49.519  48.837  1.00  0.00     0.166 A 
HETATM   23  N   UNL     1      27.613  48.555  49.726  1.00  0.00    -0.258 NA
HETATM   24  C   UNL     1      26.352  48.032  49.961  1.00  0.00     0.044 A 
HETATM   25  C   UNL     1      26.223  46.934  50.956  1.00  0.00     0.071 C 
ENDBRANCH  19  20
ENDBRANCH  18  19
ENDBRANCH  13  18
ENDBRANCH   1   8
BRANCH   4  26
HETATM   26  C   UNL     1      15.070  52.397  49.907  1.00  0.00     0.273 C 
BRANCH  26  27
HETATM   27  C   UNL     1      14.669  53.827  50.146  1.00  0.00    -0.030 A 
HETATM   28  C   UNL     1      14.639  54.332  51.464  1.00  0.00     0.048 A 
HETATM   29  C   UNL     1      14.264  55.653  51.711  1.00  0.00     0.102 A 
HETATM   30  C   UNL     1      13.956  56.477  50.628  1.00  0.00     0.099 A 
HETATM   31  C   UNL     1      13.973  56.000  49.323  1.00  0.00     0.040 A 
HETATM   32  C   UNL     1      14.316  54.669  49.080  1.00  0.00     0.012 A 
BRANCH  29  33
HETATM   33  O   UNL     1      14.183  56.248  52.941  1.00  0.00    -0.349 OA
BRANCH  33  34
HETATM   34  C   UNL     1      15.419  56.538  53.598  1.00  0.00     0.171 C 
HETATM   35  C   UNL     1      15.553  58.046  53.709  1.00  0.00     0.034 C 
ENDBRANCH  33  34
ENDBRANCH  29  33
BRANCH  30  36
HETATM   36  O   UNL     1      13.612  57.784  50.827  1.00  0.00    -0.358 OA
HETATM   37  H   UNL     1      14.182  58.306  50.227  1.00  0.00     0.218 HD
ENDBRANCH  30  36
ENDBRANCH  26  27
ENDBRANCH   4  26
TORSDOF 10
ENDMDL
MODEL 2
REMARK VINA RESULT:      -8.2      6.724     12.793
REMARK  10 active torsions:
REMARK  status: ('A' for Active; 'I' for Inactive)
REMARK    1  A    between atoms: C_2  and  C_3 
REMARK    2  A    between atoms: C_3  and  C_4 
REMARK    3  A    between atoms: N_7  and  C_9 
REMARK    4  A    between atoms: C_9  and  C_10 
REMARK    5  A    between atoms: C_12  and  O_13 
REMARK    6  A    between atoms: O_13  and  C_14 
REMARK    7  A    between atoms: C_16  and  O_17 
REMARK    8  A    between atoms: N_25  and  C_26 
REMARK    9  A    between atoms: C_26  and  C_27 
REMARK   10  A    between atoms: C_27  and  C_28 
ROOT
HETATM    1  C   UNL     1      25.050  42.531  50.830  1.00  0.00     0.026 C 
HETATM    2  C   UNL     1      25.253  43.338  52.132  1.00  0.00     0.035 C 
HETATM    3  C   UNL     1      26.686  43.790  52.388  1.00  0.00     0.235 C 
HETATM    4  N   UNL     1      27.627  42.611  52.342  1.00  0.00    -0.067 N 
HETATM    5  H   UNL     1      27.393  42.020  53.150  1.00  0.00     0.280 HD
HETATM    6  C   UNL     1      27.492  41.772  51.095  1.00  0.00     0.235 C 
HETATM    7  C   UNL     1      26.048  41.359  50.856  1.00  0.00     0.035 C 
ENDROOT
BRANCH   1   8
HETATM    8  C   UNL     1      25.023  43.381  49.504  1.00  0.00     0.119 A 
HETATM    9  N   UNL     1      26.238  44.133  49.306  1.00  0.00    -0.324 N 
HETATM   10  C   UNL     1      26.036  45.492  49.418  1.00  0.00     0.326 A 
HETATM   11  H   UNL     1      27.072  43.818  48.824  1.00  0.00     0.165 HD
HETATM   12  O   UNL     1      26.954  46.290  49.356  1.00  0.00    -0.247 OA
HETATM   13  N   UNL     1      24.721  45.725  49.664  1.00  0.00    -0.268 N 
HETATM   14  C   UNL     1      24.025  44.546  49.699  1.00  0.00     0.256 A 
HETATM   15  O   UNL     1      22.834  44.407  49.932  1.00  0.00    -0.270 OA
BRANCH   8  16
HETATM   16  C   UNL     1      24.657  42.547  48.262  1.00  0.00     0.037 C 
HETATM   17  C   UNL     1      23.462  41.612  48.443  1.00  0.00     0.008 C 
ENDBRANCH   8  16
BRANCH  13  18
HETATM   18  C   UNL     1      24.160  47.016  50.030  1.00  0.00     0.142 C 
BRANCH  18  19
HETATM   19  C   UNL     1      23.801  47.904  48.835  1.00  0.00     0.068 C 
BRANCH  19  20
HETATM   20  C   UNL     1      22.342  48.245  48.848  1.00  0.00     0.010 A 
HETATM   21  S   UNL     1      21.167  47.076  48.391  1.00  0.00    -0.085 SA
HETATM   22  C   UNL     1      19.935  48.236  48.641  1.00  0.00     0.166 A 
HETATM   23  N   UNL     1      20.334  49.421  49.044  1.00  0.00    -0.258 NA
HETATM   24  C   UNL     1      21.713  49.435  49.180  1.00  0.00     0.044 A 
HETATM   25  C   UNL     1      22.358  50.691  49.646  1.00  0.00     0.071 C 
ENDBRANCH  19  20
ENDBRANCH  18  19
ENDBRANCH  13  18
ENDBRANCH   1   8
BRANCH   4  26
HETATM   26  C   UNL     1      29.085  43.019  52.522  1.00  0.00     0.273 C 
BRANCH  26  27
HETATM   27  C   UNL     1      29.418  43.707  53.818  1.00  0.00    -0.030 A 
HETATM   28  C   UNL     1      28.691  44.852  54.207  1.00  0.00     0.048 A 
HETATM   29  C   UNL     1      28.984  45.510  55.401  1.00  0.00     0.102 A 
HETATM   30  C   UNL     1      29.986  44.993  56.223  1.00  0.00     0.099 A 
HETATM   31  C   UNL     1      30.719  43.870  55.858  1.00  0.00     0.040 A 
HETATM   32  C   UNL     1      30.446  43.232  54.648  1.00  0.00     0.012 A 
BRANCH  29  33
HETATM   33  O   UNL     1      28.361  46.634  55.874  1.00  0.00    -0.349 OA
BRANCH  33  34
HETATM   34  C   UNL     1      27.941  47.593  54.900  1.00  0.00     0.171 C 
HETATM   35  C   UNL     1      26.448  47.810  55.064  1.00  0.00     0.034 C 
ENDBRANCH  33  34
ENDBRANCH  29  33
BRANCH  30  36
HETATM   36  O   UNL     1      30.284  45.592  57.415  1.00  0.00    -0.358 OA
HETATM   37  H   UNL     1      31.046  46.179  57.236  1.00  0.00     0.218 HD
ENDBRANCH  30  36
ENDBRANCH  26  27
ENDBRANCH   4  26
TORSDOF 10
ENDMDL
MODEL 3
REMARK VINA RESULT:      -7.9     13.821     18.271
REMARK  10 active torsions:
REMARK  status: ('A' for Active; 'I' for Inactive)
REMARK    1  A    between atoms: C_2  and  C_3 
REMARK    2  A    between atoms: C_3  and  C_4 
REMARK    3  A    between atoms: N_7  and  C_9 
REMARK    4  A    between atoms: C_9  and  C_10 
REMARK    5  A    between atoms: C_12  and  O_13 
REMARK    6  A    between atoms: O_13  and  C_14 
REMARK    7  A    between atoms: C_16  and  O_17 
REMARK    8  A    between atoms: N_25  and  C_26 
REMARK    9  A    between atoms: C_26  and  C_27 
REMARK   10  A    between atoms: C_27  and  C_28 
ROOT
HETATM    1  C   UNL     1      32.668  50.618  41.590  1.00  0.00     0.026 C 
HETATM    2  C   UNL     1      33.087  51.257  42.934  1.00  0.00     0.035 C 
HETATM    3  C   UNL     1      34.556  51.654  43.023  1.00  0.00     0.235 C 
HETATM    4  N   UNL     1      35.441  50.476  42.697  1.00  0.00    -0.067 N 
HETATM    5  H   UNL     1      35.309  49.794  43.456  1.00  0.00     0.280 HD
HETATM    6  C   UNL     1      35.096  49.797  41.394  1.00  0.00     0.235 C 
HETATM    7  C   UNL     1      33.620  49.437  41.327  1.00  0.00     0.035 C 
ENDROOT
BRANCH   1   8
HETATM    8  C   UNL     1      32.474  51.624  40.394  1.00  0.00     0.119 A 
HETATM    9  N   UNL     1      32.147  52.955  40.840  1.00  0.00    -0.324 N 
HETATM   10  C   UNL     1      30.858  53.317  40.508  1.00  0.00     0.326 A 
HETATM   11  H   UNL     1      32.802  53.696  41.064  1.00  0.00     0.165 HD
HETATM   12  O   UNL     1      30.371  54.375  40.861  1.00  0.00    -0.247 OA
HETATM   13  N   UNL     1      30.276  52.299  39.824  1.00  0.00    -0.268 N 
HETATM   14  C   UNL     1      31.156  51.261  39.669  1.00  0.00     0.256 A 
HETATM   15  O   UNL     1      30.934  50.186  39.133  1.00  0.00    -0.270 OA
BRANCH   8  16
HETATM   16  C   UNL     1      33.658  51.624  39.409  1.00  0.00     0.037 C 
HETATM   17  C   UNL     1      34.507  52.895  39.422  1.00  0.00     0.008 C 
ENDBRANCH   8  16
BRANCH  13  18
HETATM   18  C   UNL     1      28.866  52.233  39.474  1.00  0.00     0.142 C 
BRANCH  18  19
HETATM   19  C   UNL     1      27.960  51.751  40.611  1.00  0.00     0.068 C 
BRANCH  19  20
HETATM   20  C   UNL     1      27.595  50.311  40.424  1.00  0.00     0.010 A 
HETATM   21  S   UNL     1      26.364  49.858  39.311  1.00  0.00    -0.085 SA
HETATM   22  C   UNL     1      26.584  48.220  39.755  1.00  0.00     0.166 A 
HETATM   23  N   UNL     1      27.505  47.989  40.661  1.00  0.00    -0.258 NA
HETATM   24  C   UNL     1      28.103  49.179  41.044  1.00  0.00     0.044 A 
HETATM   25  C   UNL     1      29.190  49.124  42.057  1.00  0.00     0.071 C 
ENDBRANCH  19  20
ENDBRANCH  18  19
ENDBRANCH  13  18
ENDBRANCH   1   8
BRANCH   4  26
HETATM   26  C   UNL     1      36.922  50.837  42.703  1.00  0.00     0.273 C 
BRANCH  26  27
HETATM   27  C   UNL     1      37.239  52.299  42.869  1.00  0.00    -0.030 A 
HETATM   28  C   UNL     1      37.398  52.835  44.165  1.00  0.00     0.048 A 
HETATM   29  C   UNL     1      37.686  54.188  44.345  1.00  0.00     0.102 A 
HETATM   30  C   UNL     1      37.852  54.994  43.217  1.00  0.00     0.099 A 
HETATM   31  C   UNL     1      37.694  54.489  41.933  1.00  0.00     0.040 A 
HETATM   32  C   UNL     1      37.374  53.143  41.756  1.00  0.00     0.012 A 
BRANCH  29  33
HETATM   33  O   UNL     1      37.846  54.823  45.547  1.00  0.00    -0.349 OA
BRANCH  33  34
HETATM   34  C   UNL     1      38.935  54.387  46.364  1.00  0.00     0.171 C 
HETATM   35  C   UNL     1      38.384  54.016  47.728  1.00  0.00     0.034 C 
ENDBRANCH  33  34
ENDBRANCH  29  33
BRANCH  30  36
HETATM   36  O   UNL     1      38.162  56.318  43.351  1.00  0.00    -0.358 OA
HETATM   37  H   UNL     1      39.063  56.345  43.731  1.00  0.00     0.218 HD
ENDBRANCH  30  36
ENDBRANCH  26  27
ENDBRANCH   4  26
TORSDOF 10
ENDMDL
MODEL 4
REMARK VINA RESULT:      -7.9     13.768     18.443
REMARK  10 active torsions:
REMARK  status: ('A' for Active; 'I' for Inactive)
REMARK    1  A    between atoms: C_2  and  C_3 
REMARK    2  A    between atoms: C_3  and  C_4 
REMARK    3  A    between atoms: N_7  and  C_9 
REMARK    4  A    between atoms: C_9  and  C_10 
REMARK    5  A    between atoms: C_12  and  O_13 
REMARK    6  A    between atoms: O_13  and  C_14 
REMARK    7  A    between atoms: C_16  and  O_17 
REMARK    8  A    between atoms: N_25  and  C_26 
REMARK    9  A    between atoms: C_26  and  C_27 
REMARK   10  A    between atoms: C_27  and  C_28 
ROOT
HETATM    1  C   UNL     1      32.587  50.626  41.598  1.00  0.00     0.026 C 
HETATM    2  C   UNL     1      33.057  51.293  42.910  1.00  0.00     0.035 C 
HETATM    3  C   UNL     1      34.536  51.660  42.947  1.00  0.00     0.235 C 
HETATM    4  N   UNL     1      35.387  50.454  42.630  1.00  0.00    -0.067 N 
HETATM    5  H   UNL     1      35.262  49.797  43.411  1.00  0.00     0.280 HD
HETATM    6  C   UNL     1      34.991  49.747  41.358  1.00  0.00     0.235 C 
HETATM    7  C   UNL     1      33.506  49.417  41.342  1.00  0.00     0.035 C 
ENDROOT
BRANCH   1   8
HETATM    8  C   UNL     1      32.380  51.601  40.379  1.00  0.00     0.119 A 
HETATM    9  N   UNL     1      32.048  52.942  40.795  1.00  0.00    -0.324 N 
HETATM   10  C   UNL     1      30.756  53.288  40.462  1.00  0.00     0.326 A 
HETATM   11  H   UNL     1      32.701  53.691  40.997  1.00  0.00     0.165 HD
HETATM   12  O   UNL     1      30.266  54.352  40.793  1.00  0.00    -0.247 OA
HETATM   13  N   UNL     1      30.175  52.251  39.806  1.00  0.00    -0.268 N 
HETATM   14  C   UNL     1      31.060  51.215  39.671  1.00  0.00     0.256 A 
HETATM   15  O   UNL     1      30.840  50.126  39.162  1.00  0.00    -0.270 OA
BRANCH   8  16
HETATM   16  C   UNL     1      33.558  51.584  39.387  1.00  0.00     0.037 C 
HETATM   17  C   UNL     1      34.397  52.861  39.360  1.00  0.00     0.008 C 
ENDBRANCH   8  16
BRANCH  13  18
HETATM   18  C   UNL     1      28.763  52.169  39.467  1.00  0.00     0.142 C 
BRANCH  18  19
HETATM   19  C   UNL     1      27.871  51.686  40.613  1.00  0.00     0.068 C 
BRANCH  19  20
HETATM   20  C   UNL     1      27.491  50.249  40.420  1.00  0.00     0.010 A 
HETATM   21  S   UNL     1      26.258  49.813  39.304  1.00  0.00    -0.085 SA
HETATM   22  C   UNL     1      26.460  48.172  39.742  1.00  0.00     0.166 A 
HETATM   23  N   UNL     1      27.379  47.928  40.648  1.00  0.00    -0.258 NA
HETATM   24  C   UNL     1      27.988  49.110  41.036  1.00  0.00     0.044 A 
HETATM   25  C   UNL     1      29.073  49.041  42.050  1.00  0.00     0.071 C 
ENDBRANCH  19  20
ENDBRANCH  18  19
ENDBRANCH  13  18
ENDBRANCH   1   8
BRANCH   4  26
HETATM   26  C   UNL     1      36.875  50.783  42.585  1.00  0.00     0.273 C 
BRANCH  26  27
HETATM   27  C   UNL     1      37.232  52.231  42.780  1.00  0.00    -0.030 A 
HETATM   28  C   UNL     1      37.462  53.052  41.655  1.00  0.00     0.048 A 
HETATM   29  C   UNL     1      37.799  54.396  41.811  1.00  0.00     0.102 A 
HETATM   30  C   UNL     1      37.869  54.925  43.101  1.00  0.00     0.099 A 
HETATM   31  C   UNL     1      37.653  54.135  44.223  1.00  0.00     0.040 A 
HETATM   32  C   UNL     1      37.348  52.782  44.066  1.00  0.00     0.012 A 
BRANCH  29  33
HETATM   33  O   UNL     1      38.059  55.282  40.800  1.00  0.00    -0.349 OA
BRANCH  33  34
HETATM   34  C   UNL     1      37.200  55.225  39.659  1.00  0.00     0.171 C 
HETATM   35  C   UNL     1      36.077  56.227  39.863  1.00  0.00     0.034 C 
ENDBRANCH  33  34
ENDBRANCH  29  33
BRANCH  30  36
HETATM   36  O   UNL     1      38.169  56.244  43.295  1.00  0.00    -0.358 OA
HETATM   37  H   UNL     1      38.123  56.390  44.261  1.00  0.00     0.218 HD
ENDBRANCH  30  36
ENDBRANCH  26  27
ENDBRANCH   4  26
TORSDOF 10
ENDMDL
MODEL 5
REMARK VINA RESULT:      -7.8      6.783     11.427
REMARK  10 active torsions:
REMARK  status: ('A' for Active; 'I' for Inactive)
REMARK    1  A    between atoms: C_2  and  C_3 
REMARK    2  A    between atoms: C_3  and  C_4 
REMARK    3  A    between atoms: N_7  and  C_9 
REMARK    4  A    between atoms: C_9  and  C_10 
REMARK    5  A    between atoms: C_12  and  O_13 
REMARK    6  A    between atoms: O_13  and  C_14 
REMARK    7  A    between atoms: C_16  and  O_17 
REMARK    8  A    between atoms: N_25  and  C_26 
REMARK    9  A    between atoms: C_26  and  C_27 
REMARK   10  A    between atoms: C_27  and  C_28 
ROOT
HETATM    1  C   UNL     1      26.293  45.359  54.345  1.00  0.00     0.026 C 
HETATM    2  C   UNL     1      25.035  44.595  53.874  1.00  0.00     0.035 C 
HETATM    3  C   UNL     1      24.780  44.648  52.372  1.00  0.00     0.235 C 
HETATM    4  N   UNL     1      24.743  46.078  51.893  1.00  0.00    -0.067 N 
HETATM    5  H   UNL     1      23.907  46.504  52.314  1.00  0.00     0.280 HD
HETATM    6  C   UNL     1      25.942  46.892  52.312  1.00  0.00     0.235 C 
HETATM    7  C   UNL     1      26.184  46.798  53.810  1.00  0.00     0.035 C 
ENDROOT
BRANCH   1   8
HETATM    8  C   UNL     1      27.665  44.631  54.082  1.00  0.00     0.119 A 
HETATM    9  N   UNL     1      28.192  44.904  52.767  1.00  0.00    -0.324 N 
HETATM   10  C   UNL     1      28.182  43.788  51.957  1.00  0.00     0.326 A 
HETATM   11  H   UNL     1      28.803  45.670  52.508  1.00  0.00     0.165 HD
HETATM   12  O   UNL     1      28.519  43.834  50.788  1.00  0.00    -0.247 OA
HETATM   13  N   UNL     1      27.691  42.735  52.660  1.00  0.00    -0.268 N 
HETATM   14  C   UNL     1      27.388  43.116  53.940  1.00  0.00     0.256 A 
HETATM   15  O   UNL     1      26.896  42.417  54.815  1.00  0.00    -0.270 OA
BRANCH   8  16
HETATM   16  C   UNL     1      28.709  44.896  55.183  1.00  0.00     0.037 C 
HETATM   17  C   UNL     1      29.921  43.967  55.160  1.00  0.00     0.008 C 
ENDBRANCH   8  16
BRANCH  13  18
HETATM   18  C   UNL     1      27.352  41.441  52.091  1.00  0.00     0.142 C 
BRANCH  18  19
HETATM   19  C   UNL     1      28.549  40.502  51.913  1.00  0.00     0.068 C 
BRANCH  19  20
HETATM   20  C   UNL     1      28.528  39.869  50.555  1.00  0.00     0.010 A 
HETATM   21  S   UNL     1      27.639  40.586  49.270  1.00  0.00    -0.085 SA
HETATM   22  C   UNL     1      28.107  39.297  48.246  1.00  0.00     0.166 A 
HETATM   23  N   UNL     1      28.877  38.383  48.789  1.00  0.00    -0.258 NA
HETATM   24  C   UNL     1      29.138  38.706  50.110  1.00  0.00     0.044 A 
HETATM   25  C   UNL     1      30.012  37.795  50.896  1.00  0.00     0.071 C 
ENDBRANCH  19  20
ENDBRANCH  18  19
ENDBRANCH  13  18
ENDBRANCH   1   8
BRANCH   4  26
HETATM   26  C   UNL     1      24.560  46.186  50.383  1.00  0.00     0.273 C 
BRANCH  26  27
HETATM   27  C   UNL     1      25.184  47.390  49.733  1.00  0.00    -0.030 A 
HETATM   28  C   UNL     1      24.360  48.431  49.254  1.00  0.00     0.048 A 
HETATM   29  C   UNL     1      24.915  49.555  48.643  1.00  0.00     0.102 A 
HETATM   30  C   UNL     1      26.304  49.649  48.546  1.00  0.00     0.099 A 
HETATM   31  C   UNL     1      27.135  48.634  49.004  1.00  0.00     0.040 A 
HETATM   32  C   UNL     1      26.577  47.495  49.586  1.00  0.00     0.012 A 
BRANCH  29  33
HETATM   33  O   UNL     1      24.219  50.616  48.129  1.00  0.00    -0.349 OA
BRANCH  33  34
HETATM   34  C   UNL     1      22.895  50.350  47.660  1.00  0.00     0.171 C 
HETATM   35  C   UNL     1      21.922  51.136  48.519  1.00  0.00     0.034 C 
ENDBRANCH  33  34
ENDBRANCH  29  33
BRANCH  30  36
HETATM   36  O   UNL     1      26.887  50.747  47.979  1.00  0.00    -0.358 OA
HETATM   37  H   UNL     1      26.169  51.224  47.518  1.00  0.00     0.218 HD
ENDBRANCH  30  36
ENDBRANCH  26  27
ENDBRANCH   4  26
TORSDOF 10
ENDMDL
MODEL 6
REMARK VINA RESULT:      -7.7     13.867     16.709
REMARK  10 active torsions:
REMARK  status: ('A' for Active; 'I' for Inactive)
REMARK    1  A    between atoms: C_2  and  C_3 
REMARK    2  A    between atoms: C_3  and  C_4 
REMARK    3  A    between atoms: N_7  and  C_9 
REMARK    4  A    between atoms: C_9  and  C_10 
REMARK    5  A    between atoms: C_12  and  O_13 
REMARK    6  A    between atoms: O_13  and  C_14 
REMARK    7  A    between atoms: C_16  and  O_17 
REMARK    8  A    between atoms: N_25  and  C_26 
REMARK    9  A    between atoms: C_26  and  C_27 
REMARK   10  A    between atoms: C_27  and  C_28 
ROOT
HETATM    1  C   UNL     1      32.225  49.605  42.127  1.00  0.00     0.026 C 
HETATM    2  C   UNL     1      32.783  48.466  41.244  1.00  0.00     0.035 C 
HETATM    3  C   UNL     1      31.794  47.899  40.232  1.00  0.00     0.235 C 
HETATM    4  N   UNL     1      30.525  47.463  40.922  1.00  0.00    -0.067 N 
HETATM    5  H   UNL     1      30.776  46.663  41.516  1.00  0.00     0.280 HD
HETATM    6  C   UNL     1      29.915  48.526  41.803  1.00  0.00     0.235 C 
HETATM    7  C   UNL     1      30.933  49.088  42.784  1.00  0.00     0.035 C 
ENDROOT
BRANCH   1   8
HETATM    8  C   UNL     1      32.125  51.014  41.429  1.00  0.00     0.119 A 
HETATM    9  N   UNL     1      31.816  50.913  40.024  1.00  0.00    -0.324 N 
HETATM   10  C   UNL     1      32.868  51.312  39.227  1.00  0.00     0.326 A 
HETATM   11  H   UNL     1      30.892  50.889  39.609  1.00  0.00     0.165 HD
HETATM   12  O   UNL     1      32.827  51.230  38.013  1.00  0.00    -0.247 OA
HETATM   13  N   UNL     1      33.896  51.712  40.019  1.00  0.00    -0.268 N 
HETATM   14  C   UNL     1      33.549  51.610  41.339  1.00  0.00     0.256 A 
HETATM   15  O   UNL     1      34.258  51.858  42.303  1.00  0.00    -0.270 OA
BRANCH   8  16
HETATM   16  C   UNL     1      31.171  51.980  42.157  1.00  0.00     0.037 C 
HETATM   17  C   UNL     1      30.724  53.187  41.335  1.00  0.00     0.008 C 
ENDBRANCH   8  16
BRANCH  13  18
HETATM   18  C   UNL     1      35.237  52.019  39.547  1.00  0.00     0.142 C 
BRANCH  18  19
HETATM   19  C   UNL     1      36.215  50.844  39.633  1.00  0.00     0.068 C 
BRANCH  19  20
HETATM   20  C   UNL     1      37.539  51.295  40.169  1.00  0.00     0.010 A 
HETATM   21  S   UNL     1      38.663  52.108  39.153  1.00  0.00    -0.085 SA
HETATM   22  C   UNL     1      39.767  52.185  40.458  1.00  0.00     0.166 A 
HETATM   23  N   UNL     1      39.357  51.658  41.589  1.00  0.00    -0.258 NA
HETATM   24  C   UNL     1      38.075  51.156  41.441  1.00  0.00     0.044 A 
HETATM   25  C   UNL     1      37.426  50.529  42.623  1.00  0.00     0.071 C 
ENDBRANCH  19  20
ENDBRANCH  18  19
ENDBRANCH  13  18
ENDBRANCH   1   8
BRANCH   4  26
HETATM   26  C   UNL     1      29.472  46.952  39.944  1.00  0.00     0.273 C 
BRANCH  26  27
HETATM   27  C   UNL     1      28.318  47.880  39.681  1.00  0.00    -0.030 A 
HETATM   28  C   UNL     1      28.519  49.040  38.901  1.00  0.00     0.048 A 
HETATM   29  C   UNL     1      27.465  49.918  38.648  1.00  0.00     0.102 A 
HETATM   30  C   UNL     1      26.199  49.610  39.149  1.00  0.00     0.099 A 
HETATM   31  C   UNL     1      25.980  48.477  39.924  1.00  0.00     0.040 A 
HETATM   32  C   UNL     1      27.042  47.617  40.203  1.00  0.00     0.012 A 
BRANCH  29  33
HETATM   33  O   UNL     1      27.541  51.077  37.923  1.00  0.00    -0.349 OA
BRANCH  33  34
HETATM   34  C   UNL     1      28.250  52.164  38.521  1.00  0.00     0.171 C 
HETATM   35  C   UNL     1      29.513  52.405  37.714  1.00  0.00     0.034 C 
ENDBRANCH  33  34
ENDBRANCH  29  33
BRANCH  30  36
HETATM   36  O   UNL     1      25.135  50.430  38.899  1.00  0.00    -0.358 OA
HETATM   37  H   UNL     1      25.462  51.342  39.037  1.00  0.00     0.218 HD
ENDBRANCH  30  36
ENDBRANCH  26  27
ENDBRANCH   4  26
TORSDOF 10
ENDMDL
MODEL 7
REMARK VINA RESULT:      -7.7      5.656      9.645
REMARK  10 active torsions:
REMARK  status: ('A' for Active; 'I' for Inactive)
REMARK    1  A    between atoms: C_2  and  C_3 
REMARK    2  A    between atoms: C_3  and  C_4 
REMARK    3  A    between atoms: N_7  and  C_9 
REMARK    4  A    between atoms: C_9  and  C_10 
REMARK    5  A    between atoms: C_12  and  O_13 
REMARK    6  A    between atoms: O_13  and  C_14 
REMARK    7  A    between atoms: C_16  and  O_17 
REMARK    8  A    between atoms: N_25  and  C_26 
REMARK    9  A    between atoms: C_26  and  C_27 
REMARK   10  A    between atoms: C_27  and  C_28 
ROOT
HETATM    1  C   UNL     1      25.052  43.939  51.598  1.00  0.00     0.026 C 
HETATM    2  C   UNL     1      23.610  43.769  51.069  1.00  0.00     0.035 C 
HETATM    3  C   UNL     1      23.297  44.558  49.803  1.00  0.00     0.235 C 
HETATM    4  N   UNL     1      23.622  46.018  49.998  1.00  0.00    -0.067 N 
HETATM    5  H   UNL     1      22.957  46.374  50.697  1.00  0.00     0.280 HD
HETATM    6  C   UNL     1      25.018  46.268  50.512  1.00  0.00     0.235 C 
HETATM    7  C   UNL     1      25.307  45.448  51.760  1.00  0.00     0.035 C 
ENDROOT
BRANCH   1   8
HETATM    8  C   UNL     1      26.159  43.135  50.818  1.00  0.00     0.119 A 
HETATM    9  N   UNL     1      26.316  41.789  51.313  1.00  0.00    -0.324 N 
HETATM   10  C   UNL     1      27.531  41.599  51.936  1.00  0.00     0.326 A 
HETATM   11  H   UNL     1      25.812  40.968  50.998  1.00  0.00     0.165 HD
HETATM   12  O   UNL     1      27.820  40.551  52.483  1.00  0.00    -0.247 OA
HETATM   13  N   UNL     1      28.244  42.753  51.876  1.00  0.00    -0.268 N 
HETATM   14  C   UNL     1      27.539  43.716  51.204  1.00  0.00     0.256 A 
HETATM   15  O   UNL     1      27.884  44.872  51.008  1.00  0.00    -0.270 OA
BRANCH   8  16
HETATM   16  C   UNL     1      25.960  43.164  49.291  1.00  0.00     0.037 C 
HETATM   17  C   UNL     1      25.728  41.799  48.645  1.00  0.00     0.008 C 
ENDBRANCH   8  16
BRANCH  13  18
HETATM   18  C   UNL     1      29.489  42.998  52.587  1.00  0.00     0.142 C 
BRANCH  18  19
HETATM   19  C   UNL     1      29.421  42.706  54.088  1.00  0.00     0.068 C 
BRANCH  19  20
HETATM   20  C   UNL     1      29.446  43.980  54.877  1.00  0.00     0.010 A 
HETATM   21  S   UNL     1      28.316  45.234  54.549  1.00  0.00    -0.085 SA
HETATM   22  C   UNL     1      29.048  46.193  55.762  1.00  0.00     0.166 A 
HETATM   23  N   UNL     1      30.062  45.646  56.393  1.00  0.00    -0.258 NA
HETATM   24  C   UNL     1      30.292  44.370  55.904  1.00  0.00     0.044 A 
HETATM   25  C   UNL     1      31.397  43.577  56.506  1.00  0.00     0.071 C 
ENDBRANCH  19  20
ENDBRANCH  18  19
ENDBRANCH  13  18
ENDBRANCH   1   8
BRANCH   4  26
HETATM   26  C   UNL     1      23.392  46.843  48.736  1.00  0.00     0.273 C 
BRANCH  26  27
HETATM   27  C   UNL     1      22.572  48.092  48.910  1.00  0.00    -0.030 A 
HETATM   28  C   UNL     1      21.164  48.012  48.879  1.00  0.00     0.048 A 
HETATM   29  C   UNL     1      20.382  49.158  49.033  1.00  0.00     0.102 A 
HETATM   30  C   UNL     1      21.019  50.379  49.255  1.00  0.00     0.099 A 
HETATM   31  C   UNL     1      22.404  50.483  49.284  1.00  0.00     0.040 A 
HETATM   32  C   UNL     1      23.185  49.342  49.097  1.00  0.00     0.012 A 
BRANCH  29  33
HETATM   33  O   UNL     1      19.014  49.206  49.005  1.00  0.00    -0.349 OA
BRANCH  33  34
HETATM   34  C   UNL     1      18.321  48.262  49.824  1.00  0.00     0.171 C 
HETATM   35  C   UNL     1      18.565  48.626  51.277  1.00  0.00     0.034 C 
ENDBRANCH  33  34
ENDBRANCH  29  33
BRANCH  30  36
HETATM   36  O   UNL     1      20.288  51.519  49.439  1.00  0.00    -0.358 OA
HETATM   37  H   UNL     1      20.604  51.907  50.279  1.00  0.00     0.218 HD
ENDBRANCH  30  36
ENDBRANCH  26  27
ENDBRANCH   4  26
TORSDOF 10
ENDMDL
MODEL 8
REMARK VINA RESULT:      -7.6      4.137      9.832
REMARK  10 active torsions:
REMARK  status: ('A' for Active; 'I' for Inactive)
REMARK    1  A    between atoms: C_2  and  C_3 
REMARK    2  A    between atoms: C_3  and  C_4 
REMARK    3  A    between atoms: N_7  and  C_9 
REMARK    4  A    between atoms: C_9  and  C_10 
REMARK    5  A    between atoms: C_12  and  O_13 
REMARK    6  A    between atoms: O_13  and  C_14 
REMARK    7  A    between atoms: C_16  and  O_17 
REMARK    8  A    between atoms: N_25  and  C_26 
REMARK    9  A    between atoms: C_26  and  C_27 
REMARK   10  A    between atoms: C_27  and  C_28 
ROOT
HETATM    1  C   UNL     1      18.268  51.786  47.534  1.00  0.00     0.026 C 
HETATM    2  C   UNL     1      18.899  50.687  46.649  1.00  0.00     0.035 C 
HETATM    3  C   UNL     1      19.665  49.613  47.413  1.00  0.00     0.235 C 
HETATM    4  N   UNL     1      20.709  50.241  48.303  1.00  0.00    -0.067 N 
HETATM    5  H   UNL     1      21.407  50.664  47.678  1.00  0.00     0.280 HD
HETATM    6  C   UNL     1      20.169  51.326  49.202  1.00  0.00     0.235 C 
HETATM    7  C   UNL     1      19.390  52.368  48.414  1.00  0.00     0.035 C 
ENDROOT
BRANCH   1   8
HETATM    8  C   UNL     1      16.948  51.374  48.288  1.00  0.00     0.119 A 
HETATM    9  N   UNL     1      16.975  50.005  48.739  1.00  0.00    -0.324 N 
HETATM   10  C   UNL     1      16.070  49.213  48.065  1.00  0.00     0.326 A 
HETATM   11  H   UNL     1      17.324  49.669  49.630  1.00  0.00     0.165 HD
HETATM   12  O   UNL     1      15.994  48.013  48.252  1.00  0.00    -0.247 OA
HETATM   13  N   UNL     1      15.392  49.980  47.172  1.00  0.00    -0.268 N 
HETATM   14  C   UNL     1      15.808  51.282  47.247  1.00  0.00     0.256 A 
HETATM   15  O   UNL     1      15.423  52.214  46.556  1.00  0.00    -0.270 OA
BRANCH   8  16
HETATM   16  C   UNL     1      16.576  52.345  49.424  1.00  0.00     0.037 C 
HETATM   17  C   UNL     1      15.130  52.246  49.909  1.00  0.00     0.008 C 
ENDBRANCH   8  16
BRANCH  13  18
HETATM   18  C   UNL     1      14.493  49.466  46.150  1.00  0.00     0.142 C 
BRANCH  18  19
HETATM   19  C   UNL     1      15.159  49.238  44.790  1.00  0.00     0.068 C 
BRANCH  19  20
HETATM   20  C   UNL     1      15.293  47.773  44.505  1.00  0.00     0.010 A 
HETATM   21  S   UNL     1      13.973  46.885  43.852  1.00  0.00    -0.085 SA
HETATM   22  C   UNL     1      14.923  45.462  43.902  1.00  0.00     0.166 A 
HETATM   23  N   UNL     1      16.145  45.604  44.361  1.00  0.00    -0.258 NA
HETATM   24  C   UNL     1      16.375  46.927  44.698  1.00  0.00     0.044 A 
HETATM   25  C   UNL     1      17.716  47.294  45.225  1.00  0.00     0.071 C 
ENDBRANCH  19  20
ENDBRANCH  18  19
ENDBRANCH  13  18
ENDBRANCH   1   8
BRANCH   4  26
HETATM   26  C   UNL     1      21.458  49.213  49.144  1.00  0.00     0.273 C 
BRANCH  26  27
HETATM   27  C   UNL     1      22.950  49.176  48.956  1.00  0.00    -0.030 A 
HETATM   28  C   UNL     1      23.712  48.190  49.618  1.00  0.00     0.048 A 
HETATM   29  C   UNL     1      25.098  48.140  49.465  1.00  0.00     0.102 A 
HETATM   30  C   UNL     1      25.713  49.060  48.614  1.00  0.00     0.099 A 
HETATM   31  C   UNL     1      24.983  50.043  47.957  1.00  0.00     0.040 A 
HETATM   32  C   UNL     1      23.601  50.112  48.137  1.00  0.00     0.012 A 
BRANCH  29  33
HETATM   33  O   UNL     1      25.941  47.243  50.065  1.00  0.00    -0.349 OA
BRANCH  33  34
HETATM   34  C   UNL     1      25.833  47.112  51.484  1.00  0.00     0.171 C 
HETATM   35  C   UNL     1      26.203  45.687  51.856  1.00  0.00     0.034 C 
ENDBRANCH  33  34
ENDBRANCH  29  33
BRANCH  30  36
HETATM   36  O   UNL     1      27.064  49.025  48.415  1.00  0.00    -0.358 OA
HETATM   37  H   UNL     1      27.205  48.455  47.633  1.00  0.00     0.218 HD
ENDBRANCH  30  36
ENDBRANCH  26  27
ENDBRANCH   4  26
TORSDOF 10
ENDMDL
MODEL 9
REMARK VINA RESULT:      -7.6     11.857     15.401
REMARK  10 active torsions:
REMARK  status: ('A' for Active; 'I' for Inactive)
REMARK    1  A    between atoms: C_2  and  C_3 
REMARK    2  A    between atoms: C_3  and  C_4 
REMARK    3  A    between atoms: N_7  and  C_9 
REMARK    4  A    between atoms: C_9  and  C_10 
REMARK    5  A    between atoms: C_12  and  O_13 
REMARK    6  A    between atoms: O_13  and  C_14 
REMARK    7  A    between atoms: C_16  and  O_17 
REMARK    8  A    between atoms: N_25  and  C_26 
REMARK    9  A    between atoms: C_26  and  C_27 
REMARK   10  A    between atoms: C_27  and  C_28 
ROOT
HETATM    1  C   UNL     1      30.777  49.642  41.217  1.00  0.00     0.026 C 
HETATM    2  C   UNL     1      31.164  48.427  40.344  1.00  0.00     0.035 C 
HETATM    3  C   UNL     1      30.003  47.782  39.596  1.00  0.00     0.235 C 
HETATM    4  N   UNL     1      28.897  47.416  40.555  1.00  0.00    -0.067 N 
HETATM    5  H   UNL     1      29.267  46.667  41.154  1.00  0.00     0.280 HD
HETATM    6  C   UNL     1      28.460  48.554  41.444  1.00  0.00     0.235 C 
HETATM    7  C   UNL     1      29.643  49.191  42.155  1.00  0.00     0.035 C 
ENDROOT
BRANCH   1   8
HETATM    8  C   UNL     1      30.528  50.986  40.435  1.00  0.00     0.119 A 
HETATM    9  N   UNL     1      30.601  50.814  39.005  1.00  0.00    -0.324 N 
HETATM   10  C   UNL     1      31.694  51.450  38.456  1.00  0.00     0.326 A 
HETATM   11  H   UNL     1      29.836  50.572  38.386  1.00  0.00     0.165 HD
HETATM   12  O   UNL     1      31.969  51.360  37.274  1.00  0.00    -0.247 OA
HETATM   13  N   UNL     1      32.380  52.082  39.443  1.00  0.00    -0.268 N 
HETATM   14  C   UNL     1      31.756  51.902  40.649  1.00  0.00     0.256 A 
HETATM   15  O   UNL     1      32.134  52.311  41.737  1.00  0.00    -0.270 OA
BRANCH   8  16
HETATM   16  C   UNL     1      29.231  51.699  40.861  1.00  0.00     0.037 C 
HETATM   17  C   UNL     1      28.247  51.980  39.727  1.00  0.00     0.008 C 
ENDBRANCH   8  16
BRANCH  13  18
HETATM   18  C   UNL     1      33.688  52.698  39.284  1.00  0.00     0.142 C 
BRANCH  18  19
HETATM   19  C   UNL     1      34.846  51.699  39.220  1.00  0.00     0.068 C 
BRANCH  19  20
HETATM   20  C   UNL     1      35.544  51.612  40.543  1.00  0.00     0.010 A 
HETATM   21  S   UNL     1      36.737  52.771  40.980  1.00  0.00    -0.085 SA
HETATM   22  C   UNL     1      36.982  51.942  42.457  1.00  0.00     0.166 A 
HETATM   23  N   UNL     1      36.239  50.876  42.647  1.00  0.00    -0.258 NA
HETATM   24  C   UNL     1      35.399  50.683  41.563  1.00  0.00     0.044 A 
HETATM   25  C   UNL     1      34.463  49.528  41.597  1.00  0.00     0.071 C 
ENDBRANCH  19  20
ENDBRANCH  18  19
ENDBRANCH  13  18
ENDBRANCH   1   8
BRANCH   4  26
HETATM   26  C   UNL     1      27.679  46.830  39.848  1.00  0.00     0.273 C 
BRANCH  26  27
HETATM   27  C   UNL     1      26.683  47.828  39.325  1.00  0.00    -0.030 A 
HETATM   28  C   UNL     1      25.392  47.888  39.892  1.00  0.00     0.048 A 
HETATM   29  C   UNL     1      24.449  48.802  39.420  1.00  0.00     0.102 A 
HETATM   30  C   UNL     1      24.818  49.681  38.400  1.00  0.00     0.099 A 
HETATM   31  C   UNL     1      26.081  49.636  37.823  1.00  0.00     0.040 A 
HETATM   32  C   UNL     1      27.012  48.700  38.274  1.00  0.00     0.012 A 
BRANCH  29  33
HETATM   33  O   UNL     1      23.166  48.942  39.878  1.00  0.00    -0.349 OA
BRANCH  33  34
HETATM   34  C   UNL     1      22.285  47.835  39.671  1.00  0.00     0.171 C 
HETATM   35  C   UNL     1      21.252  47.840  40.782  1.00  0.00     0.034 C 
ENDBRANCH  33  34
ENDBRANCH  29  33
BRANCH  30  36
HETATM   36  O   UNL     1      23.932  50.609  37.930  1.00  0.00    -0.358 OA
HETATM   37  H   UNL     1      24.175  51.453  38.360  1.00  0.00     0.218 HD
ENDBRANCH  30  36
ENDBRANCH  26  27
ENDBRANCH   4  26
TORSDOF 10
ENDMDL
MODEL 10
REMARK VINA RESULT:      -7.6     14.296     19.029
REMARK  10 active torsions:
REMARK  status: ('A' for Active; 'I' for Inactive)
REMARK    1  A    between atoms: C_2  and  C_3 
REMARK    2  A    between atoms: C_3  and  C_4 
REMARK    3  A    between atoms: N_7  and  C_9 
REMARK    4  A    between atoms: C_9  and  C_10 
REMARK    5  A    between atoms: C_12  and  O_13 
REMARK    6  A    between atoms: O_13  and  C_14 
REMARK    7  A    between atoms: C_16  and  O_17 
REMARK    8  A    between atoms: N_25  and  C_26 
REMARK    9  A    between atoms: C_26  and  C_27 
REMARK   10  A    between atoms: C_27  and  C_28 
ROOT
HETATM    1  C   UNL     1      33.881  50.721  40.772  1.00  0.00     0.026 C 
HETATM    2  C   UNL     1      35.162  49.858  40.774  1.00  0.00     0.035 C 
HETATM    3  C   UNL     1      36.397  50.548  41.341  1.00  0.00     0.235 C 
HETATM    4  N   UNL     1      36.641  51.858  40.633  1.00  0.00    -0.067 N 
HETATM    5  H   UNL     1      36.897  51.622  39.665  1.00  0.00     0.280 HD
HETATM    6  C   UNL     1      35.434  52.761  40.591  1.00  0.00     0.235 C 
HETATM    7  C   UNL     1      34.214  52.036  40.044  1.00  0.00     0.035 C 
ENDROOT
BRANCH   1   8
HETATM    8  C   UNL     1      33.162  50.870  42.165  1.00  0.00     0.119 A 
HETATM    9  N   UNL     1      32.623  49.621  42.645  1.00  0.00    -0.324 N 
HETATM   10  C   UNL     1      31.244  49.619  42.660  1.00  0.00     0.326 A 
HETATM   11  H   UNL     1      33.103  48.936  43.216  1.00  0.00     0.165 HD
HETATM   12  O   UNL     1      30.602  48.630  42.963  1.00  0.00    -0.247 OA
HETATM   13  N   UNL     1      30.795  50.827  42.233  1.00  0.00    -0.268 N 
HETATM   14  C   UNL     1      31.847  51.655  41.948  1.00  0.00     0.256 A 
HETATM   15  O   UNL     1      31.785  52.794  41.510  1.00  0.00    -0.270 OA
BRANCH   8  16
HETATM   16  C   UNL     1      34.042  51.559  43.226  1.00  0.00     0.037 C 
HETATM   17  C   UNL     1      33.318  51.942  44.515  1.00  0.00     0.008 C 
ENDBRANCH   8  16
BRANCH  13  18
HETATM   18  C   UNL     1      29.406  51.138  41.934  1.00  0.00     0.142 C 
BRANCH  18  19
HETATM   19  C   UNL     1      28.836  50.369  40.739  1.00  0.00     0.068 C 
BRANCH  19  20
HETATM   20  C   UNL     1      29.459  50.838  39.460  1.00  0.00     0.010 A 
HETATM   21  S   UNL     1      28.944  52.303  38.722  1.00  0.00    -0.085 SA
HETATM   22  C   UNL     1      30.049  52.032  37.444  1.00  0.00     0.166 A 
HETATM   23  N   UNL     1      30.772  50.939  37.532  1.00  0.00    -0.258 NA
HETATM   24  C   UNL     1      30.453  50.251  38.691  1.00  0.00     0.044 A 
HETATM   25  C   UNL     1      31.181  48.988  38.980  1.00  0.00     0.071 C 
ENDBRANCH  19  20
ENDBRANCH  18  19
ENDBRANCH  13  18
ENDBRANCH   1   8
BRANCH   4  26
HETATM   26  C   UNL     1      37.827  52.624  41.211  1.00  0.00     0.273 C 
BRANCH  26  27
HETATM   27  C   UNL     1      37.924  52.644  42.712  1.00  0.00    -0.030 A 
HETATM   28  C   UNL     1      38.808  51.759  43.365  1.00  0.00     0.048 A 
HETATM   29  C   UNL     1      38.912  51.755  44.757  1.00  0.00     0.102 A 
HETATM   30  C   UNL     1      38.152  52.669  45.489  1.00  0.00     0.099 A 
HETATM   31  C   UNL     1      37.271  53.545  44.867  1.00  0.00     0.040 A 
HETATM   32  C   UNL     1      37.145  53.525  43.478  1.00  0.00     0.012 A 
BRANCH  29  33
HETATM   33  O   UNL     1      39.719  50.936  45.500  1.00  0.00    -0.349 OA
BRANCH  33  34
HETATM   34  C   UNL     1      41.111  50.937  45.173  1.00  0.00     0.171 C 
HETATM   35  C   UNL     1      41.794  51.994  46.022  1.00  0.00     0.034 C 
ENDBRANCH  33  34
ENDBRANCH  29  33
BRANCH  30  36
HETATM   36  O   UNL     1      38.247  52.715  46.851  1.00  0.00    -0.358 OA
HETATM   37  H   UNL     1      37.636  53.422  47.138  1.00  0.00     0.218 HD
ENDBRANCH  30  36
ENDBRANCH  26  27
ENDBRANCH   4  26
TORSDOF 10
ENDMDL
