MODEL 1
REMARK VINA RESULT:      -9.6      0.000      0.000
REMARK  12 active torsions:
REMARK  status: ('A' for Active; 'I' for Inactive)
REMARK    1  A    between atoms: C_2  and  N_3 
REMARK    2  A    between atoms: N_3  and  C_5 
REMARK    3  A    between atoms: N_3  and  C_37 
REMARK    4  A    between atoms: C_5  and  C_6 
REMARK    5  A    between atoms: C_6  and  C_7 
REMARK    6  A    between atoms: C_7  and  N_8 
REMARK    7  A    between atoms: N_8  and  C_9 
REMARK    8  A    between atoms: C_9  and  N_10 
REMARK    9  A    between atoms: N_10  and  C_11 
REMARK   10  A    between atoms: N_10  and  C_26 
REMARK   11  A    between atoms: C_11  and  C_12 
REMARK   12  A    between atoms: C_26  and  C_27 
ROOT
HETATM    1  N   UNL     1      25.729  45.776  50.822  1.00  0.00    -0.350 N 
ENDROOT
BRANCH   1   2
HETATM    2  C   UNL     1      25.258  44.821  49.901  1.00  0.00     0.170 C 
HETATM    3  S   UNL     1      23.635  44.524  49.572  1.00  0.00    -0.041 SA
BRANCH   2   4
HETATM    4  N   UNL     1      26.264  44.146  49.227  1.00  0.00    -0.367 N 
HETATM    5  H   UNL     1      27.036  44.719  48.906  1.00  0.00     0.161 HD
BRANCH   4   6
HETATM    6  C   UNL     1      26.525  42.718  49.315  1.00  0.00     0.123 C 
BRANCH   6   7
HETATM    7  C   UNL     1      26.279  42.191  50.725  1.00  0.00     0.047 C 
BRANCH   7   8
HETATM    8  C   UNL     1      26.339  40.670  50.730  1.00  0.00     0.236 C 
BRANCH   8   9
HETATM    9  N   UNL     1      27.717  40.129  51.082  1.00  0.00    -0.072 N 
HETATM   10  H   UNL     1      27.542  39.313  51.684  1.00  0.00     0.279 HD
BRANCH   9  11
HETATM   11  C   UNL     1      28.572  41.069  51.918  1.00  0.00     0.230 C 
HETATM   12  C   UNL     1      28.484  40.737  53.397  1.00  0.00     0.034 C 
ENDBRANCH   9  11
BRANCH   9  13
HETATM   13  C   UNL     1      28.517  39.596  49.904  1.00  0.00     0.230 C 
HETATM   14  C   UNL     1      29.180  38.270  50.230  1.00  0.00     0.034 C 
ENDBRANCH   9  13
ENDBRANCH   8   9
ENDBRANCH   7   8
ENDBRANCH   6   7
ENDBRANCH   4   6
ENDBRANCH   2   4
ENDBRANCH   1   2
BRANCH   1  15
HETATM   15  C   UNL     1      25.189  45.907  52.189  1.00  0.00     0.169 C 
BRANCH  15  16
HETATM   16  C   UNL     1      26.260  45.864  53.248  1.00  0.00     0.029 A 
HETATM   17  C   UNL     1      26.330  47.044  54.164  1.00  0.00     0.253 A 
HETATM   18  O   UNL     1      25.467  47.921  54.159  1.00  0.00    -0.268 OA
HETATM   19  N   UNL     1      27.367  47.096  55.055  1.00  0.00    -0.322 N 
HETATM   20  C   UNL     1      28.286  46.055  55.235  1.00  0.00     0.048 A 
HETATM   21  H   UNL     1      27.434  47.931  55.618  1.00  0.00     0.169 HD
HETATM   22  C   UNL     1      28.173  44.898  54.433  1.00  0.00    -0.006 A 
HETATM   23  C   UNL     1      29.273  46.171  56.214  1.00  0.00     0.070 A 
HETATM   24  C   UNL     1      29.061  43.834  54.618  1.00  0.00     0.053 A 
HETATM   25  C   UNL     1      27.130  44.850  53.408  1.00  0.00     0.028 A 
HETATM   26  C   UNL     1      30.024  43.967  55.597  1.00  0.00     0.106 A 
HETATM   27  C   UNL     1      30.127  45.101  56.371  1.00  0.00     0.107 A 
HETATM   28  O   UNL     1      30.962  43.037  55.920  1.00  0.00    -0.323 OA
HETATM   29  O   UNL     1      31.136  45.021  57.278  1.00  0.00    -0.323 OA
HETATM   30  C   UNL     1      31.679  43.718  56.971  1.00  0.00     0.352 A 
ENDBRANCH  15  16
ENDBRANCH   1  15
BRANCH   1  31
HETATM   31  C   UNL     1      26.621  46.877  50.394  1.00  0.00     0.164 C 
BRANCH  31  32
HETATM   32  C   UNL     1      25.938  47.972  49.603  1.00  0.00    -0.037 A 
HETATM   33  C   UNL     1      24.537  48.047  49.527  1.00  0.00     0.048 A 
HETATM   34  C   UNL     1      23.974  49.062  48.778  1.00  0.00     0.105 A 
HETATM   35  C   UNL     1      24.742  49.980  48.104  1.00  0.00     0.105 A 
HETATM   36  O   UNL     1      22.642  49.279  48.612  1.00  0.00    -0.323 OA
HETATM   37  O   UNL     1      23.992  50.888  47.425  1.00  0.00    -0.323 OA
HETATM   38  C   UNL     1      26.115  49.935  48.137  1.00  0.00     0.040 A 
HETATM   39  C   UNL     1      22.662  50.425  47.733  1.00  0.00     0.352 A 
HETATM   40  C   UNL     1      26.713  48.920  48.891  1.00  0.00     0.012 A 
ENDBRANCH  31  32
ENDBRANCH   1  31
TORSDOF 12
ENDMDL
MODEL 2
REMARK VINA RESULT:      -8.7      2.499      4.492
REMARK  12 active torsions:
REMARK  status: ('A' for Active; 'I' for Inactive)
REMARK    1  A    between atoms: C_2  and  N_3 
REMARK    2  A    between atoms: N_3  and  C_5 
REMARK    3  A    between atoms: N_3  and  C_37 
REMARK    4  A    between atoms: C_5  and  C_6 
REMARK    5  A    between atoms: C_6  and  C_7 
REMARK    6  A    between atoms: C_7  and  N_8 
REMARK    7  A    between atoms: N_8  and  C_9 
REMARK    8  A    between atoms: C_9  and  N_10 
REMARK    9  A    between atoms: N_10  and  C_11 
REMARK   10  A    between atoms: N_10  and  C_26 
REMARK   11  A    between atoms: C_11  and  C_12 
REMARK   12  A    between atoms: C_26  and  C_27 
ROOT
HETATM    1  N   UNL     1      25.821  46.022  51.131  1.00  0.00    -0.350 N 
ENDROOT
BRANCH   1   2
HETATM    2  C   UNL     1      25.243  44.879  50.546  1.00  0.00     0.170 C 
HETATM    3  S   UNL     1      26.101  43.672  49.748  1.00  0.00    -0.041 SA
BRANCH   2   4
HETATM    4  N   UNL     1      23.869  44.794  50.716  1.00  0.00    -0.367 N 
HETATM    5  H   UNL     1      23.461  45.488  51.332  1.00  0.00     0.161 HD
BRANCH   4   6
HETATM    6  C   UNL     1      22.948  44.126  49.810  1.00  0.00     0.123 C 
BRANCH   6   7
HETATM    7  C   UNL     1      22.387  45.093  48.772  1.00  0.00     0.047 C 
BRANCH   7   8
HETATM    8  C   UNL     1      21.718  44.317  47.647  1.00  0.00     0.236 C 
BRANCH   8   9
HETATM    9  N   UNL     1      20.490  45.020  47.087  1.00  0.00    -0.072 N 
HETATM   10  H   UNL     1      19.942  45.306  47.909  1.00  0.00     0.279 HD
BRANCH   9  11
HETATM   11  C   UNL     1      19.562  44.125  46.277  1.00  0.00     0.230 C 
HETATM   12  C   UNL     1      20.253  42.842  45.854  1.00  0.00     0.034 C 
ENDBRANCH   9  11
BRANCH   9  13
HETATM   13  C   UNL     1      20.776  46.306  46.327  1.00  0.00     0.230 C 
HETATM   14  C   UNL     1      19.867  46.460  45.121  1.00  0.00     0.034 C 
ENDBRANCH   9  13
ENDBRANCH   8   9
ENDBRANCH   7   8
ENDBRANCH   6   7
ENDBRANCH   4   6
ENDBRANCH   2   4
ENDBRANCH   1   2
BRANCH   1  15
HETATM   15  C   UNL     1      25.406  46.549  52.445  1.00  0.00     0.169 C 
BRANCH  15  16
HETATM   16  C   UNL     1      26.439  46.326  53.518  1.00  0.00     0.029 A 
HETATM   17  C   UNL     1      26.496  47.354  54.603  1.00  0.00     0.253 A 
HETATM   18  O   UNL     1      25.646  48.238  54.704  1.00  0.00    -0.268 OA
HETATM   19  N   UNL     1      27.503  47.253  55.523  1.00  0.00    -0.322 N 
HETATM   20  C   UNL     1      28.400  46.180  55.573  1.00  0.00     0.048 A 
HETATM   21  H   UNL     1      27.563  47.993  56.207  1.00  0.00     0.169 HD
HETATM   22  C   UNL     1      28.298  45.158  54.604  1.00  0.00    -0.006 A 
HETATM   23  C   UNL     1      29.355  46.128  56.589  1.00  0.00     0.070 A 
HETATM   24  C   UNL     1      29.165  44.062  54.653  1.00  0.00     0.053 A 
HETATM   25  C   UNL     1      27.290  45.284  53.551  1.00  0.00     0.028 A 
HETATM   26  C   UNL     1      30.096  44.028  55.671  1.00  0.00     0.106 A 
HETATM   27  C   UNL     1      30.189  45.031  56.609  1.00  0.00     0.107 A 
HETATM   28  O   UNL     1      31.010  43.042  55.879  1.00  0.00    -0.323 OA
HETATM   29  O   UNL     1      31.166  44.797  57.524  1.00  0.00    -0.323 OA
HETATM   30  C   UNL     1      31.701  43.545  57.042  1.00  0.00     0.352 A 
ENDBRANCH  15  16
ENDBRANCH   1  15
BRANCH   1  31
HETATM   31  C   UNL     1      26.707  46.915  50.351  1.00  0.00     0.164 C 
BRANCH  31  32
HETATM   32  C   UNL     1      25.986  47.984  49.559  1.00  0.00    -0.037 A 
HETATM   33  C   UNL     1      24.584  47.996  49.461  1.00  0.00     0.048 A 
HETATM   34  C   UNL     1      23.986  48.990  48.712  1.00  0.00     0.105 A 
HETATM   35  C   UNL     1      24.721  49.949  48.057  1.00  0.00     0.105 A 
HETATM   36  O   UNL     1      22.649  49.147  48.527  1.00  0.00    -0.323 OA
HETATM   37  O   UNL     1      23.940  50.827  47.375  1.00  0.00    -0.323 OA
HETATM   38  C   UNL     1      26.094  49.967  48.112  1.00  0.00     0.040 A 
HETATM   39  C   UNL     1      22.628  50.301  47.658  1.00  0.00     0.352 A 
HETATM   40  C   UNL     1      26.727  48.974  48.866  1.00  0.00     0.012 A 
ENDBRANCH  31  32
ENDBRANCH   1  31
TORSDOF 12
ENDMDL
MODEL 3
REMARK VINA RESULT:      -8.6      3.019      6.912
REMARK  12 active torsions:
REMARK  status: ('A' for Active; 'I' for Inactive)
REMARK    1  A    between atoms: C_2  and  N_3 
REMARK    2  A    between atoms: N_3  and  C_5 
REMARK    3  A    between atoms: N_3  and  C_37 
REMARK    4  A    between atoms: C_5  and  C_6 
REMARK    5  A    between atoms: C_6  and  C_7 
REMARK    6  A    between atoms: C_7  and  N_8 
REMARK    7  A    between atoms: N_8  and  C_9 
REMARK    8  A    between atoms: C_9  and  N_10 
REMARK    9  A    between atoms: N_10  and  C_11 
REMARK   10  A    between atoms: N_10  and  C_26 
REMARK   11  A    between atoms: C_11  and  C_12 
REMARK   12  A    between atoms: C_26  and  C_27 
ROOT
HETATM    1  N   UNL     1      25.389  45.992  50.563  1.00  0.00    -0.350 N 
ENDROOT
BRANCH   1   2
HETATM    2  C   UNL     1      25.087  47.291  50.111  1.00  0.00     0.170 C 
HETATM    3  S   UNL     1      26.212  48.373  49.483  1.00  0.00    -0.041 SA
BRANCH   2   4
HETATM    4  N   UNL     1      23.740  47.613  50.182  1.00  0.00    -0.367 N 
HETATM    5  H   UNL     1      23.389  47.821  51.110  1.00  0.00     0.161 HD
BRANCH   4   6
HETATM    6  C   UNL     1      22.929  48.088  49.072  1.00  0.00     0.123 C 
BRANCH   6   7
HETATM    7  C   UNL     1      22.521  49.546  49.263  1.00  0.00     0.047 C 
BRANCH   7   8
HETATM    8  C   UNL     1      21.051  49.725  48.912  1.00  0.00     0.236 C 
BRANCH   8   9
HETATM    9  N   UNL     1      20.197  50.121  50.108  1.00  0.00    -0.072 N 
HETATM   10  H   UNL     1      20.850  50.172  50.902  1.00  0.00     0.279 HD
BRANCH   9  11
HETATM   11  C   UNL     1      19.153  49.090  50.511  1.00  0.00     0.230 C 
HETATM   12  C   UNL     1      19.039  47.979  49.482  1.00  0.00     0.034 C 
ENDBRANCH   9  11
BRANCH   9  13
HETATM   13  C   UNL     1      19.566  51.502  50.017  1.00  0.00     0.230 C 
HETATM   14  C   UNL     1      19.584  52.034  48.595  1.00  0.00     0.034 C 
ENDBRANCH   9  13
ENDBRANCH   8   9
ENDBRANCH   7   8
ENDBRANCH   6   7
ENDBRANCH   4   6
ENDBRANCH   2   4
ENDBRANCH   1   2
BRANCH   1  15
HETATM   15  C   UNL     1      24.972  45.486  51.885  1.00  0.00     0.169 C 
BRANCH  15  16
HETATM   16  C   UNL     1      26.075  45.549  52.910  1.00  0.00     0.029 A 
HETATM   17  C   UNL     1      26.222  46.845  53.641  1.00  0.00     0.253 A 
HETATM   18  O   UNL     1      25.396  47.749  53.532  1.00  0.00    -0.268 OA
HETATM   19  N   UNL     1      27.290  46.980  54.486  1.00  0.00    -0.322 N 
HETATM   20  C   UNL     1      28.172  45.937  54.792  1.00  0.00     0.048 A 
HETATM   21  H   UNL     1      27.409  47.884  54.919  1.00  0.00     0.169 HD
HETATM   22  C   UNL     1      27.986  44.682  54.172  1.00  0.00    -0.006 A 
HETATM   23  C   UNL     1      29.194  46.150  55.717  1.00  0.00     0.070 A 
HETATM   24  C   UNL     1      28.838  43.618  54.486  1.00  0.00     0.053 A 
HETATM   25  C   UNL     1      26.909  44.532  53.193  1.00  0.00     0.028 A 
HETATM   26  C   UNL     1      29.837  43.849  55.409  1.00  0.00     0.106 A 
HETATM   27  C   UNL     1      30.010  45.077  56.005  1.00  0.00     0.107 A 
HETATM   28  O   UNL     1      30.748  42.935  55.839  1.00  0.00    -0.323 OA
HETATM   29  O   UNL     1      31.045  45.085  56.886  1.00  0.00    -0.323 OA
HETATM   30  C   UNL     1      31.526  43.729  56.759  1.00  0.00     0.352 A 
ENDBRANCH  15  16
ENDBRANCH   1  15
BRANCH   1  31
HETATM   31  C   UNL     1      26.360  45.138  49.844  1.00  0.00     0.164 C 
BRANCH  31  32
HETATM   32  C   UNL     1      25.787  43.845  49.306  1.00  0.00    -0.037 A 
HETATM   33  C   UNL     1      24.517  43.807  48.706  1.00  0.00     0.048 A 
HETATM   34  C   UNL     1      24.044  42.594  48.247  1.00  0.00     0.105 A 
HETATM   35  C   UNL     1      24.771  41.435  48.372  1.00  0.00     0.105 A 
HETATM   36  O   UNL     1      22.846  42.390  47.637  1.00  0.00    -0.323 OA
HETATM   37  O   UNL     1      24.122  40.355  47.861  1.00  0.00    -0.323 OA
HETATM   38  C   UNL     1      26.011  41.422  48.966  1.00  0.00     0.040 A 
HETATM   39  C   UNL     1      22.893  40.963  47.417  1.00  0.00     0.352 A 
HETATM   40  C   UNL     1      26.516  42.638  49.437  1.00  0.00     0.012 A 
ENDBRANCH  31  32
ENDBRANCH   1  31
TORSDOF 12
ENDMDL
MODEL 4
REMARK VINA RESULT:      -8.5      2.217      7.697
REMARK  12 active torsions:
REMARK  status: ('A' for Active; 'I' for Inactive)
REMARK    1  A    between atoms: C_2  and  N_3 
REMARK    2  A    between atoms: N_3  and  C_5 
REMARK    3  A    between atoms: N_3  and  C_37 
REMARK    4  A    between atoms: C_5  and  C_6 
REMARK    5  A    between atoms: C_6  and  C_7 
REMARK    6  A    between atoms: C_7  and  N_8 
REMARK    7  A    between atoms: N_8  and  C_9 
REMARK    8  A    between atoms: C_9  and  N_10 
REMARK    9  A    between atoms: N_10  and  C_11 
REMARK   10  A    between atoms: N_10  and  C_26 
REMARK   11  A    between atoms: C_11  and  C_12 
REMARK   12  A    between atoms: C_26  and  C_27 
ROOT
HETATM    1  N   UNL     1      27.092  43.318  52.808  1.00  0.00    -0.350 N 
ENDROOT
BRANCH   1   2
HETATM    2  C   UNL     1      27.440  42.037  52.338  1.00  0.00     0.170 C 
HETATM    3  S   UNL     1      28.610  41.047  53.031  1.00  0.00    -0.041 SA
BRANCH   2   4
HETATM    4  N   UNL     1      26.693  41.615  51.249  1.00  0.00    -0.367 N 
HETATM    5  H   UNL     1      25.723  41.394  51.444  1.00  0.00     0.161 HD
BRANCH   4   6
HETATM    6  C   UNL     1      27.021  41.866  49.855  1.00  0.00     0.123 C 
BRANCH   6   7
HETATM    7  C   UNL     1      27.367  40.574  49.121  1.00  0.00     0.047 C 
BRANCH   7   8
HETATM    8  C   UNL     1      26.640  39.401  49.763  1.00  0.00     0.236 C 
BRANCH   8   9
HETATM    9  N   UNL     1      27.581  38.305  50.239  1.00  0.00    -0.072 N 
HETATM   10  H   UNL     1      27.466  38.272  51.261  1.00  0.00     0.279 HD
BRANCH   9  11
HETATM   11  C   UNL     1      29.058  38.594  50.011  1.00  0.00     0.230 C 
HETATM   12  C   UNL     1      29.940  37.728  50.891  1.00  0.00     0.034 C 
ENDBRANCH   9  11
BRANCH   9  13
HETATM   13  C   UNL     1      27.237  36.906  49.751  1.00  0.00     0.230 C 
HETATM   14  C   UNL     1      26.813  36.909  48.294  1.00  0.00     0.034 C 
ENDBRANCH   9  13
ENDBRANCH   8   9
ENDBRANCH   7   8
ENDBRANCH   6   7
ENDBRANCH   4   6
ENDBRANCH   2   4
ENDBRANCH   1   2
BRANCH   1  15
HETATM   15  C   UNL     1      25.706  43.707  53.128  1.00  0.00     0.169 C 
BRANCH  15  16
HETATM   16  C   UNL     1      25.057  44.518  52.036  1.00  0.00     0.029 A 
HETATM   17  C   UNL     1      24.150  43.773  51.111  1.00  0.00     0.253 A 
HETATM   18  O   UNL     1      23.824  42.606  51.322  1.00  0.00    -0.268 OA
HETATM   19  N   UNL     1      23.645  44.450  50.034  1.00  0.00    -0.322 N 
HETATM   20  C   UNL     1      23.833  45.821  49.825  1.00  0.00     0.048 A 
HETATM   21  H   UNL     1      23.089  43.912  49.386  1.00  0.00     0.169 HD
HETATM   22  C   UNL     1      24.617  46.552  50.744  1.00  0.00    -0.006 A 
HETATM   23  C   UNL     1      23.225  46.440  48.732  1.00  0.00     0.070 A 
HETATM   24  C   UNL     1      24.793  47.928  50.570  1.00  0.00     0.053 A 
HETATM   25  C   UNL     1      25.248  45.838  51.855  1.00  0.00     0.028 A 
HETATM   26  C   UNL     1      24.176  48.520  49.488  1.00  0.00     0.106 A 
HETATM   27  C   UNL     1      23.416  47.798  48.596  1.00  0.00     0.107 A 
HETATM   28  O   UNL     1      24.229  49.841  49.167  1.00  0.00    -0.323 OA
HETATM   29  O   UNL     1      22.894  48.575  47.610  1.00  0.00    -0.323 OA
HETATM   30  C   UNL     1      23.433  49.867  47.964  1.00  0.00     0.352 A 
ENDBRANCH  15  16
ENDBRANCH   1  15
BRANCH   1  31
HETATM   31  C   UNL     1      28.061  44.436  52.769  1.00  0.00     0.164 C 
BRANCH  31  32
HETATM   32  C   UNL     1      28.532  44.911  54.126  1.00  0.00    -0.037 A 
HETATM   33  C   UNL     1      29.545  44.231  54.823  1.00  0.00     0.048 A 
HETATM   34  C   UNL     1      29.921  44.707  56.064  1.00  0.00     0.105 A 
HETATM   35  C   UNL     1      29.328  45.807  56.632  1.00  0.00     0.105 A 
HETATM   36  O   UNL     1      30.886  44.171  56.858  1.00  0.00    -0.323 OA
HETATM   37  O   UNL     1      29.840  46.102  57.856  1.00  0.00    -0.323 OA
HETATM   38  C   UNL     1      28.322  46.494  55.994  1.00  0.00     0.040 A 
HETATM   39  C   UNL     1      30.812  45.049  58.004  1.00  0.00     0.352 A 
HETATM   40  C   UNL     1      27.923  46.037  54.734  1.00  0.00     0.012 A 
ENDBRANCH  31  32
ENDBRANCH   1  31
TORSDOF 12
ENDMDL
MODEL 5
REMARK VINA RESULT:      -8.5      2.581      6.894
REMARK  12 active torsions:
REMARK  status: ('A' for Active; 'I' for Inactive)
REMARK    1  A    between atoms: C_2  and  N_3 
REMARK    2  A    between atoms: N_3  and  C_5 
REMARK    3  A    between atoms: N_3  and  C_37 
REMARK    4  A    between atoms: C_5  and  C_6 
REMARK    5  A    between atoms: C_6  and  C_7 
REMARK    6  A    between atoms: C_7  and  N_8 
REMARK    7  A    between atoms: N_8  and  C_9 
REMARK    8  A    between atoms: C_9  and  N_10 
REMARK    9  A    between atoms: N_10  and  C_11 
REMARK   10  A    between atoms: N_10  and  C_26 
REMARK   11  A    between atoms: C_11  and  C_12 
REMARK   12  A    between atoms: C_26  and  C_27 
ROOT
HETATM    1  N   UNL     1      25.420  45.783  51.711  1.00  0.00    -0.350 N 
ENDROOT
BRANCH   1   2
HETATM    2  C   UNL     1      25.839  45.836  50.367  1.00  0.00     0.170 C 
HETATM    3  S   UNL     1      27.441  45.955  49.866  1.00  0.00    -0.041 SA
BRANCH   2   4
HETATM    4  N   UNL     1      24.804  45.736  49.451  1.00  0.00    -0.367 N 
HETATM    5  H   UNL     1      24.752  44.860  48.943  1.00  0.00     0.161 HD
BRANCH   4   6
HETATM    6  C   UNL     1      23.591  46.540  49.460  1.00  0.00     0.123 C 
BRANCH   6   7
HETATM    7  C   UNL     1      23.908  48.028  49.560  1.00  0.00     0.047 C 
BRANCH   7   8
HETATM    8  C   UNL     1      22.886  48.832  48.769  1.00  0.00     0.236 C 
BRANCH   8   9
HETATM    9  N   UNL     1      21.714  49.305  49.617  1.00  0.00    -0.072 N 
HETATM   10  H   UNL     1      21.920  48.978  50.570  1.00  0.00     0.279 HD
BRANCH   9  11
HETATM   11  C   UNL     1      20.377  48.674  49.256  1.00  0.00     0.230 C 
HETATM   12  C   UNL     1      20.434  47.977  47.909  1.00  0.00     0.034 C 
ENDBRANCH   9  11
BRANCH   9  13
HETATM   13  C   UNL     1      21.571  50.814  49.730  1.00  0.00     0.230 C 
HETATM   14  C   UNL     1      20.114  51.236  49.802  1.00  0.00     0.034 C 
ENDBRANCH   9  13
ENDBRANCH   8   9
ENDBRANCH   7   8
ENDBRANCH   6   7
ENDBRANCH   4   6
ENDBRANCH   2   4
ENDBRANCH   1   2
BRANCH   1  15
HETATM   15  C   UNL     1      25.634  46.891  52.662  1.00  0.00     0.169 C 
BRANCH  15  16
HETATM   16  C   UNL     1      26.631  46.554  53.740  1.00  0.00     0.029 A 
HETATM   17  C   UNL     1      26.639  47.451  54.936  1.00  0.00     0.253 A 
HETATM   18  O   UNL     1      25.777  48.312  55.106  1.00  0.00    -0.268 OA
HETATM   19  N   UNL     1      27.614  47.251  55.874  1.00  0.00    -0.322 N 
HETATM   20  C   UNL     1      28.520  46.185  55.833  1.00  0.00     0.048 A 
HETATM   21  H   UNL     1      27.642  47.908  56.641  1.00  0.00     0.169 HD
HETATM   22  C   UNL     1      28.463  45.281  54.750  1.00  0.00    -0.006 A 
HETATM   23  C   UNL     1      29.440  46.024  56.871  1.00  0.00     0.070 A 
HETATM   24  C   UNL     1      29.340  44.192  54.705  1.00  0.00     0.053 A 
HETATM   25  C   UNL     1      27.492  45.521  53.683  1.00  0.00     0.028 A 
HETATM   26  C   UNL     1      30.235  44.048  55.745  1.00  0.00     0.106 A 
HETATM   27  C   UNL     1      30.284  44.937  56.795  1.00  0.00     0.107 A 
HETATM   28  O   UNL     1      31.151  43.051  55.872  1.00  0.00    -0.323 OA
HETATM   29  O   UNL     1      31.231  44.606  57.712  1.00  0.00    -0.323 OA
HETATM   30  C   UNL     1      31.795  43.421  57.110  1.00  0.00     0.352 A 
ENDBRANCH  15  16
ENDBRANCH   1  15
BRANCH   1  31
HETATM   31  C   UNL     1      24.966  44.514  52.321  1.00  0.00     0.164 C 
BRANCH  31  32
HETATM   32  C   UNL     1      25.484  43.266  51.642  1.00  0.00    -0.037 A 
HETATM   33  C   UNL     1      26.783  42.790  51.889  1.00  0.00     0.048 A 
HETATM   34  C   UNL     1      27.203  41.652  51.228  1.00  0.00     0.105 A 
HETATM   35  C   UNL     1      26.396  40.990  50.335  1.00  0.00     0.105 A 
HETATM   36  O   UNL     1      28.419  41.060  51.363  1.00  0.00    -0.323 OA
HETATM   37  O   UNL     1      27.002  39.902  49.792  1.00  0.00    -0.323 OA
HETATM   38  C   UNL     1      25.125  41.429  50.050  1.00  0.00     0.040 A 
HETATM   39  C   UNL     1      28.293  39.964  50.432  1.00  0.00     0.352 A 
HETATM   40  C   UNL     1      24.672  42.577  50.708  1.00  0.00     0.012 A 
ENDBRANCH  31  32
ENDBRANCH   1  31
TORSDOF 12
ENDMDL
MODEL 6
REMARK VINA RESULT:      -8.5      2.659      7.429
REMARK  12 active torsions:
REMARK  status: ('A' for Active; 'I' for Inactive)
REMARK    1  A    between atoms: C_2  and  N_3 
REMARK    2  A    between atoms: N_3  and  C_5 
REMARK    3  A    between atoms: N_3  and  C_37 
REMARK    4  A    between atoms: C_5  and  C_6 
REMARK    5  A    between atoms: C_6  and  C_7 
REMARK    6  A    between atoms: C_7  and  N_8 
REMARK    7  A    between atoms: N_8  and  C_9 
REMARK    8  A    between atoms: C_9  and  N_10 
REMARK    9  A    between atoms: N_10  and  C_11 
REMARK   10  A    between atoms: N_10  and  C_26 
REMARK   11  A    between atoms: C_11  and  C_12 
REMARK   12  A    between atoms: C_26  and  C_27 
ROOT
HETATM    1  N   UNL     1      25.346  43.443  50.618  1.00  0.00    -0.350 N 
ENDROOT
BRANCH   1   2
HETATM    2  C   UNL     1      24.143  43.887  50.035  1.00  0.00     0.170 C 
HETATM    3  S   UNL     1      23.068  42.907  49.189  1.00  0.00    -0.041 SA
BRANCH   2   4
HETATM    4  N   UNL     1      23.875  45.231  50.251  1.00  0.00    -0.367 N 
HETATM    5  H   UNL     1      24.314  45.638  51.069  1.00  0.00     0.161 HD
BRANCH   4   6
HETATM    6  C   UNL     1      23.415  46.170  49.241  1.00  0.00     0.123 C 
BRANCH   6   7
HETATM    7  C   UNL     1      23.768  47.607  49.612  1.00  0.00     0.047 C 
BRANCH   7   8
HETATM    8  C   UNL     1      22.876  48.575  48.848  1.00  0.00     0.236 C 
BRANCH   8   9
HETATM    9  N   UNL     1      21.596  48.923  49.594  1.00  0.00    -0.072 N 
HETATM   10  H   UNL     1      21.717  48.529  50.537  1.00  0.00     0.279 HD
BRANCH   9  11
HETATM   11  C   UNL     1      20.341  48.263  49.041  1.00  0.00     0.230 C 
HETATM   12  C   UNL     1      19.160  48.437  49.977  1.00  0.00     0.034 C 
ENDBRANCH   9  11
BRANCH   9  13
HETATM   13  C   UNL     1      21.359  50.410  49.806  1.00  0.00     0.230 C 
HETATM   14  C   UNL     1      21.258  51.155  48.488  1.00  0.00     0.034 C 
ENDBRANCH   9  13
ENDBRANCH   8   9
ENDBRANCH   7   8
ENDBRANCH   6   7
ENDBRANCH   4   6
ENDBRANCH   2   4
ENDBRANCH   1   2
BRANCH   1  15
HETATM   15  C   UNL     1      26.604  44.211  50.545  1.00  0.00     0.169 C 
BRANCH  15  16
HETATM   16  C   UNL     1      27.220  44.456  51.898  1.00  0.00     0.029 A 
HETATM   17  C   UNL     1      26.619  45.561  52.706  1.00  0.00     0.253 A 
HETATM   18  O   UNL     1      25.584  46.128  52.360  1.00  0.00    -0.268 OA
HETATM   19  N   UNL     1      27.233  45.894  53.883  1.00  0.00    -0.322 N 
HETATM   20  C   UNL     1      28.309  45.181  54.423  1.00  0.00     0.048 A 
HETATM   21  H   UNL     1      26.851  46.685  54.381  1.00  0.00     0.169 HD
HETATM   22  C   UNL     1      28.827  44.079  53.707  1.00  0.00    -0.006 A 
HETATM   23  C   UNL     1      28.829  45.554  55.663  1.00  0.00     0.070 A 
HETATM   24  C   UNL     1      29.883  43.335  54.243  1.00  0.00     0.053 A 
HETATM   25  C   UNL     1      28.253  43.755  52.401  1.00  0.00     0.028 A 
HETATM   26  C   UNL     1      30.376  43.717  55.473  1.00  0.00     0.106 A 
HETATM   27  C   UNL     1      29.865  44.795  56.161  1.00  0.00     0.107 A 
HETATM   28  O   UNL     1      31.389  43.110  56.147  1.00  0.00    -0.323 OA
HETATM   29  O   UNL     1      30.489  44.993  57.353  1.00  0.00    -0.323 OA
HETATM   30  C   UNL     1      31.472  43.935  57.328  1.00  0.00     0.352 A 
ENDBRANCH  15  16
ENDBRANCH   1  15
BRANCH   1  31
HETATM   31  C   UNL     1      25.486  42.060  51.123  1.00  0.00     0.164 C 
BRANCH  31  32
HETATM   32  C   UNL     1      26.380  41.170  50.288  1.00  0.00    -0.037 A 
HETATM   33  C   UNL     1      27.403  40.408  50.878  1.00  0.00     0.048 A 
HETATM   34  C   UNL     1      28.195  39.626  50.061  1.00  0.00     0.105 A 
HETATM   35  C   UNL     1      28.018  39.586  48.699  1.00  0.00     0.105 A 
HETATM   36  O   UNL     1      29.214  38.827  50.474  1.00  0.00    -0.323 OA
HETATM   37  O   UNL     1      28.905  38.760  48.083  1.00  0.00    -0.323 OA
HETATM   38  C   UNL     1      27.041  40.327  48.077  1.00  0.00     0.040 A 
HETATM   39  C   UNL     1      29.675  38.299  49.211  1.00  0.00     0.352 A 
HETATM   40  C   UNL     1      26.222  41.125  48.881  1.00  0.00     0.012 A 
ENDBRANCH  31  32
ENDBRANCH   1  31
TORSDOF 12
ENDMDL
MODEL 7
REMARK VINA RESULT:      -8.4      1.833      7.962
REMARK  12 active torsions:
REMARK  status: ('A' for Active; 'I' for Inactive)
REMARK    1  A    between atoms: C_2  and  N_3 
REMARK    2  A    between atoms: N_3  and  C_5 
REMARK    3  A    between atoms: N_3  and  C_37 
REMARK    4  A    between atoms: C_5  and  C_6 
REMARK    5  A    between atoms: C_6  and  C_7 
REMARK    6  A    between atoms: C_7  and  N_8 
REMARK    7  A    between atoms: N_8  and  C_9 
REMARK    8  A    between atoms: C_9  and  N_10 
REMARK    9  A    between atoms: N_10  and  C_11 
REMARK   10  A    between atoms: N_10  and  C_26 
REMARK   11  A    between atoms: C_11  and  C_12 
REMARK   12  A    between atoms: C_26  and  C_27 
ROOT
HETATM    1  N   UNL     1      25.826  45.112  51.312  1.00  0.00    -0.350 N 
ENDROOT
BRANCH   1   2
HETATM    2  C   UNL     1      25.703  43.803  50.809  1.00  0.00     0.170 C 
HETATM    3  S   UNL     1      24.245  42.985  50.610  1.00  0.00    -0.041 SA
BRANCH   2   4
HETATM    4  N   UNL     1      26.908  43.227  50.436  1.00  0.00    -0.367 N 
HETATM    5  H   UNL     1      27.395  43.687  49.675  1.00  0.00     0.161 HD
BRANCH   4   6
HETATM    6  C   UNL     1      27.712  42.345  51.267  1.00  0.00     0.123 C 
BRANCH   6   7
HETATM    7  C   UNL     1      27.271  40.892  51.129  1.00  0.00     0.047 C 
BRANCH   7   8
HETATM    8  C   UNL     1      28.226  40.143  50.211  1.00  0.00     0.236 C 
BRANCH   8   9
HETATM    9  N   UNL     1      27.967  38.644  50.174  1.00  0.00    -0.072 N 
HETATM   10  H   UNL     1      27.428  38.441  51.027  1.00  0.00     0.279 HD
BRANCH   9  11
HETATM   11  C   UNL     1      29.217  37.782  50.274  1.00  0.00     0.230 C 
HETATM   12  C   UNL     1      30.284  38.231  49.292  1.00  0.00     0.034 C 
ENDBRANCH   9  11
BRANCH   9  13
HETATM   13  C   UNL     1      27.091  38.172  49.024  1.00  0.00     0.230 C 
HETATM   14  C   UNL     1      26.652  36.731  49.209  1.00  0.00     0.034 C 
ENDBRANCH   9  13
ENDBRANCH   8   9
ENDBRANCH   7   8
ENDBRANCH   6   7
ENDBRANCH   4   6
ENDBRANCH   2   4
ENDBRANCH   1   2
BRANCH   1  15
HETATM   15  C   UNL     1      26.514  46.192  50.578  1.00  0.00     0.169 C 
BRANCH  15  16
HETATM   16  C   UNL     1      25.559  47.130  49.886  1.00  0.00     0.029 A 
HETATM   17  C   UNL     1      26.143  48.409  49.377  1.00  0.00     0.253 A 
HETATM   18  O   UNL     1      27.356  48.613  49.376  1.00  0.00    -0.268 OA
HETATM   19  N   UNL     1      25.283  49.339  48.857  1.00  0.00    -0.322 N 
HETATM   20  C   UNL     1      23.916  49.107  48.668  1.00  0.00     0.048 A 
HETATM   21  H   UNL     1      25.689  50.220  48.580  1.00  0.00     0.169 HD
HETATM   22  C   UNL     1      23.372  47.866  49.066  1.00  0.00    -0.006 A 
HETATM   23  C   UNL     1      23.128  50.091  48.070  1.00  0.00     0.070 A 
HETATM   24  C   UNL     1      22.014  47.603  48.858  1.00  0.00     0.053 A 
HETATM   25  C   UNL     1      24.247  46.886  49.710  1.00  0.00     0.028 A 
HETATM   26  C   UNL     1      21.256  48.587  48.258  1.00  0.00     0.106 A 
HETATM   27  C   UNL     1      21.796  49.794  47.876  1.00  0.00     0.107 A 
HETATM   28  O   UNL     1      19.929  48.504  47.972  1.00  0.00    -0.323 OA
HETATM   29  O   UNL     1      20.880  50.615  47.299  1.00  0.00    -0.323 OA
HETATM   30  C   UNL     1      19.690  49.800  47.384  1.00  0.00     0.352 A 
ENDBRANCH  15  16
ENDBRANCH   1  15
BRANCH   1  31
HETATM   31  C   UNL     1      25.496  45.426  52.720  1.00  0.00     0.164 C 
BRANCH  31  32
HETATM   32  C   UNL     1      26.695  45.645  53.616  1.00  0.00    -0.037 A 
HETATM   33  C   UNL     1      27.571  44.591  53.929  1.00  0.00     0.048 A 
HETATM   34  C   UNL     1      28.640  44.852  54.763  1.00  0.00     0.105 A 
HETATM   35  C   UNL     1      28.858  46.098  55.299  1.00  0.00     0.105 A 
HETATM   36  O   UNL     1      29.579  43.950  55.154  1.00  0.00    -0.323 OA
HETATM   37  O   UNL     1      29.958  46.138  56.096  1.00  0.00    -0.323 OA
HETATM   38  C   UNL     1      28.018  47.154  55.033  1.00  0.00     0.040 A 
HETATM   39  C   UNL     1      30.398  44.767  56.018  1.00  0.00     0.352 A 
HETATM   40  C   UNL     1      26.929  46.920  54.188  1.00  0.00     0.012 A 
ENDBRANCH  31  32
ENDBRANCH   1  31
TORSDOF 12
ENDMDL
MODEL 8
REMARK VINA RESULT:      -8.4      1.442      2.149
REMARK  12 active torsions:
REMARK  status: ('A' for Active; 'I' for Inactive)
REMARK    1  A    between atoms: C_2  and  N_3 
REMARK    2  A    between atoms: N_3  and  C_5 
REMARK    3  A    between atoms: N_3  and  C_37 
REMARK    4  A    between atoms: C_5  and  C_6 
REMARK    5  A    between atoms: C_6  and  C_7 
REMARK    6  A    between atoms: C_7  and  N_8 
REMARK    7  A    between atoms: N_8  and  C_9 
REMARK    8  A    between atoms: C_9  and  N_10 
REMARK    9  A    between atoms: N_10  and  C_11 
REMARK   10  A    between atoms: N_10  and  C_26 
REMARK   11  A    between atoms: C_11  and  C_12 
REMARK   12  A    between atoms: C_26  and  C_27 
ROOT
HETATM    1  N   UNL     1      25.060  44.504  50.633  1.00  0.00    -0.350 N 
ENDROOT
BRANCH   1   2
HETATM    2  C   UNL     1      24.910  43.158  50.250  1.00  0.00     0.170 C 
HETATM    3  S   UNL     1      23.767  42.595  49.151  1.00  0.00    -0.041 SA
BRANCH   2   4
HETATM    4  N   UNL     1      25.833  42.301  50.830  1.00  0.00    -0.367 N 
HETATM    5  H   UNL     1      25.445  41.579  51.426  1.00  0.00     0.161 HD
BRANCH   4   6
HETATM    6  C   UNL     1      27.186  42.071  50.350  1.00  0.00     0.123 C 
BRANCH   6   7
HETATM    7  C   UNL     1      27.830  40.876  51.045  1.00  0.00     0.047 C 
BRANCH   7   8
HETATM    8  C   UNL     1      28.419  39.928  50.010  1.00  0.00     0.236 C 
BRANCH   8   9
HETATM    9  N   UNL     1      27.866  38.514  50.114  1.00  0.00    -0.072 N 
HETATM   10  H   UNL     1      27.403  38.471  51.032  1.00  0.00     0.279 HD
BRANCH   9  11
HETATM   11  C   UNL     1      28.925  37.421  50.148  1.00  0.00     0.230 C 
HETATM   12  C   UNL     1      30.178  37.879  50.870  1.00  0.00     0.034 C 
ENDBRANCH   9  11
BRANCH   9  13
HETATM   13  C   UNL     1      26.786  38.170  49.101  1.00  0.00     0.230 C 
HETATM   14  C   UNL     1      26.757  36.684  48.794  1.00  0.00     0.034 C 
ENDBRANCH   9  13
ENDBRANCH   8   9
ENDBRANCH   7   8
ENDBRANCH   6   7
ENDBRANCH   4   6
ENDBRANCH   2   4
ENDBRANCH   1   2
BRANCH   1  15
HETATM   15  C   UNL     1      24.648  45.012  51.956  1.00  0.00     0.169 C 
BRANCH  15  16
HETATM   16  C   UNL     1      25.810  45.212  52.895  1.00  0.00     0.029 A 
HETATM   17  C   UNL     1      26.013  46.602  53.407  1.00  0.00     0.253 A 
HETATM   18  O   UNL     1      25.190  47.494  53.206  1.00  0.00    -0.268 OA
HETATM   19  N   UNL     1      27.130  46.845  54.159  1.00  0.00    -0.322 N 
HETATM   20  C   UNL     1      28.018  45.845  54.571  1.00  0.00     0.048 A 
HETATM   21  H   UNL     1      27.283  47.803  54.439  1.00  0.00     0.169 HD
HETATM   22  C   UNL     1      27.784  44.513  54.164  1.00  0.00    -0.006 A 
HETATM   23  C   UNL     1      29.096  46.178  55.392  1.00  0.00     0.070 A 
HETATM   24  C   UNL     1      28.642  43.494  54.590  1.00  0.00     0.053 A 
HETATM   25  C   UNL     1      26.650  44.235  53.283  1.00  0.00     0.028 A 
HETATM   26  C   UNL     1      29.696  43.845  55.408  1.00  0.00     0.106 A 
HETATM   27  C   UNL     1      29.917  45.147  55.796  1.00  0.00     0.107 A 
HETATM   28  O   UNL     1      30.622  42.991  55.921  1.00  0.00    -0.323 OA
HETATM   29  O   UNL     1      31.002  45.271  56.605  1.00  0.00    -0.323 OA
HETATM   30  C   UNL     1      31.461  43.903  56.662  1.00  0.00     0.352 A 
ENDBRANCH  15  16
ENDBRANCH   1  15
BRANCH   1  31
HETATM   31  C   UNL     1      25.406  45.548  49.643  1.00  0.00     0.164 C 
BRANCH  31  32
HETATM   32  C   UNL     1      24.306  46.550  49.371  1.00  0.00    -0.037 A 
HETATM   33  C   UNL     1      24.449  47.901  49.731  1.00  0.00     0.048 A 
HETATM   34  C   UNL     1      23.404  48.765  49.468  1.00  0.00     0.105 A 
HETATM   35  C   UNL     1      22.237  48.338  48.883  1.00  0.00     0.105 A 
HETATM   36  O   UNL     1      23.387  50.096  49.744  1.00  0.00    -0.323 OA
HETATM   37  O   UNL     1      21.337  49.343  48.719  1.00  0.00    -0.323 OA
HETATM   38  C   UNL     1      22.047  47.023  48.529  1.00  0.00     0.040 A 
HETATM   39  C   UNL     1      22.064  50.451  49.287  1.00  0.00     0.352 A 
HETATM   40  C   UNL     1      23.091  46.127  48.779  1.00  0.00     0.012 A 
ENDBRANCH  31  32
ENDBRANCH   1  31
TORSDOF 12
ENDMDL
MODEL 9
REMARK VINA RESULT:      -8.3      2.780      7.129
REMARK  12 active torsions:
REMARK  status: ('A' for Active; 'I' for Inactive)
REMARK    1  A    between atoms: C_2  and  N_3 
REMARK    2  A    between atoms: N_3  and  C_5 
REMARK    3  A    between atoms: N_3  and  C_37 
REMARK    4  A    between atoms: C_5  and  C_6 
REMARK    5  A    between atoms: C_6  and  C_7 
REMARK    6  A    between atoms: C_7  and  N_8 
REMARK    7  A    between atoms: N_8  and  C_9 
REMARK    8  A    between atoms: C_9  and  N_10 
REMARK    9  A    between atoms: N_10  and  C_11 
REMARK   10  A    between atoms: N_10  and  C_26 
REMARK   11  A    between atoms: C_11  and  C_12 
REMARK   12  A    between atoms: C_26  and  C_27 
ROOT
HETATM    1  N   UNL     1      25.775  43.057  50.421  1.00  0.00    -0.350 N 
ENDROOT
BRANCH   1   2
HETATM    2  C   UNL     1      24.637  43.488  49.713  1.00  0.00     0.170 C 
HETATM    3  S   UNL     1      23.388  42.484  49.202  1.00  0.00    -0.041 SA
BRANCH   2   4
HETATM    4  N   UNL     1      24.596  44.857  49.494  1.00  0.00    -0.367 N 
HETATM    5  H   UNL     1      25.366  45.236  48.955  1.00  0.00     0.161 HD
BRANCH   4   6
HETATM    6  C   UNL     1      23.404  45.686  49.575  1.00  0.00     0.123 C 
BRANCH   6   7
HETATM    7  C   UNL     1      23.592  47.007  48.835  1.00  0.00     0.047 C 
BRANCH   7   8
HETATM    8  C   UNL     1      24.767  47.772  49.426  1.00  0.00     0.236 C 
BRANCH   8   9
HETATM    9  N   UNL     1      24.796  49.235  49.007  1.00  0.00    -0.072 N 
HETATM   10  H   UNL     1      24.657  49.769  49.876  1.00  0.00     0.279 HD
BRANCH   9  11
HETATM   11  C   UNL     1      23.656  49.655  48.092  1.00  0.00     0.230 C 
HETATM   12  C   UNL     1      23.141  51.040  48.440  1.00  0.00     0.034 C 
ENDBRANCH   9  11
BRANCH   9  13
HETATM   13  C   UNL     1      26.126  49.716  48.448  1.00  0.00     0.230 C 
HETATM   14  C   UNL     1      27.294  48.947  49.036  1.00  0.00     0.034 C 
ENDBRANCH   9  13
ENDBRANCH   8   9
ENDBRANCH   7   8
ENDBRANCH   6   7
ENDBRANCH   4   6
ENDBRANCH   2   4
ENDBRANCH   1   2
BRANCH   1  15
HETATM   15  C   UNL     1      27.058  43.786  50.400  1.00  0.00     0.169 C 
BRANCH  15  16
HETATM   16  C   UNL     1      27.584  44.084  51.781  1.00  0.00     0.029 A 
HETATM   17  C   UNL     1      26.889  45.174  52.531  1.00  0.00     0.253 A 
HETATM   18  O   UNL     1      25.849  45.686  52.117  1.00  0.00    -0.268 OA
HETATM   19  N   UNL     1      27.419  45.556  53.734  1.00  0.00    -0.322 N 
HETATM   20  C   UNL     1      28.495  44.904  54.347  1.00  0.00     0.048 A 
HETATM   21  H   UNL     1      26.973  46.337  54.193  1.00  0.00     0.169 HD
HETATM   22  C   UNL     1      29.103  43.816  53.684  1.00  0.00    -0.006 A 
HETATM   23  C   UNL     1      28.926  45.324  55.606  1.00  0.00     0.070 A 
HETATM   24  C   UNL     1      30.159  43.132  54.292  1.00  0.00     0.053 A 
HETATM   25  C   UNL     1      28.618  43.441  52.354  1.00  0.00     0.028 A 
HETATM   26  C   UNL     1      30.564  43.559  55.540  1.00  0.00     0.106 A 
HETATM   27  C   UNL     1      29.966  44.623  56.177  1.00  0.00     0.107 A 
HETATM   28  O   UNL     1      31.564  43.012  56.281  1.00  0.00    -0.323 OA
HETATM   29  O   UNL     1      30.511  44.871  57.397  1.00  0.00    -0.323 OA
HETATM   30  C   UNL     1      31.542  43.860  57.448  1.00  0.00     0.352 A 
ENDBRANCH  15  16
ENDBRANCH   1  15
BRANCH   1  31
HETATM   31  C   UNL     1      25.833  41.708  51.027  1.00  0.00     0.164 C 
BRANCH  31  32
HETATM   32  C   UNL     1      26.744  40.733  50.313  1.00  0.00    -0.037 A 
HETATM   33  C   UNL     1      26.427  40.247  49.034  1.00  0.00     0.048 A 
HETATM   34  C   UNL     1      27.292  39.349  48.440  1.00  0.00     0.105 A 
HETATM   35  C   UNL     1      28.434  38.914  49.068  1.00  0.00     0.105 A 
HETATM   36  O   UNL     1      27.136  38.794  47.208  1.00  0.00    -0.323 OA
HETATM   37  O   UNL     1      29.138  38.029  48.315  1.00  0.00    -0.323 OA
HETATM   38  C   UNL     1      28.775  39.350  50.327  1.00  0.00     0.040 A 
HETATM   39  C   UNL     1      28.300  37.941  47.146  1.00  0.00     0.352 A 
HETATM   40  C   UNL     1      27.919  40.264  50.950  1.00  0.00     0.012 A 
ENDBRANCH  31  32
ENDBRANCH   1  31
TORSDOF 12
ENDMDL
MODEL 10
REMARK VINA RESULT:      -8.1      2.482      3.978
REMARK  12 active torsions:
REMARK  status: ('A' for Active; 'I' for Inactive)
REMARK    1  A    between atoms: C_2  and  N_3 
REMARK    2  A    between atoms: N_3  and  C_5 
REMARK    3  A    between atoms: N_3  and  C_37 
REMARK    4  A    between atoms: C_5  and  C_6 
REMARK    5  A    between atoms: C_6  and  C_7 
REMARK    6  A    between atoms: C_7  and  N_8 
REMARK    7  A    between atoms: N_8  and  C_9 
REMARK    8  A    between atoms: C_9  and  N_10 
REMARK    9  A    between atoms: N_10  and  C_11 
REMARK   10  A    between atoms: N_10  and  C_26 
REMARK   11  A    between atoms: C_11  and  C_12 
REMARK   12  A    between atoms: C_26  and  C_27 
ROOT
HETATM    1  N   UNL     1      25.346  42.492  49.935  1.00  0.00    -0.350 N 
ENDROOT
BRANCH   1   2
HETATM    2  C   UNL     1      25.479  42.296  48.547  1.00  0.00     0.170 C 
HETATM    3  S   UNL     1      24.198  42.262  47.456  1.00  0.00    -0.041 SA
BRANCH   2   4
HETATM    4  N   UNL     1      26.792  42.172  48.119  1.00  0.00    -0.367 N 
HETATM    5  H   UNL     1      27.468  42.747  48.610  1.00  0.00     0.161 HD
BRANCH   4   6
HETATM    6  C   UNL     1      27.334  41.041  47.383  1.00  0.00     0.123 C 
BRANCH   6   7
HETATM    7  C   UNL     1      26.454  39.804  47.532  1.00  0.00     0.047 C 
BRANCH   7   8
HETATM    8  C   UNL     1      27.306  38.546  47.441  1.00  0.00     0.236 C 
BRANCH   8   9
HETATM    9  N   UNL     1      27.934  38.153  48.770  1.00  0.00    -0.072 N 
HETATM   10  H   UNL     1      27.825  38.978  49.376  1.00  0.00     0.279 HD
BRANCH   9  11
HETATM   11  C   UNL     1      29.432  37.892  48.711  1.00  0.00     0.230 C 
HETATM   12  C   UNL     1      30.027  37.739  50.099  1.00  0.00     0.034 C 
ENDBRANCH   9  11
BRANCH   9  13
HETATM   13  C   UNL     1      27.230  37.021  49.503  1.00  0.00     0.230 C 
HETATM   14  C   UNL     1      26.472  36.119  48.547  1.00  0.00     0.034 C 
ENDBRANCH   9  13
ENDBRANCH   8   9
ENDBRANCH   7   8
ENDBRANCH   6   7
ENDBRANCH   4   6
ENDBRANCH   2   4
ENDBRANCH   1   2
BRANCH   1  15
HETATM   15  C   UNL     1      25.801  41.505  50.932  1.00  0.00     0.169 C 
BRANCH  15  16
HETATM   16  C   UNL     1      26.952  42.004  51.767  1.00  0.00     0.029 A 
HETATM   17  C   UNL     1      28.291  41.412  51.467  1.00  0.00     0.253 A 
HETATM   18  O   UNL     1      28.475  40.684  50.493  1.00  0.00    -0.268 OA
HETATM   19  N   UNL     1      29.333  41.747  52.289  1.00  0.00    -0.322 N 
HETATM   20  C   UNL     1      29.238  42.700  53.309  1.00  0.00     0.048 A 
HETATM   21  H   UNL     1      30.213  41.286  52.109  1.00  0.00     0.169 HD
HETATM   22  C   UNL     1      27.996  43.330  53.542  1.00  0.00    -0.006 A 
HETATM   23  C   UNL     1      30.372  43.026  54.054  1.00  0.00     0.070 A 
HETATM   24  C   UNL     1      27.886  44.307  54.536  1.00  0.00     0.053 A 
HETATM   25  C   UNL     1      26.840  42.926  52.741  1.00  0.00     0.028 A 
HETATM   26  C   UNL     1      29.022  44.619  55.255  1.00  0.00     0.106 A 
HETATM   27  C   UNL     1      30.228  43.997  55.022  1.00  0.00     0.107 A 
HETATM   28  O   UNL     1      29.104  45.543  56.249  1.00  0.00    -0.323 OA
HETATM   29  O   UNL     1      31.215  44.457  55.833  1.00  0.00    -0.323 OA
HETATM   30  C   UNL     1      30.492  45.422  56.628  1.00  0.00     0.352 A 
ENDBRANCH  15  16
ENDBRANCH   1  15
BRANCH   1  31
HETATM   31  C   UNL     1      24.510  43.587  50.476  1.00  0.00     0.164 C 
BRANCH  31  32
HETATM   32  C   UNL     1      25.044  44.978  50.212  1.00  0.00    -0.037 A 
HETATM   33  C   UNL     1      26.341  45.175  49.706  1.00  0.00     0.048 A 
HETATM   34  C   UNL     1      26.775  46.470  49.499  1.00  0.00     0.105 A 
HETATM   35  C   UNL     1      25.984  47.557  49.784  1.00  0.00     0.105 A 
HETATM   36  O   UNL     1      27.991  46.829  49.009  1.00  0.00    -0.323 OA
HETATM   37  O   UNL     1      26.603  48.736  49.514  1.00  0.00    -0.323 OA
HETATM   38  C   UNL     1      24.716  47.412  50.295  1.00  0.00     0.040 A 
HETATM   39  C   UNL     1      27.883  48.269  49.043  1.00  0.00     0.352 A 
HETATM   40  C   UNL     1      24.249  46.112  50.511  1.00  0.00     0.012 A 
ENDBRANCH  31  32
ENDBRANCH   1  31
TORSDOF 12
ENDMDL
