MODEL 1
REMARK VINA RESULT:      -9.5      0.000      0.000
REMARK  8 active torsions:
REMARK  status: ('A' for Active; 'I' for Inactive)
REMARK       I    between atoms: C_2  and  N_3 
REMARK    1  A    between atoms: N_3  and  C_4 
REMARK    2  A    between atoms: C_6  and  N_7 
REMARK       I    between atoms: N_7  and  C_8 
REMARK    3  A    between atoms: C_8  and  C_9 
REMARK       I    between atoms: C_9  and  N_10 
REMARK    4  A    between atoms: N_10  and  C_11 
REMARK    5  A    between atoms: C_11  and  C_12 
REMARK    6  A    between atoms: C_12  and  S_13 
REMARK    7  A    between atoms: S_13  and  C_14 
REMARK    8  A    between atoms: C_16  and  C_17 
ROOT
HETATM    1  C   UNL     1      23.021  44.637  49.626  1.00  0.00     0.309 C 
HETATM    2  N   UNL     1      24.176  44.567  50.368  1.00  0.00    -0.352 N 
HETATM    3  O   UNL     1      22.136  43.794  49.577  1.00  0.00    -0.262 OA
HETATM    4  H   UNL     1      24.851  45.312  50.205  1.00  0.00     0.162 HD
ENDROOT
BRANCH   1   5
HETATM    5  C   UNL     1      22.898  45.934  48.795  1.00  0.00     0.313 C 
HETATM    6  N   UNL     1      23.173  47.055  49.548  1.00  0.00    -0.319 N 
HETATM    7  H   UNL     1      23.449  46.856  50.507  1.00  0.00     0.169 HD
HETATM    8  O   UNL     1      22.600  45.839  47.614  1.00  0.00    -0.262 OA
BRANCH   6   9
HETATM    9  C   UNL     1      23.122  48.401  49.144  1.00  0.00     0.037 A 
HETATM   10  C   UNL     1      21.969  49.194  49.213  1.00  0.00     0.059 A 
HETATM   11  C   UNL     1      21.996  50.533  48.802  1.00  0.00     0.036 A 
HETATM   12  C   UNL     1      23.190  51.068  48.302  1.00  0.00     0.029 A 
HETATM   13  C   UNL     1      24.343  50.286  48.234  1.00  0.00     0.004 A 
HETATM   14  C   UNL     1      24.309  48.960  48.660  1.00  0.00     0.029 A 
BRANCH  11  15
HETATM   15  N   UNL     1      20.884  51.403  48.852  1.00  0.00    -0.327 N 
HETATM   16  C   UNL     1      19.749  51.370  48.063  1.00  0.00     0.218 C 
HETATM   17  C   UNL     1      18.780  52.483  48.378  1.00  0.00     0.117 C 
HETATM   18  O   UNL     1      19.476  50.547  47.196  1.00  0.00    -0.274 OA
HETATM   19  H   UNL     1      20.911  52.105  49.579  1.00  0.00     0.169 HD
ENDBRANCH  11  15
ENDBRANCH   6   9
ENDBRANCH   1   5
BRANCH   2  20
HETATM   20  C   UNL     1      24.593  43.370  51.068  1.00  0.00     0.133 C 
BRANCH  20  21
HETATM   21  C   UNL     1      25.774  43.607  52.013  1.00  0.00     0.102 C 
BRANCH  21  22
HETATM   22  S   UNL     1      27.337  43.745  51.078  1.00  0.00    -0.090 SA
BRANCH  22  23
HETATM   23  C   UNL     1      28.480  43.501  52.341  1.00  0.00     0.166 A 
HETATM   24  N   UNL     1      28.569  44.138  53.481  1.00  0.00    -0.223 NA
HETATM   25  C   UNL     1      29.667  43.591  54.117  1.00  0.00     0.085 A 
HETATM   26  C   UNL     1      30.228  42.603  53.332  1.00  0.00     0.122 A 
HETATM   27  N   UNL     1      29.455  42.560  52.203  1.00  0.00    -0.343 N 
HETATM   28  H   UNL     1      29.568  41.955  51.402  1.00  0.00     0.167 HD
BRANCH  25  29
HETATM   29  C   UNL     1      30.128  44.033  55.427  1.00  0.00    -0.006 A 
HETATM   30  C   UNL     1      31.022  43.228  56.149  1.00  0.00     0.014 A 
HETATM   31  C   UNL     1      31.481  43.617  57.410  1.00  0.00     0.001 A 
HETATM   32  C   UNL     1      31.050  44.818  57.967  1.00  0.00     0.000 A 
HETATM   33  C   UNL     1      30.162  45.629  57.264  1.00  0.00     0.001 A 
HETATM   34  C   UNL     1      29.704  45.239  56.001  1.00  0.00     0.014 A 
ENDBRANCH  25  29
ENDBRANCH  22  23
ENDBRANCH  21  22
ENDBRANCH  20  21
ENDBRANCH   2  20
TORSDOF 8
ENDMDL
MODEL 2
REMARK VINA RESULT:      -9.4      2.214      2.917
REMARK  8 active torsions:
REMARK  status: ('A' for Active; 'I' for Inactive)
REMARK       I    between atoms: C_2  and  N_3 
REMARK    1  A    between atoms: N_3  and  C_4 
REMARK    2  A    between atoms: C_6  and  N_7 
REMARK       I    between atoms: N_7  and  C_8 
REMARK    3  A    between atoms: C_8  and  C_9 
REMARK       I    between atoms: C_9  and  N_10 
REMARK    4  A    between atoms: N_10  and  C_11 
REMARK    5  A    between atoms: C_11  and  C_12 
REMARK    6  A    between atoms: C_12  and  S_13 
REMARK    7  A    between atoms: S_13  and  C_14 
REMARK    8  A    between atoms: C_16  and  C_17 
ROOT
HETATM    1  C   UNL     1      23.995  47.581  49.727  1.00  0.00     0.309 C 
HETATM    2  N   UNL     1      23.799  46.247  49.993  1.00  0.00    -0.352 N 
HETATM    3  O   UNL     1      24.941  48.264  50.092  1.00  0.00    -0.262 OA
HETATM    4  H   UNL     1      22.901  45.865  49.699  1.00  0.00     0.162 HD
ENDROOT
BRANCH   1   5
HETATM    5  C   UNL     1      22.866  48.215  48.883  1.00  0.00     0.313 C 
HETATM    6  N   UNL     1      22.094  49.083  49.624  1.00  0.00    -0.319 N 
HETATM    7  H   UNL     1      22.406  49.201  50.584  1.00  0.00     0.169 HD
HETATM    8  O   UNL     1      22.785  47.909  47.702  1.00  0.00    -0.262 OA
BRANCH   6   9
HETATM    9  C   UNL     1      20.962  49.805  49.206  1.00  0.00     0.037 A 
HETATM   10  C   UNL     1      19.692  49.236  49.034  1.00  0.00     0.059 A 
HETATM   11  C   UNL     1      18.606  50.021  48.625  1.00  0.00     0.036 A 
HETATM   12  C   UNL     1      18.809  51.383  48.370  1.00  0.00     0.029 A 
HETATM   13  C   UNL     1      20.068  51.957  48.542  1.00  0.00     0.004 A 
HETATM   14  C   UNL     1      21.138  51.171  48.964  1.00  0.00     0.029 A 
BRANCH  11  15
HETATM   15  N   UNL     1      17.295  49.530  48.442  1.00  0.00    -0.327 N 
HETATM   16  C   UNL     1      16.755  48.964  47.302  1.00  0.00     0.218 C 
HETATM   17  C   UNL     1      15.303  48.583  47.463  1.00  0.00     0.117 C 
HETATM   18  O   UNL     1      17.332  48.742  46.244  1.00  0.00    -0.274 OA
HETATM   19  H   UNL     1      16.698  49.563  49.258  1.00  0.00     0.169 HD
ENDBRANCH  11  15
ENDBRANCH   6   9
ENDBRANCH   1   5
BRANCH   2  20
HETATM   20  C   UNL     1      24.621  45.497  50.919  1.00  0.00     0.133 C 
BRANCH  20  21
HETATM   21  C   UNL     1      25.729  44.698  50.229  1.00  0.00     0.102 C 
BRANCH  21  22
HETATM   22  S   UNL     1      25.555  42.913  50.575  1.00  0.00    -0.090 SA
BRANCH  22  23
HETATM   23  C   UNL     1      26.685  42.731  51.859  1.00  0.00     0.166 A 
HETATM   24  N   UNL     1      27.260  43.671  52.565  1.00  0.00    -0.223 NA
HETATM   25  C   UNL     1      28.099  43.005  53.438  1.00  0.00     0.085 A 
HETATM   26  C   UNL     1      28.004  41.642  53.244  1.00  0.00     0.122 A 
HETATM   27  N   UNL     1      27.095  41.487  52.232  1.00  0.00    -0.343 N 
HETATM   28  H   UNL     1      26.774  40.622  51.819  1.00  0.00     0.167 HD
BRANCH  25  29
HETATM   29  C   UNL     1      28.945  43.692  54.406  1.00  0.00    -0.006 A 
HETATM   30  C   UNL     1      30.090  43.048  54.899  1.00  0.00     0.014 A 
HETATM   31  C   UNL     1      30.922  43.674  55.831  1.00  0.00     0.001 A 
HETATM   32  C   UNL     1      30.618  44.955  56.284  1.00  0.00     0.000 A 
HETATM   33  C   UNL     1      29.484  45.609  55.806  1.00  0.00     0.001 A 
HETATM   34  C   UNL     1      28.653  44.981  54.872  1.00  0.00     0.014 A 
ENDBRANCH  25  29
ENDBRANCH  22  23
ENDBRANCH  21  22
ENDBRANCH  20  21
ENDBRANCH   2  20
TORSDOF 8
ENDMDL
MODEL 3
REMARK VINA RESULT:      -9.4      1.801      2.246
REMARK  8 active torsions:
REMARK  status: ('A' for Active; 'I' for Inactive)
REMARK       I    between atoms: C_2  and  N_3 
REMARK    1  A    between atoms: N_3  and  C_4 
REMARK    2  A    between atoms: C_6  and  N_7 
REMARK       I    between atoms: N_7  and  C_8 
REMARK    3  A    between atoms: C_8  and  C_9 
REMARK       I    between atoms: C_9  and  N_10 
REMARK    4  A    between atoms: N_10  and  C_11 
REMARK    5  A    between atoms: C_11  and  C_12 
REMARK    6  A    between atoms: C_12  and  S_13 
REMARK    7  A    between atoms: S_13  and  C_14 
REMARK    8  A    between atoms: C_16  and  C_17 
ROOT
HETATM    1  C   UNL     1      24.650  45.291  50.864  1.00  0.00     0.309 C 
HETATM    2  N   UNL     1      25.269  44.650  49.819  1.00  0.00    -0.352 N 
HETATM    3  O   UNL     1      24.147  44.763  51.846  1.00  0.00    -0.262 OA
HETATM    4  H   UNL     1      25.536  45.241  49.033  1.00  0.00     0.162 HD
ENDROOT
BRANCH   1   5
HETATM    5  C   UNL     1      24.620  46.829  50.714  1.00  0.00     0.313 C 
HETATM    6  N   UNL     1      23.796  47.230  49.685  1.00  0.00    -0.319 N 
HETATM    7  H   UNL     1      23.311  46.467  49.218  1.00  0.00     0.169 HD
HETATM    8  O   UNL     1      25.284  47.500  51.490  1.00  0.00    -0.262 OA
BRANCH   6   9
HETATM    9  C   UNL     1      23.555  48.539  49.231  1.00  0.00     0.037 A 
HETATM   10  C   UNL     1      22.336  49.211  49.396  1.00  0.00     0.059 A 
HETATM   11  C   UNL     1      22.172  50.520  48.926  1.00  0.00     0.036 A 
HETATM   12  C   UNL     1      23.240  51.147  48.269  1.00  0.00     0.029 A 
HETATM   13  C   UNL     1      24.457  50.486  48.105  1.00  0.00     0.004 A 
HETATM   14  C   UNL     1      24.614  49.190  48.590  1.00  0.00     0.029 A 
BRANCH  11  15
HETATM   15  N   UNL     1      20.984  51.272  49.063  1.00  0.00    -0.327 N 
HETATM   16  C   UNL     1      19.890  51.286  48.219  1.00  0.00     0.218 C 
HETATM   17  C   UNL     1      18.810  52.241  48.668  1.00  0.00     0.117 C 
HETATM   18  O   UNL     1      19.728  50.610  47.209  1.00  0.00    -0.274 OA
HETATM   19  H   UNL     1      20.917  51.834  49.902  1.00  0.00     0.169 HD
ENDBRANCH  11  15
ENDBRANCH   6   9
ENDBRANCH   1   5
BRANCH   2  20
HETATM   20  C   UNL     1      25.247  43.212  49.650  1.00  0.00     0.133 C 
BRANCH  20  21
HETATM   21  C   UNL     1      26.585  42.641  49.174  1.00  0.00     0.102 C 
BRANCH  21  22
HETATM   22  S   UNL     1      26.839  40.952  49.822  1.00  0.00    -0.090 SA
BRANCH  22  23
HETATM   23  C   UNL     1      27.762  41.294  51.234  1.00  0.00     0.166 A 
HETATM   24  N   UNL     1      27.815  42.413  51.910  1.00  0.00    -0.223 NA
HETATM   25  C   UNL     1      28.721  42.179  52.926  1.00  0.00     0.085 A 
HETATM   26  C   UNL     1      29.203  40.887  52.846  1.00  0.00     0.122 A 
HETATM   27  N   UNL     1      28.578  40.338  51.759  1.00  0.00    -0.343 N 
HETATM   28  H   UNL     1      28.687  39.403  51.394  1.00  0.00     0.167 HD
BRANCH  25  29
HETATM   29  C   UNL     1      29.085  43.187  53.914  1.00  0.00    -0.006 A 
HETATM   30  C   UNL     1      28.245  44.292  54.111  1.00  0.00     0.014 A 
HETATM   31  C   UNL     1      28.565  45.281  55.046  1.00  0.00     0.001 A 
HETATM   32  C   UNL     1      29.732  45.175  55.797  1.00  0.00     0.000 A 
HETATM   33  C   UNL     1      30.579  44.085  55.614  1.00  0.00     0.001 A 
HETATM   34  C   UNL     1      30.257  43.095  54.678  1.00  0.00     0.014 A 
ENDBRANCH  25  29
ENDBRANCH  22  23
ENDBRANCH  21  22
ENDBRANCH  20  21
ENDBRANCH   2  20
TORSDOF 8
ENDMDL
MODEL 4
REMARK VINA RESULT:      -9.3      1.660      2.099
REMARK  8 active torsions:
REMARK  status: ('A' for Active; 'I' for Inactive)
REMARK       I    between atoms: C_2  and  N_3 
REMARK    1  A    between atoms: N_3  and  C_4 
REMARK    2  A    between atoms: C_6  and  N_7 
REMARK       I    between atoms: N_7  and  C_8 
REMARK    3  A    between atoms: C_8  and  C_9 
REMARK       I    between atoms: C_9  and  N_10 
REMARK    4  A    between atoms: N_10  and  C_11 
REMARK    5  A    between atoms: C_11  and  C_12 
REMARK    6  A    between atoms: C_12  and  S_13 
REMARK    7  A    between atoms: S_13  and  C_14 
REMARK    8  A    between atoms: C_16  and  C_17 
ROOT
HETATM    1  C   UNL     1      22.026  44.722  48.361  1.00  0.00     0.309 C 
HETATM    2  N   UNL     1      22.794  44.516  49.482  1.00  0.00    -0.352 N 
HETATM    3  O   UNL     1      21.367  43.880  47.766  1.00  0.00    -0.262 OA
HETATM    4  H   UNL     1      23.360  45.308  49.782  1.00  0.00     0.162 HD
ENDROOT
BRANCH   1   5
HETATM    5  C   UNL     1      22.048  46.182  47.858  1.00  0.00     0.313 C 
HETATM    6  N   UNL     1      22.172  47.082  48.894  1.00  0.00    -0.319 N 
HETATM    7  H   UNL     1      22.269  46.651  49.810  1.00  0.00     0.169 HD
HETATM    8  O   UNL     1      21.971  46.382  46.654  1.00  0.00    -0.262 OA
BRANCH   6   9
HETATM    9  C   UNL     1      22.185  48.486  48.823  1.00  0.00     0.037 A 
HETATM   10  C   UNL     1      21.033  49.283  48.881  1.00  0.00     0.059 A 
HETATM   11  C   UNL     1      21.125  50.679  48.814  1.00  0.00     0.036 A 
HETATM   12  C   UNL     1      22.386  51.272  48.670  1.00  0.00     0.029 A 
HETATM   13  C   UNL     1      23.537  50.487  48.616  1.00  0.00     0.004 A 
HETATM   14  C   UNL     1      23.436  49.100  48.699  1.00  0.00     0.029 A 
BRANCH  11  15
HETATM   15  N   UNL     1      20.017  51.552  48.879  1.00  0.00    -0.327 N 
HETATM   16  C   UNL     1      18.909  51.453  49.701  1.00  0.00     0.218 C 
HETATM   17  C   UNL     1      17.904  52.556  49.470  1.00  0.00     0.117 C 
HETATM   18  O   UNL     1      18.703  50.607  50.563  1.00  0.00    -0.274 OA
HETATM   19  H   UNL     1      20.066  52.365  48.279  1.00  0.00     0.169 HD
ENDBRANCH  11  15
ENDBRANCH   6   9
ENDBRANCH   1   5
BRANCH   2  20
HETATM   20  C   UNL     1      23.076  43.199  50.015  1.00  0.00     0.133 C 
BRANCH  20  21
HETATM   21  C   UNL     1      24.294  43.173  50.941  1.00  0.00     0.102 C 
BRANCH  21  22
HETATM   22  S   UNL     1      24.766  44.865  51.441  1.00  0.00    -0.090 SA
BRANCH  22  23
HETATM   23  C   UNL     1      25.719  44.526  52.833  1.00  0.00     0.166 A 
HETATM   24  N   UNL     1      26.992  44.768  53.016  1.00  0.00    -0.223 NA
HETATM   25  C   UNL     1      27.277  44.278  54.276  1.00  0.00     0.085 A 
HETATM   26  C   UNL     1      26.139  43.745  54.847  1.00  0.00     0.122 A 
HETATM   27  N   UNL     1      25.155  43.914  53.911  1.00  0.00    -0.343 N 
HETATM   28  H   UNL     1      24.185  43.641  53.981  1.00  0.00     0.167 HD
BRANCH  25  29
HETATM   29  C   UNL     1      28.607  44.337  54.869  1.00  0.00    -0.006 A 
HETATM   30  C   UNL     1      29.472  43.242  54.730  1.00  0.00     0.014 A 
HETATM   31  C   UNL     1      30.752  43.262  55.291  1.00  0.00     0.001 A 
HETATM   32  C   UNL     1      31.183  44.380  56.001  1.00  0.00     0.000 A 
HETATM   33  C   UNL     1      30.336  45.476  56.150  1.00  0.00     0.001 A 
HETATM   34  C   UNL     1      29.055  45.455  55.587  1.00  0.00     0.014 A 
ENDBRANCH  25  29
ENDBRANCH  22  23
ENDBRANCH  21  22
ENDBRANCH  20  21
ENDBRANCH   2  20
TORSDOF 8
ENDMDL
MODEL 5
REMARK VINA RESULT:      -9.1      1.938      2.445
REMARK  8 active torsions:
REMARK  status: ('A' for Active; 'I' for Inactive)
REMARK       I    between atoms: C_2  and  N_3 
REMARK    1  A    between atoms: N_3  and  C_4 
REMARK    2  A    between atoms: C_6  and  N_7 
REMARK       I    between atoms: N_7  and  C_8 
REMARK    3  A    between atoms: C_8  and  C_9 
REMARK       I    between atoms: C_9  and  N_10 
REMARK    4  A    between atoms: N_10  and  C_11 
REMARK    5  A    between atoms: C_11  and  C_12 
REMARK    6  A    between atoms: C_12  and  S_13 
REMARK    7  A    between atoms: S_13  and  C_14 
REMARK    8  A    between atoms: C_16  and  C_17 
ROOT
HETATM    1  C   UNL     1      25.086  45.825  49.718  1.00  0.00     0.309 C 
HETATM    2  N   UNL     1      26.272  45.650  50.391  1.00  0.00    -0.352 N 
HETATM    3  O   UNL     1      24.543  45.015  48.980  1.00  0.00    -0.262 OA
HETATM    4  H   UNL     1      26.630  46.471  50.877  1.00  0.00     0.162 HD
ENDROOT
BRANCH   1   5
HETATM    5  C   UNL     1      24.436  47.205  49.963  1.00  0.00     0.313 C 
HETATM    6  N   UNL     1      23.593  47.567  48.934  1.00  0.00    -0.319 N 
HETATM    7  H   UNL     1      23.501  46.865  48.205  1.00  0.00     0.169 HD
HETATM    8  O   UNL     1      24.708  47.798  50.996  1.00  0.00    -0.262 OA
BRANCH   6   9
HETATM    9  C   UNL     1      22.866  48.763  48.793  1.00  0.00     0.037 A 
HETATM   10  C   UNL     1      21.467  48.825  48.749  1.00  0.00     0.059 A 
HETATM   11  C   UNL     1      20.810  50.055  48.617  1.00  0.00     0.036 A 
HETATM   12  C   UNL     1      21.572  51.226  48.510  1.00  0.00     0.029 A 
HETATM   13  C   UNL     1      22.965  51.173  48.557  1.00  0.00     0.004 A 
HETATM   14  C   UNL     1      23.608  49.946  48.704  1.00  0.00     0.029 A 
BRANCH  11  15
HETATM   15  N   UNL     1      19.406  50.207  48.578  1.00  0.00    -0.327 N 
HETATM   16  C   UNL     1      18.519  50.135  49.636  1.00  0.00     0.218 C 
HETATM   17  C   UNL     1      17.081  50.315  49.213  1.00  0.00     0.117 C 
HETATM   18  O   UNL     1      18.792  49.968  50.819  1.00  0.00    -0.274 OA
HETATM   19  H   UNL     1      19.016  50.435  47.673  1.00  0.00     0.169 HD
ENDBRANCH  11  15
ENDBRANCH   6   9
ENDBRANCH   1   5
BRANCH   2  20
HETATM   20  C   UNL     1      27.149  44.520  50.165  1.00  0.00     0.133 C 
BRANCH  20  21
HETATM   21  C   UNL     1      27.137  43.510  51.315  1.00  0.00     0.102 C 
BRANCH  21  22
HETATM   22  S   UNL     1      26.007  44.051  52.643  1.00  0.00    -0.090 SA
BRANCH  22  23
HETATM   23  C   UNL     1      27.128  44.762  53.738  1.00  0.00     0.166 A 
HETATM   24  N   UNL     1      28.011  44.159  54.492  1.00  0.00    -0.223 NA
HETATM   25  C   UNL     1      28.631  45.169  55.202  1.00  0.00     0.085 A 
HETATM   26  C   UNL     1      28.103  46.394  54.847  1.00  0.00     0.122 A 
HETATM   27  N   UNL     1      27.145  46.113  53.910  1.00  0.00    -0.343 N 
HETATM   28  H   UNL     1      26.548  46.768  53.425  1.00  0.00     0.167 HD
BRANCH  25  29
HETATM   29  C   UNL     1      29.685  44.922  56.178  1.00  0.00    -0.006 A 
HETATM   30  C   UNL     1      29.735  45.696  57.347  1.00  0.00     0.014 A 
HETATM   31  C   UNL     1      30.734  45.491  58.303  1.00  0.00     0.001 A 
HETATM   32  C   UNL     1      31.699  44.507  58.099  1.00  0.00     0.000 A 
HETATM   33  C   UNL     1      31.665  43.731  56.943  1.00  0.00     0.001 A 
HETATM   34  C   UNL     1      30.663  43.937  55.988  1.00  0.00     0.014 A 
ENDBRANCH  25  29
ENDBRANCH  22  23
ENDBRANCH  21  22
ENDBRANCH  20  21
ENDBRANCH   2  20
TORSDOF 8
ENDMDL
MODEL 6
REMARK VINA RESULT:      -9.0      2.796      3.890
REMARK  8 active torsions:
REMARK  status: ('A' for Active; 'I' for Inactive)
REMARK       I    between atoms: C_2  and  N_3 
REMARK    1  A    between atoms: N_3  and  C_4 
REMARK    2  A    between atoms: C_6  and  N_7 
REMARK       I    between atoms: N_7  and  C_8 
REMARK    3  A    between atoms: C_8  and  C_9 
REMARK       I    between atoms: C_9  and  N_10 
REMARK    4  A    between atoms: N_10  and  C_11 
REMARK    5  A    between atoms: C_11  and  C_12 
REMARK    6  A    between atoms: C_12  and  S_13 
REMARK    7  A    between atoms: S_13  and  C_14 
REMARK    8  A    between atoms: C_16  and  C_17 
ROOT
HETATM    1  C   UNL     1      23.999  48.646  49.455  1.00  0.00     0.309 C 
HETATM    2  N   UNL     1      23.763  47.481  50.143  1.00  0.00    -0.352 N 
HETATM    3  O   UNL     1      25.038  48.959  48.890  1.00  0.00    -0.262 OA
HETATM    4  H   UNL     1      22.875  47.434  50.642  1.00  0.00     0.162 HD
ENDROOT
BRANCH   1   5
HETATM    5  C   UNL     1      22.791  49.609  49.438  1.00  0.00     0.313 C 
HETATM    6  N   UNL     1      21.598  48.936  49.286  1.00  0.00    -0.319 N 
HETATM    7  H   UNL     1      21.693  47.924  49.250  1.00  0.00     0.169 HD
HETATM    8  O   UNL     1      23.002  50.806  49.567  1.00  0.00    -0.262 OA
BRANCH   6   9
HETATM    9  C   UNL     1      20.305  49.480  49.186  1.00  0.00     0.037 A 
HETATM   10  C   UNL     1      19.354  49.064  48.245  1.00  0.00     0.059 A 
HETATM   11  C   UNL     1      18.080  49.645  48.211  1.00  0.00     0.036 A 
HETATM   12  C   UNL     1      17.772  50.664  49.123  1.00  0.00     0.029 A 
HETATM   13  C   UNL     1      18.712  51.080  50.065  1.00  0.00     0.004 A 
HETATM   14  C   UNL     1      19.971  50.485  50.100  1.00  0.00     0.029 A 
BRANCH  11  15
HETATM   15  N   UNL     1      17.060  49.276  47.306  1.00  0.00    -0.327 N 
HETATM   16  C   UNL     1      15.961  48.475  47.552  1.00  0.00     0.218 C 
HETATM   17  C   UNL     1      15.097  48.269  46.331  1.00  0.00     0.117 C 
HETATM   18  O   UNL     1      15.640  47.969  48.621  1.00  0.00    -0.274 OA
HETATM   19  H   UNL     1      17.129  49.682  46.382  1.00  0.00     0.169 HD
ENDBRANCH  11  15
ENDBRANCH   6   9
ENDBRANCH   1   5
BRANCH   2  20
HETATM   20  C   UNL     1      24.802  46.521  50.453  1.00  0.00     0.133 C 
BRANCH  20  21
HETATM   21  C   UNL     1      25.520  46.816  51.773  1.00  0.00     0.102 C 
BRANCH  21  22
HETATM   22  S   UNL     1      25.440  45.375  52.892  1.00  0.00    -0.090 SA
BRANCH  22  23
HETATM   23  C   UNL     1      26.748  45.730  53.952  1.00  0.00     0.166 A 
HETATM   24  N   UNL     1      27.601  44.893  54.487  1.00  0.00    -0.223 NA
HETATM   25  C   UNL     1      28.423  45.671  55.279  1.00  0.00     0.085 A 
HETATM   26  C   UNL     1      28.047  46.997  55.196  1.00  0.00     0.122 A 
HETATM   27  N   UNL     1      26.977  47.014  54.344  1.00  0.00    -0.343 N 
HETATM   28  H   UNL     1      26.438  47.815  54.047  1.00  0.00     0.167 HD
BRANCH  25  29
HETATM   29  C   UNL     1      29.516  45.120  56.071  1.00  0.00    -0.006 A 
HETATM   30  C   UNL     1      30.214  44.001  55.596  1.00  0.00     0.014 A 
HETATM   31  C   UNL     1      31.264  43.443  56.331  1.00  0.00     0.001 A 
HETATM   32  C   UNL     1      31.628  44.000  57.554  1.00  0.00     0.000 A 
HETATM   33  C   UNL     1      30.945  45.111  58.042  1.00  0.00     0.001 A 
HETATM   34  C   UNL     1      29.895  45.669  57.304  1.00  0.00     0.014 A 
ENDBRANCH  25  29
ENDBRANCH  22  23
ENDBRANCH  21  22
ENDBRANCH  20  21
ENDBRANCH   2  20
TORSDOF 8
ENDMDL
MODEL 7
REMARK VINA RESULT:      -8.9     11.820     14.056
REMARK  8 active torsions:
REMARK  status: ('A' for Active; 'I' for Inactive)
REMARK       I    between atoms: C_2  and  N_3 
REMARK    1  A    between atoms: N_3  and  C_4 
REMARK    2  A    between atoms: C_6  and  N_7 
REMARK       I    between atoms: N_7  and  C_8 
REMARK    3  A    between atoms: C_8  and  C_9 
REMARK       I    between atoms: C_9  and  N_10 
REMARK    4  A    between atoms: N_10  and  C_11 
REMARK    5  A    between atoms: C_11  and  C_12 
REMARK    6  A    between atoms: C_12  and  S_13 
REMARK    7  A    between atoms: S_13  and  C_14 
REMARK    8  A    between atoms: C_16  and  C_17 
ROOT
HETATM    1  C   UNL     1      26.780  50.404  38.575  1.00  0.00     0.309 C 
HETATM    2  N   UNL     1      25.699  50.145  39.385  1.00  0.00    -0.352 N 
HETATM    3  O   UNL     1      26.870  50.152  37.382  1.00  0.00    -0.262 OA
HETATM    4  H   UNL     1      25.838  50.325  40.378  1.00  0.00     0.162 HD
ENDROOT
BRANCH   1   5
HETATM    5  C   UNL     1      27.958  51.076  39.315  1.00  0.00     0.313 C 
HETATM    6  N   UNL     1      29.172  50.760  38.744  1.00  0.00    -0.319 N 
HETATM    7  H   UNL     1      29.102  50.176  37.914  1.00  0.00     0.169 HD
HETATM    8  O   UNL     1      27.708  51.794  40.272  1.00  0.00    -0.262 OA
BRANCH   6   9
HETATM    9  C   UNL     1      30.454  51.151  39.168  1.00  0.00     0.037 A 
HETATM   10  C   UNL     1      30.787  51.423  40.502  1.00  0.00     0.059 A 
HETATM   11  C   UNL     1      32.090  51.798  40.852  1.00  0.00     0.036 A 
HETATM   12  C   UNL     1      33.058  51.917  39.846  1.00  0.00     0.029 A 
HETATM   13  C   UNL     1      32.736  51.644  38.516  1.00  0.00     0.004 A 
HETATM   14  C   UNL     1      31.440  51.257  38.182  1.00  0.00     0.029 A 
BRANCH  11  15
HETATM   15  N   UNL     1      32.511  52.076  42.172  1.00  0.00    -0.327 N 
HETATM   16  C   UNL     1      33.569  51.510  42.858  1.00  0.00     0.218 C 
HETATM   17  C   UNL     1      33.701  52.029  44.270  1.00  0.00     0.117 C 
HETATM   18  O   UNL     1      34.372  50.689  42.430  1.00  0.00    -0.274 OA
HETATM   19  H   UNL     1      31.997  52.804  42.650  1.00  0.00     0.169 HD
ENDBRANCH  11  15
ENDBRANCH   6   9
ENDBRANCH   1   5
BRANCH   2  20
HETATM   20  C   UNL     1      24.564  49.354  38.958  1.00  0.00     0.133 C 
BRANCH  20  21
HETATM   21  C   UNL     1      24.258  48.186  39.899  1.00  0.00     0.102 C 
BRANCH  21  22
HETATM   22  S   UNL     1      24.872  46.613  39.202  1.00  0.00    -0.090 SA
BRANCH  22  23
HETATM   23  C   UNL     1      26.568  46.909  39.208  1.00  0.00     0.166 A 
HETATM   24  N   UNL     1      27.333  47.186  40.232  1.00  0.00    -0.223 NA
HETATM   25  C   UNL     1      28.596  47.367  39.701  1.00  0.00     0.085 A 
HETATM   26  C   UNL     1      28.568  47.183  38.333  1.00  0.00     0.122 A 
HETATM   27  N   UNL     1      27.264  46.890  38.037  1.00  0.00    -0.343 N 
HETATM   28  H   UNL     1      26.867  46.696  37.129  1.00  0.00     0.167 HD
BRANCH  25  29
HETATM   29  C   UNL     1      29.758  47.707  40.513  1.00  0.00    -0.006 A 
HETATM   30  C   UNL     1      29.569  48.280  41.779  1.00  0.00     0.014 A 
HETATM   31  C   UNL     1      30.660  48.624  42.582  1.00  0.00     0.001 A 
HETATM   32  C   UNL     1      31.956  48.399  42.127  1.00  0.00     0.000 A 
HETATM   33  C   UNL     1      32.163  47.832  40.872  1.00  0.00     0.001 A 
HETATM   34  C   UNL     1      31.069  47.488  40.069  1.00  0.00     0.014 A 
ENDBRANCH  25  29
ENDBRANCH  22  23
ENDBRANCH  21  22
ENDBRANCH  20  21
ENDBRANCH   2  20
TORSDOF 8
ENDMDL
MODEL 8
REMARK VINA RESULT:      -8.9      2.250      3.670
REMARK  8 active torsions:
REMARK  status: ('A' for Active; 'I' for Inactive)
REMARK       I    between atoms: C_2  and  N_3 
REMARK    1  A    between atoms: N_3  and  C_4 
REMARK    2  A    between atoms: C_6  and  N_7 
REMARK       I    between atoms: N_7  and  C_8 
REMARK    3  A    between atoms: C_8  and  C_9 
REMARK       I    between atoms: C_9  and  N_10 
REMARK    4  A    between atoms: N_10  and  C_11 
REMARK    5  A    between atoms: C_11  and  C_12 
REMARK    6  A    between atoms: C_12  and  S_13 
REMARK    7  A    between atoms: S_13  and  C_14 
REMARK    8  A    between atoms: C_16  and  C_17 
ROOT
HETATM    1  C   UNL     1      22.376  47.702  48.683  1.00  0.00     0.309 C 
HETATM    2  N   UNL     1      23.153  47.824  49.811  1.00  0.00    -0.352 N 
HETATM    3  O   UNL     1      22.688  47.142  47.642  1.00  0.00    -0.262 OA
HETATM    4  H   UNL     1      22.774  48.416  50.548  1.00  0.00     0.162 HD
ENDROOT
BRANCH   1   5
HETATM    5  C   UNL     1      20.987  48.366  48.817  1.00  0.00     0.313 C 
HETATM    6  N   UNL     1      21.027  49.709  48.510  1.00  0.00    -0.319 N 
HETATM    7  H   UNL     1      21.940  50.041  48.210  1.00  0.00     0.169 HD
HETATM    8  O   UNL     1      20.041  47.668  49.150  1.00  0.00    -0.262 OA
BRANCH   6   9
HETATM    9  C   UNL     1      19.973  50.639  48.560  1.00  0.00     0.037 A 
HETATM   10  C   UNL     1      19.288  51.105  47.430  1.00  0.00     0.059 A 
HETATM   11  C   UNL     1      18.239  52.024  47.558  1.00  0.00     0.036 A 
HETATM   12  C   UNL     1      17.892  52.488  48.833  1.00  0.00     0.029 A 
HETATM   13  C   UNL     1      18.565  52.026  49.964  1.00  0.00     0.004 A 
HETATM   14  C   UNL     1      19.597  51.100  49.826  1.00  0.00     0.029 A 
BRANCH  11  15
HETATM   15  N   UNL     1      17.491  52.533  46.473  1.00  0.00    -0.327 N 
HETATM   16  C   UNL     1      16.158  52.304  46.184  1.00  0.00     0.218 C 
HETATM   17  C   UNL     1      15.703  52.989  44.919  1.00  0.00     0.117 C 
HETATM   18  O   UNL     1      15.361  51.648  46.846  1.00  0.00    -0.274 OA
HETATM   19  H   UNL     1      17.984  53.171  45.862  1.00  0.00     0.169 HD
ENDBRANCH  11  15
ENDBRANCH   6   9
ENDBRANCH   1   5
BRANCH   2  20
HETATM   20  C   UNL     1      24.552  47.450  49.849  1.00  0.00     0.133 C 
BRANCH  20  21
HETATM   21  C   UNL     1      24.964  46.801  51.173  1.00  0.00     0.102 C 
BRANCH  21  22
HETATM   22  S   UNL     1      25.105  44.989  50.991  1.00  0.00    -0.090 SA
BRANCH  22  23
HETATM   23  C   UNL     1      25.934  44.591  52.445  1.00  0.00     0.166 A 
HETATM   24  N   UNL     1      27.185  44.827  52.749  1.00  0.00    -0.223 NA
HETATM   25  C   UNL     1      27.360  44.283  54.007  1.00  0.00     0.085 A 
HETATM   26  C   UNL     1      26.179  43.725  54.453  1.00  0.00     0.122 A 
HETATM   27  N   UNL     1      25.280  43.932  53.442  1.00  0.00    -0.343 N 
HETATM   28  H   UNL     1      24.309  43.656  53.414  1.00  0.00     0.167 HD
BRANCH  25  29
HETATM   29  C   UNL     1      28.632  44.319  54.718  1.00  0.00    -0.006 A 
HETATM   30  C   UNL     1      29.454  43.182  54.714  1.00  0.00     0.014 A 
HETATM   31  C   UNL     1      30.678  43.178  55.390  1.00  0.00     0.001 A 
HETATM   32  C   UNL     1      31.095  44.314  56.079  1.00  0.00     0.000 A 
HETATM   33  C   UNL     1      30.290  45.451  56.095  1.00  0.00     0.001 A 
HETATM   34  C   UNL     1      29.066  45.453  55.417  1.00  0.00     0.014 A 
ENDBRANCH  25  29
ENDBRANCH  22  23
ENDBRANCH  21  22
ENDBRANCH  20  21
ENDBRANCH   2  20
TORSDOF 8
ENDMDL
MODEL 9
REMARK VINA RESULT:      -8.7     12.916     15.490
REMARK  8 active torsions:
REMARK  status: ('A' for Active; 'I' for Inactive)
REMARK       I    between atoms: C_2  and  N_3 
REMARK    1  A    between atoms: N_3  and  C_4 
REMARK    2  A    between atoms: C_6  and  N_7 
REMARK       I    between atoms: N_7  and  C_8 
REMARK    3  A    between atoms: C_8  and  C_9 
REMARK       I    between atoms: C_9  and  N_10 
REMARK    4  A    between atoms: N_10  and  C_11 
REMARK    5  A    between atoms: C_11  and  C_12 
REMARK    6  A    between atoms: C_12  and  S_13 
REMARK    7  A    between atoms: S_13  and  C_14 
REMARK    8  A    between atoms: C_16  and  C_17 
ROOT
HETATM    1  C   UNL     1      33.426  49.381  41.703  1.00  0.00     0.309 C 
HETATM    2  N   UNL     1      34.599  49.557  41.007  1.00  0.00    -0.352 N 
HETATM    3  O   UNL     1      33.036  50.050  42.650  1.00  0.00    -0.262 OA
HETATM    4  H   UNL     1      34.813  48.841  40.315  1.00  0.00     0.162 HD
ENDROOT
BRANCH   1   5
HETATM    5  C   UNL     1      32.571  48.204  41.184  1.00  0.00     0.313 C 
HETATM    6  N   UNL     1      31.349  48.626  40.706  1.00  0.00    -0.319 N 
HETATM    7  H   UNL     1      31.218  49.634  40.732  1.00  0.00     0.169 HD
HETATM    8  O   UNL     1      33.045  47.078  41.233  1.00  0.00    -0.262 OA
BRANCH   6   9
HETATM    9  C   UNL     1      30.302  47.838  40.198  1.00  0.00     0.037 A 
HETATM   10  C   UNL     1      30.373  47.128  38.991  1.00  0.00     0.059 A 
HETATM   11  C   UNL     1      29.291  46.354  38.552  1.00  0.00     0.036 A 
HETATM   12  C   UNL     1      28.124  46.312  39.327  1.00  0.00     0.029 A 
HETATM   13  C   UNL     1      28.048  47.013  40.531  1.00  0.00     0.004 A 
HETATM   14  C   UNL     1      29.135  47.767  40.966  1.00  0.00     0.029 A 
BRANCH  11  15
HETATM   15  N   UNL     1      29.286  45.599  37.358  1.00  0.00    -0.327 N 
HETATM   16  C   UNL     1      29.568  44.254  37.208  1.00  0.00     0.218 C 
HETATM   17  C   UNL     1      29.496  43.794  35.772  1.00  0.00     0.117 C 
HETATM   18  O   UNL     1      29.834  43.452  38.095  1.00  0.00    -0.274 OA
HETATM   19  H   UNL     1      29.002  46.100  36.526  1.00  0.00     0.169 HD
ENDBRANCH  11  15
ENDBRANCH   6   9
ENDBRANCH   1   5
BRANCH   2  20
HETATM   20  C   UNL     1      35.640  50.469  41.432  1.00  0.00     0.133 C 
BRANCH  20  21
HETATM   21  C   UNL     1      35.330  51.932  41.103  1.00  0.00     0.102 C 
BRANCH  21  22
HETATM   22  S   UNL     1      34.702  52.094  39.396  1.00  0.00    -0.090 SA
BRANCH  22  23
HETATM   23  C   UNL     1      33.017  52.268  39.697  1.00  0.00     0.166 A 
HETATM   24  N   UNL     1      32.052  51.445  39.374  1.00  0.00    -0.223 NA
HETATM   25  C   UNL     1      30.892  52.059  39.808  1.00  0.00     0.085 A 
HETATM   26  C   UNL     1      31.189  53.266  40.408  1.00  0.00     0.122 A 
HETATM   27  N   UNL     1      32.551  53.382  40.328  1.00  0.00    -0.343 N 
HETATM   28  H   UNL     1      33.125  54.141  40.664  1.00  0.00     0.167 HD
BRANCH  25  29
HETATM   29  C   UNL     1      29.569  51.474  39.630  1.00  0.00    -0.006 A 
HETATM   30  C   UNL     1      28.649  51.519  40.687  1.00  0.00     0.014 A 
HETATM   31  C   UNL     1      27.373  50.963  40.554  1.00  0.00     0.001 A 
HETATM   32  C   UNL     1      27.002  50.354  39.359  1.00  0.00     0.000 A 
HETATM   33  C   UNL     1      27.904  50.299  38.299  1.00  0.00     0.001 A 
HETATM   34  C   UNL     1      29.180  50.856  38.433  1.00  0.00     0.014 A 
ENDBRANCH  25  29
ENDBRANCH  22  23
ENDBRANCH  21  22
ENDBRANCH  20  21
ENDBRANCH   2  20
TORSDOF 8
ENDMDL
MODEL 10
REMARK VINA RESULT:      -8.7     11.835     13.576
REMARK  8 active torsions:
REMARK  status: ('A' for Active; 'I' for Inactive)
REMARK       I    between atoms: C_2  and  N_3 
REMARK    1  A    between atoms: N_3  and  C_4 
REMARK    2  A    between atoms: C_6  and  N_7 
REMARK       I    between atoms: N_7  and  C_8 
REMARK    3  A    between atoms: C_8  and  C_9 
REMARK       I    between atoms: C_9  and  N_10 
REMARK    4  A    between atoms: N_10  and  C_11 
REMARK    5  A    between atoms: C_11  and  C_12 
REMARK    6  A    between atoms: C_12  and  S_13 
REMARK    7  A    between atoms: S_13  and  C_14 
REMARK    8  A    between atoms: C_16  and  C_17 
ROOT
HETATM    1  C   UNL     1      26.412  49.972  38.093  1.00  0.00     0.309 C 
HETATM    2  N   UNL     1      25.471  50.041  39.093  1.00  0.00    -0.352 N 
HETATM    3  O   UNL     1      26.257  49.486  36.982  1.00  0.00    -0.262 OA
HETATM    4  H   UNL     1      25.806  50.384  39.992  1.00  0.00     0.162 HD
ENDROOT
BRANCH   1   5
HETATM    5  C   UNL     1      27.775  50.585  38.485  1.00  0.00     0.313 C 
HETATM    6  N   UNL     1      27.663  51.452  39.551  1.00  0.00    -0.319 N 
HETATM    7  H   UNL     1      26.723  51.522  39.933  1.00  0.00     0.169 HD
HETATM    8  O   UNL     1      28.766  50.246  37.854  1.00  0.00    -0.262 OA
BRANCH   6   9
HETATM    9  C   UNL     1      28.677  52.219  40.151  1.00  0.00     0.037 A 
HETATM   10  C   UNL     1      29.305  51.878  41.356  1.00  0.00     0.059 A 
HETATM   11  C   UNL     1      30.317  52.687  41.889  1.00  0.00     0.036 A 
HETATM   12  C   UNL     1      30.683  53.857  41.210  1.00  0.00     0.029 A 
HETATM   13  C   UNL     1      30.064  54.201  40.008  1.00  0.00     0.004 A 
HETATM   14  C   UNL     1      29.070  53.381  39.478  1.00  0.00     0.029 A 
BRANCH  11  15
HETATM   15  N   UNL     1      31.009  52.408  43.088  1.00  0.00    -0.327 N 
HETATM   16  C   UNL     1      32.319  51.990  43.230  1.00  0.00     0.218 C 
HETATM   17  C   UNL     1      32.711  51.757  44.670  1.00  0.00     0.117 C 
HETATM   18  O   UNL     1      33.143  51.825  42.338  1.00  0.00    -0.274 OA
HETATM   19  H   UNL     1      30.491  52.575  43.941  1.00  0.00     0.169 HD
ENDBRANCH  11  15
ENDBRANCH   6   9
ENDBRANCH   1   5
BRANCH   2  20
HETATM   20  C   UNL     1      24.192  49.366  39.022  1.00  0.00     0.133 C 
BRANCH  20  21
HETATM   21  C   UNL     1      24.098  48.156  39.956  1.00  0.00     0.102 C 
BRANCH  21  22
HETATM   22  S   UNL     1      24.540  46.620  39.074  1.00  0.00    -0.090 SA
BRANCH  22  23
HETATM   23  C   UNL     1      26.254  46.656  39.222  1.00  0.00     0.166 A 
HETATM   24  N   UNL     1      26.973  47.299  40.107  1.00  0.00    -0.223 NA
HETATM   25  C   UNL     1      28.286  47.029  39.772  1.00  0.00     0.085 A 
HETATM   26  C   UNL     1      28.335  46.199  38.670  1.00  0.00     0.122 A 
HETATM   27  N   UNL     1      27.028  45.971  38.334  1.00  0.00    -0.343 N 
HETATM   28  H   UNL     1      26.676  45.407  37.573  1.00  0.00     0.167 HD
BRANCH  25  29
HETATM   29  C   UNL     1      29.421  47.570  40.509  1.00  0.00    -0.006 A 
HETATM   30  C   UNL     1      30.713  47.432  39.981  1.00  0.00     0.014 A 
HETATM   31  C   UNL     1      31.825  47.934  40.662  1.00  0.00     0.001 A 
HETATM   32  C   UNL     1      31.659  48.581  41.883  1.00  0.00     0.000 A 
HETATM   33  C   UNL     1      30.383  48.726  42.423  1.00  0.00     0.001 A 
HETATM   34  C   UNL     1      29.270  48.224  41.740  1.00  0.00     0.014 A 
ENDBRANCH  25  29
ENDBRANCH  22  23
ENDBRANCH  21  22
ENDBRANCH  20  21
ENDBRANCH   2  20
TORSDOF 8
ENDMDL
