MODEL 1
REMARK VINA RESULT:      -9.5      0.000      0.000
REMARK  6 active torsions:
REMARK  status: ('A' for Active; 'I' for Inactive)
REMARK    1  A    between atoms: O_2  and  C_3 
REMARK    2  A    between atoms: C_6  and  C_7 
REMARK       I    between atoms: C_7  and  N_8 
REMARK    3  A    between atoms: N_8  and  C_9 
REMARK    4  A    between atoms: C_11  and  C_12 
REMARK    5  A    between atoms: C_12  and  C_13 
REMARK    6  A    between atoms: C_13  and  C_14 
ROOT
HETATM    1  C   UNL     1      24.615  47.726  49.881  1.00  0.00     0.725 A 
HETATM    2  N   UNL     1      24.920  46.491  50.183  1.00  0.00    -0.046 NA
HETATM    3  C   UNL     1      26.241  46.376  49.844  1.00  0.00     0.166 A 
HETATM    4  N   UNL     1      26.787  47.495  49.349  1.00  0.00    -0.144 NA
HETATM    5  N   UNL     1      25.737  48.335  49.387  1.00  0.00    -0.106 N 
HETATM    6  H   UNL     1      25.856  49.286  49.063  1.00  0.00     0.208 HD
ENDROOT
BRANCH   1   7
HETATM    7  N   UNL     1      23.417  48.385  50.029  1.00  0.00    -0.152 N 
HETATM    8  C   UNL     1      22.681  48.784  48.928  1.00  0.00     0.270 C 
HETATM    9  O   UNL     1      23.014  48.737  47.751  1.00  0.00    -0.267 OA
HETATM   10  H   UNL     1      23.100  48.633  50.953  1.00  0.00     0.187 HD
BRANCH   8  11
HETATM   11  C   UNL     1      21.360  49.385  49.251  1.00  0.00     0.033 A 
HETATM   12  C   UNL     1      20.241  48.546  49.315  1.00  0.00     0.020 A 
HETATM   13  C   UNL     1      18.985  49.067  49.640  1.00  0.00     0.038 A 
HETATM   14  C   UNL     1      18.843  50.427  49.916  1.00  0.00     0.068 A 
HETATM   15  C   UNL     1      19.964  51.260  49.859  1.00  0.00     0.038 A 
HETATM   16  C   UNL     1      21.222  50.747  49.533  1.00  0.00     0.020 A 
BRANCH  14  17
HETATM   17  O   UNL     1      17.679  51.060  50.256  1.00  0.00    -0.356 OA
HETATM   18  C   UNL     1      17.502  52.383  49.766  1.00  0.00     0.210 C 
ENDBRANCH  14  17
ENDBRANCH   8  11
ENDBRANCH   1   7
BRANCH   3  19
HETATM   19  C   UNL     1      27.000  45.123  50.077  1.00  0.00     0.087 C 
BRANCH  19  20
HETATM   20  C   UNL     1      26.384  44.275  51.193  1.00  0.00     0.048 C 
BRANCH  20  21
HETATM   21  C   UNL     1      27.009  44.555  52.525  1.00  0.00    -0.030 A 
HETATM   22  C   UNL     1      28.226  43.984  53.020  1.00  0.00    -0.002 A 
HETATM   23  C   UNL     1      28.446  44.506  54.295  1.00  0.00     0.042 A 
HETATM   24  C   UNL     1      29.159  43.065  52.498  1.00  0.00     0.014 A 
HETATM   25  C   UNL     1      29.553  44.154  55.076  1.00  0.00     0.030 A 
HETATM   26  N   UNL     1      27.408  45.369  54.560  1.00  0.00    -0.365 N 
HETATM   27  C   UNL     1      30.462  43.239  54.536  1.00  0.00     0.002 A 
HETATM   28  C   UNL     1      30.272  42.700  53.266  1.00  0.00     0.001 A 
HETATM   29  H   UNL     1      27.309  45.897  55.415  1.00  0.00     0.165 HD
HETATM   30  C   UNL     1      26.536  45.404  53.504  1.00  0.00     0.096 A 
ENDBRANCH  20  21
ENDBRANCH  19  20
ENDBRANCH   3  19
TORSDOF 6
ENDMDL
MODEL 2
REMARK VINA RESULT:      -9.4      1.867      2.790
REMARK  6 active torsions:
REMARK  status: ('A' for Active; 'I' for Inactive)
REMARK    1  A    between atoms: O_2  and  C_3 
REMARK    2  A    between atoms: C_6  and  C_7 
REMARK       I    between atoms: C_7  and  N_8 
REMARK    3  A    between atoms: N_8  and  C_9 
REMARK    4  A    between atoms: C_11  and  C_12 
REMARK    5  A    between atoms: C_12  and  C_13 
REMARK    6  A    between atoms: C_13  and  C_14 
ROOT
HETATM    1  C   UNL     1      25.174  45.957  50.781  1.00  0.00     0.725 A 
HETATM    2  N   UNL     1      25.290  45.424  51.969  1.00  0.00    -0.046 NA
HETATM    3  C   UNL     1      26.414  44.649  51.886  1.00  0.00     0.166 A 
HETATM    4  N   UNL     1      27.022  44.679  50.692  1.00  0.00    -0.144 NA
HETATM    5  N   UNL     1      26.219  45.518  50.012  1.00  0.00    -0.106 N 
HETATM    6  H   UNL     1      26.438  45.736  49.049  1.00  0.00     0.208 HD
ENDROOT
BRANCH   1   7
HETATM    7  N   UNL     1      24.225  46.834  50.311  1.00  0.00    -0.152 N 
HETATM    8  C   UNL     1      24.589  48.038  49.737  1.00  0.00     0.270 C 
HETATM    9  O   UNL     1      25.708  48.531  49.681  1.00  0.00    -0.267 OA
HETATM   10  H   UNL     1      23.248  46.622  50.442  1.00  0.00     0.187 HD
BRANCH   8  11
HETATM   11  C   UNL     1      23.456  48.826  49.181  1.00  0.00     0.033 A 
HETATM   12  C   UNL     1      22.229  48.182  48.978  1.00  0.00     0.020 A 
HETATM   13  C   UNL     1      21.132  48.892  48.482  1.00  0.00     0.038 A 
HETATM   14  C   UNL     1      21.252  50.253  48.198  1.00  0.00     0.068 A 
HETATM   15  C   UNL     1      22.476  50.894  48.409  1.00  0.00     0.038 A 
HETATM   16  C   UNL     1      23.577  50.191  48.904  1.00  0.00     0.020 A 
BRANCH  14  17
HETATM   17  O   UNL     1      20.259  51.064  47.720  1.00  0.00    -0.356 OA
HETATM   18  C   UNL     1      19.627  51.926  48.659  1.00  0.00     0.210 C 
ENDBRANCH  14  17
ENDBRANCH   8  11
ENDBRANCH   1   7
BRANCH   3  19
HETATM   19  C   UNL     1      26.933  43.898  53.055  1.00  0.00     0.087 C 
BRANCH  19  20
HETATM   20  C   UNL     1      28.437  44.104  53.251  1.00  0.00     0.048 C 
BRANCH  20  21
HETATM   21  C   UNL     1      28.745  44.854  54.510  1.00  0.00    -0.030 A 
HETATM   22  C   UNL     1      29.710  44.479  55.499  1.00  0.00    -0.002 A 
HETATM   23  C   UNL     1      29.676  45.445  56.505  1.00  0.00     0.042 A 
HETATM   24  C   UNL     1      30.610  43.401  55.629  1.00  0.00     0.014 A 
HETATM   25  C   UNL     1      30.496  45.385  57.639  1.00  0.00     0.030 A 
HETATM   26  N   UNL     1      28.733  46.376  56.138  1.00  0.00    -0.365 N 
HETATM   27  C   UNL     1      31.377  44.304  57.745  1.00  0.00     0.002 A 
HETATM   28  C   UNL     1      31.436  43.325  56.757  1.00  0.00     0.001 A 
HETATM   29  H   UNL     1      28.498  47.195  56.679  1.00  0.00     0.165 HD
HETATM   30  C   UNL     1      28.164  46.030  54.940  1.00  0.00     0.096 A 
ENDBRANCH  20  21
ENDBRANCH  19  20
ENDBRANCH   3  19
TORSDOF 6
ENDMDL
MODEL 3
REMARK VINA RESULT:      -9.1      2.630      9.642
REMARK  6 active torsions:
REMARK  status: ('A' for Active; 'I' for Inactive)
REMARK    1  A    between atoms: O_2  and  C_3 
REMARK    2  A    between atoms: C_6  and  C_7 
REMARK       I    between atoms: C_7  and  N_8 
REMARK    3  A    between atoms: N_8  and  C_9 
REMARK    4  A    between atoms: C_11  and  C_12 
REMARK    5  A    between atoms: C_12  and  C_13 
REMARK    6  A    between atoms: C_13  and  C_14 
ROOT
HETATM    1  C   UNL     1      25.992  48.505  49.269  1.00  0.00     0.725 A 
HETATM    2  N   UNL     1      24.783  49.004  49.276  1.00  0.00    -0.046 NA
HETATM    3  C   UNL     1      24.822  50.001  48.340  1.00  0.00     0.166 A 
HETATM    4  N   UNL     1      26.007  50.145  47.732  1.00  0.00    -0.144 NA
HETATM    5  N   UNL     1      26.728  49.184  48.335  1.00  0.00    -0.106 N 
HETATM    6  H   UNL     1      27.695  49.054  48.069  1.00  0.00     0.208 HD
ENDROOT
BRANCH   1   7
HETATM    7  N   UNL     1      26.507  47.467  50.009  1.00  0.00    -0.152 N 
HETATM    8  C   UNL     1      25.916  47.076  51.196  1.00  0.00     0.270 C 
HETATM    9  O   UNL     1      25.000  47.628  51.792  1.00  0.00    -0.267 OA
HETATM   10  H   UNL     1      27.362  47.024  49.712  1.00  0.00     0.187 HD
BRANCH   8  11
HETATM   11  C   UNL     1      26.523  45.871  51.823  1.00  0.00     0.033 A 
HETATM   12  C   UNL     1      26.939  44.823  50.993  1.00  0.00     0.020 A 
HETATM   13  C   UNL     1      27.537  43.684  51.540  1.00  0.00     0.038 A 
HETATM   14  C   UNL     1      27.737  43.593  52.918  1.00  0.00     0.068 A 
HETATM   15  C   UNL     1      27.327  44.645  53.743  1.00  0.00     0.038 A 
HETATM   16  C   UNL     1      26.727  45.786  53.203  1.00  0.00     0.020 A 
BRANCH  14  17
HETATM   17  O   UNL     1      28.317  42.544  53.577  1.00  0.00    -0.356 OA
HETATM   18  C   UNL     1      28.182  41.259  52.983  1.00  0.00     0.210 C 
ENDBRANCH  14  17
ENDBRANCH   8  11
ENDBRANCH   1   7
BRANCH   3  19
HETATM   19  C   UNL     1      23.618  50.797  47.998  1.00  0.00     0.087 C 
BRANCH  19  20
HETATM   20  C   UNL     1      22.507  49.934  47.395  1.00  0.00     0.048 C 
BRANCH  20  21
HETATM   21  C   UNL     1      21.407  49.665  48.375  1.00  0.00    -0.030 A 
HETATM   22  C   UNL     1      20.336  50.557  48.704  1.00  0.00    -0.002 A 
HETATM   23  C   UNL     1      19.539  49.922  49.657  1.00  0.00     0.042 A 
HETATM   24  C   UNL     1      19.974  51.851  48.276  1.00  0.00     0.014 A 
HETATM   25  C   UNL     1      18.398  50.519  50.207  1.00  0.00     0.030 A 
HETATM   26  N   UNL     1      20.100  48.689  49.892  1.00  0.00    -0.365 N 
HETATM   27  C   UNL     1      18.063  51.804  49.769  1.00  0.00     0.002 A 
HETATM   28  C   UNL     1      18.837  52.463  48.817  1.00  0.00     0.001 A 
HETATM   29  H   UNL     1      19.728  48.007  50.538  1.00  0.00     0.165 HD
HETATM   30  C   UNL     1      21.225  48.523  49.129  1.00  0.00     0.096 A 
ENDBRANCH  20  21
ENDBRANCH  19  20
ENDBRANCH   3  19
TORSDOF 6
ENDMDL
MODEL 4
REMARK VINA RESULT:      -9.0      3.024     10.193
REMARK  6 active torsions:
REMARK  status: ('A' for Active; 'I' for Inactive)
REMARK    1  A    between atoms: O_2  and  C_3 
REMARK    2  A    between atoms: C_6  and  C_7 
REMARK       I    between atoms: C_7  and  N_8 
REMARK    3  A    between atoms: N_8  and  C_9 
REMARK    4  A    between atoms: C_11  and  C_12 
REMARK    5  A    between atoms: C_12  and  C_13 
REMARK    6  A    between atoms: C_13  and  C_14 
ROOT
HETATM    1  C   UNL     1      25.097  46.849  50.770  1.00  0.00     0.725 A 
HETATM    2  N   UNL     1      24.824  48.043  50.309  1.00  0.00    -0.046 NA
HETATM    3  C   UNL     1      23.732  47.855  49.507  1.00  0.00     0.166 A 
HETATM    4  N   UNL     1      23.296  46.589  49.451  1.00  0.00    -0.144 NA
HETATM    5  N   UNL     1      24.175  45.974  50.262  1.00  0.00    -0.106 N 
HETATM    6  H   UNL     1      24.090  44.978  50.415  1.00  0.00     0.208 HD
ENDROOT
BRANCH   1   7
HETATM    7  N   UNL     1      26.092  46.461  51.636  1.00  0.00    -0.152 N 
HETATM    8  C   UNL     1      26.115  46.910  52.944  1.00  0.00     0.270 C 
HETATM    9  O   UNL     1      25.393  47.757  53.455  1.00  0.00    -0.267 OA
HETATM   10  H   UNL     1      26.848  45.887  51.296  1.00  0.00     0.187 HD
BRANCH   8  11
HETATM   11  C   UNL     1      27.189  46.316  53.784  1.00  0.00     0.033 A 
HETATM   12  C   UNL     1      27.763  47.103  54.789  1.00  0.00     0.020 A 
HETATM   13  C   UNL     1      28.758  46.575  55.618  1.00  0.00     0.038 A 
HETATM   14  C   UNL     1      29.173  45.254  55.455  1.00  0.00     0.068 A 
HETATM   15  C   UNL     1      28.592  44.468  54.455  1.00  0.00     0.038 A 
HETATM   16  C   UNL     1      27.598  44.990  53.623  1.00  0.00     0.020 A 
BRANCH  14  17
HETATM   17  O   UNL     1      30.124  44.614  56.202  1.00  0.00    -0.356 OA
HETATM   18  C   UNL     1      30.714  43.453  55.629  1.00  0.00     0.210 C 
ENDBRANCH  14  17
ENDBRANCH   8  11
ENDBRANCH   1   7
BRANCH   3  19
HETATM   19  C   UNL     1      23.065  48.987  48.820  1.00  0.00     0.087 C 
BRANCH  19  20
HETATM   20  C   UNL     1      21.824  48.540  48.042  1.00  0.00     0.048 C 
BRANCH  20  21
HETATM   21  C   UNL     1      20.556  48.866  48.768  1.00  0.00    -0.030 A 
HETATM   22  C   UNL     1      19.911  50.145  48.802  1.00  0.00    -0.002 A 
HETATM   23  C   UNL     1      18.766  50.015  49.589  1.00  0.00     0.042 A 
HETATM   24  C   UNL     1      20.201  51.403  48.236  1.00  0.00     0.014 A 
HETATM   25  C   UNL     1      17.897  51.084  49.840  1.00  0.00     0.030 A 
HETATM   26  N   UNL     1      18.712  48.707  50.009  1.00  0.00    -0.365 N 
HETATM   27  C   UNL     1      18.209  52.322  49.270  1.00  0.00     0.002 A 
HETATM   28  C   UNL     1      19.343  52.482  48.478  1.00  0.00     0.001 A 
HETATM   29  H   UNL     1      17.983  48.325  50.593  1.00  0.00     0.165 HD
HETATM   30  C   UNL     1      19.785  48.006  49.523  1.00  0.00     0.096 A 
ENDBRANCH  20  21
ENDBRANCH  19  20
ENDBRANCH   3  19
TORSDOF 6
ENDMDL
MODEL 5
REMARK VINA RESULT:      -8.9      1.915      2.292
REMARK  6 active torsions:
REMARK  status: ('A' for Active; 'I' for Inactive)
REMARK    1  A    between atoms: O_2  and  C_3 
REMARK    2  A    between atoms: C_6  and  C_7 
REMARK       I    between atoms: C_7  and  N_8 
REMARK    3  A    between atoms: N_8  and  C_9 
REMARK    4  A    between atoms: C_11  and  C_12 
REMARK    5  A    between atoms: C_12  and  C_13 
REMARK    6  A    between atoms: C_13  and  C_14 
ROOT
HETATM    1  C   UNL     1      23.878  48.664  49.280  1.00  0.00     0.725 A 
HETATM    2  N   UNL     1      24.138  47.757  50.186  1.00  0.00    -0.046 NA
HETATM    3  C   UNL     1      25.503  47.677  50.204  1.00  0.00     0.166 A 
HETATM    4  N   UNL     1      26.119  48.509  49.352  1.00  0.00    -0.144 NA
HETATM    5  N   UNL     1      25.067  49.124  48.783  1.00  0.00    -0.106 N 
HETATM    6  H   UNL     1      25.234  49.828  48.076  1.00  0.00     0.208 HD
ENDROOT
BRANCH   1   7
HETATM    7  N   UNL     1      22.661  49.151  48.864  1.00  0.00    -0.152 N 
HETATM    8  C   UNL     1      22.206  50.387  49.283  1.00  0.00     0.270 C 
HETATM    9  O   UNL     1      22.708  51.122  50.124  1.00  0.00    -0.267 OA
HETATM   10  H   UNL     1      22.066  48.572  48.292  1.00  0.00     0.187 HD
BRANCH   8  11
HETATM   11  C   UNL     1      20.926  50.820  48.662  1.00  0.00     0.033 A 
HETATM   12  C   UNL     1      20.531  50.222  47.459  1.00  0.00     0.020 A 
HETATM   13  C   UNL     1      19.323  50.581  46.854  1.00  0.00     0.038 A 
HETATM   14  C   UNL     1      18.496  51.530  47.456  1.00  0.00     0.068 A 
HETATM   15  C   UNL     1      18.890  52.119  48.662  1.00  0.00     0.038 A 
HETATM   16  C   UNL     1      20.096  51.766  49.270  1.00  0.00     0.020 A 
BRANCH  14  17
HETATM   17  O   UNL     1      17.289  51.961  46.979  1.00  0.00    -0.356 OA
HETATM   18  C   UNL     1      16.180  51.874  47.866  1.00  0.00     0.210 C 
ENDBRANCH  14  17
ENDBRANCH   8  11
ENDBRANCH   1   7
BRANCH   3  19
HETATM   19  C   UNL     1      26.220  46.784  51.146  1.00  0.00     0.087 C 
BRANCH  19  20
HETATM   20  C   UNL     1      25.420  46.535  52.427  1.00  0.00     0.048 C 
BRANCH  20  21
HETATM   21  C   UNL     1      26.230  46.798  53.659  1.00  0.00    -0.030 A 
HETATM   22  C   UNL     1      27.304  45.988  54.149  1.00  0.00    -0.002 A 
HETATM   23  C   UNL     1      27.780  46.585  55.317  1.00  0.00     0.042 A 
HETATM   24  C   UNL     1      27.914  44.797  53.704  1.00  0.00     0.014 A 
HETATM   25  C   UNL     1      28.835  46.048  56.064  1.00  0.00     0.030 A 
HETATM   26  N   UNL     1      27.030  47.719  55.524  1.00  0.00    -0.365 N 
HETATM   27  C   UNL     1      29.420  44.865  55.603  1.00  0.00     0.002 A 
HETATM   28  C   UNL     1      28.969  44.246  54.440  1.00  0.00     0.001 A 
HETATM   29  H   UNL     1      27.158  48.354  56.298  1.00  0.00     0.165 HD
HETATM   30  C   UNL     1      26.092  47.857  54.534  1.00  0.00     0.096 A 
ENDBRANCH  20  21
ENDBRANCH  19  20
ENDBRANCH   3  19
TORSDOF 6
ENDMDL
MODEL 6
REMARK VINA RESULT:      -8.9      1.623      2.210
REMARK  6 active torsions:
REMARK  status: ('A' for Active; 'I' for Inactive)
REMARK    1  A    between atoms: O_2  and  C_3 
REMARK    2  A    between atoms: C_6  and  C_7 
REMARK       I    between atoms: C_7  and  N_8 
REMARK    3  A    between atoms: N_8  and  C_9 
REMARK    4  A    between atoms: C_11  and  C_12 
REMARK    5  A    between atoms: C_12  and  C_13 
REMARK    6  A    between atoms: C_13  and  C_14 
ROOT
HETATM    1  C   UNL     1      23.592  48.520  49.501  1.00  0.00     0.725 A 
HETATM    2  N   UNL     1      23.993  47.374  49.989  1.00  0.00    -0.046 NA
HETATM    3  C   UNL     1      25.348  47.380  49.800  1.00  0.00     0.166 A 
HETATM    4  N   UNL     1      25.822  48.492  49.221  1.00  0.00    -0.144 NA
HETATM    5  N   UNL     1      24.691  49.197  49.046  1.00  0.00    -0.106 N 
HETATM    6  H   UNL     1      24.743  50.111  48.616  1.00  0.00     0.208 HD
ENDROOT
BRANCH   1   7
HETATM    7  N   UNL     1      22.321  49.041  49.444  1.00  0.00    -0.152 N 
HETATM    8  C   UNL     1      22.076  50.359  49.781  1.00  0.00     0.270 C 
HETATM    9  O   UNL     1      22.859  51.164  50.270  1.00  0.00    -0.267 OA
HETATM   10  H   UNL     1      21.549  48.437  49.210  1.00  0.00     0.187 HD
BRANCH   8  11
HETATM   11  C   UNL     1      20.672  50.803  49.564  1.00  0.00     0.033 A 
HETATM   12  C   UNL     1      20.411  51.715  48.535  1.00  0.00     0.020 A 
HETATM   13  C   UNL     1      19.103  52.139  48.281  1.00  0.00     0.038 A 
HETATM   14  C   UNL     1      18.048  51.642  49.046  1.00  0.00     0.068 A 
HETATM   15  C   UNL     1      18.311  50.725  50.068  1.00  0.00     0.038 A 
HETATM   16  C   UNL     1      19.616  50.299  50.328  1.00  0.00     0.020 A 
BRANCH  14  17
HETATM   17  O   UNL     1      16.727  51.964  48.895  1.00  0.00    -0.356 OA
HETATM   18  C   UNL     1      15.902  51.001  48.251  1.00  0.00     0.210 C 
ENDBRANCH  14  17
ENDBRANCH   8  11
ENDBRANCH   1   7
BRANCH   3  19
HETATM   19  C   UNL     1      26.206  46.265  50.267  1.00  0.00     0.087 C 
BRANCH  19  20
HETATM   20  C   UNL     1      25.825  45.793  51.673  1.00  0.00     0.048 C 
BRANCH  20  21
HETATM   21  C   UNL     1      26.310  44.405  51.954  1.00  0.00    -0.030 A 
HETATM   22  C   UNL     1      27.348  44.045  52.872  1.00  0.00    -0.002 A 
HETATM   23  C   UNL     1      27.487  42.658  52.826  1.00  0.00     0.042 A 
HETATM   24  C   UNL     1      28.185  44.779  53.739  1.00  0.00     0.014 A 
HETATM   25  C   UNL     1      28.425  41.966  53.602  1.00  0.00     0.030 A 
HETATM   26  N   UNL     1      26.563  42.191  51.921  1.00  0.00    -0.365 N 
HETATM   27  C   UNL     1      29.245  42.716  54.451  1.00  0.00     0.002 A 
HETATM   28  C   UNL     1      29.129  44.102  54.521  1.00  0.00     0.001 A 
HETATM   29  H   UNL     1      26.434  41.217  51.688  1.00  0.00     0.165 HD
HETATM   30  C   UNL     1      25.851  43.233  51.387  1.00  0.00     0.096 A 
ENDBRANCH  20  21
ENDBRANCH  19  20
ENDBRANCH   3  19
TORSDOF 6
ENDMDL
MODEL 7
REMARK VINA RESULT:      -8.5      3.833      9.776
REMARK  6 active torsions:
REMARK  status: ('A' for Active; 'I' for Inactive)
REMARK    1  A    between atoms: O_2  and  C_3 
REMARK    2  A    between atoms: C_6  and  C_7 
REMARK       I    between atoms: C_7  and  N_8 
REMARK    3  A    between atoms: N_8  and  C_9 
REMARK    4  A    between atoms: C_11  and  C_12 
REMARK    5  A    between atoms: C_12  and  C_13 
REMARK    6  A    between atoms: C_13  and  C_14 
ROOT
HETATM    1  C   UNL     1      25.056  43.998  51.885  1.00  0.00     0.725 A 
HETATM    2  N   UNL     1      24.382  44.867  51.177  1.00  0.00    -0.046 NA
HETATM    3  C   UNL     1      23.559  44.102  50.396  1.00  0.00     0.166 A 
HETATM    4  N   UNL     1      23.678  42.782  50.591  1.00  0.00    -0.144 NA
HETATM    5  N   UNL     1      24.629  42.744  51.541  1.00  0.00    -0.106 N 
HETATM    6  H   UNL     1      24.933  41.847  51.896  1.00  0.00     0.208 HD
ENDROOT
BRANCH   1   7
HETATM    7  N   UNL     1      26.015  44.219  52.846  1.00  0.00    -0.152 N 
HETATM    8  C   UNL     1      27.182  43.478  52.871  1.00  0.00     0.270 C 
HETATM    9  O   UNL     1      27.464  42.504  52.185  1.00  0.00    -0.267 OA
HETATM   10  H   UNL     1      25.837  44.889  53.577  1.00  0.00     0.187 HD
BRANCH   8  11
HETATM   11  C   UNL     1      28.165  43.907  53.901  1.00  0.00     0.033 A 
HETATM   12  C   UNL     1      29.295  43.110  54.121  1.00  0.00     0.020 A 
HETATM   13  C   UNL     1      30.256  43.490  55.062  1.00  0.00     0.038 A 
HETATM   14  C   UNL     1      30.101  44.677  55.778  1.00  0.00     0.068 A 
HETATM   15  C   UNL     1      28.975  45.475  55.551  1.00  0.00     0.038 A 
HETATM   16  C   UNL     1      28.010  45.100  54.613  1.00  0.00     0.020 A 
BRANCH  14  17
HETATM   17  O   UNL     1      30.968  45.169  56.715  1.00  0.00    -0.356 OA
HETATM   18  C   UNL     1      30.392  45.774  57.867  1.00  0.00     0.210 C 
ENDBRANCH  14  17
ENDBRANCH   8  11
ENDBRANCH   1   7
BRANCH   3  19
HETATM   19  C   UNL     1      22.578  44.712  49.466  1.00  0.00     0.087 C 
BRANCH  19  20
HETATM   20  C   UNL     1      23.207  45.808  48.601  1.00  0.00     0.048 C 
BRANCH  20  21
HETATM   21  C   UNL     1      22.338  47.024  48.510  1.00  0.00    -0.030 A 
HETATM   22  C   UNL     1      22.789  48.383  48.506  1.00  0.00    -0.002 A 
HETATM   23  C   UNL     1      21.661  49.199  48.411  1.00  0.00     0.042 A 
HETATM   24  C   UNL     1      24.059  48.993  48.577  1.00  0.00     0.014 A 
HETATM   25  C   UNL     1      21.739  50.596  48.387  1.00  0.00     0.030 A 
HETATM   26  N   UNL     1      20.567  48.367  48.351  1.00  0.00    -0.365 N 
HETATM   27  C   UNL     1      23.009  51.176  48.462  1.00  0.00     0.002 A 
HETATM   28  C   UNL     1      24.155  50.389  48.555  1.00  0.00     0.001 A 
HETATM   29  H   UNL     1      19.612  48.686  48.274  1.00  0.00     0.165 HD
HETATM   30  C   UNL     1      20.961  47.056  48.412  1.00  0.00     0.096 A 
ENDBRANCH  20  21
ENDBRANCH  19  20
ENDBRANCH   3  19
TORSDOF 6
ENDMDL
MODEL 8
REMARK VINA RESULT:      -8.4      3.943      9.517
REMARK  6 active torsions:
REMARK  status: ('A' for Active; 'I' for Inactive)
REMARK    1  A    between atoms: O_2  and  C_3 
REMARK    2  A    between atoms: C_6  and  C_7 
REMARK       I    between atoms: C_7  and  N_8 
REMARK    3  A    between atoms: N_8  and  C_9 
REMARK    4  A    between atoms: C_11  and  C_12 
REMARK    5  A    between atoms: C_12  and  C_13 
REMARK    6  A    between atoms: C_13  and  C_14 
ROOT
HETATM    1  C   UNL     1      25.650  44.372  51.939  1.00  0.00     0.725 A 
HETATM    2  N   UNL     1      25.454  45.271  51.009  1.00  0.00    -0.046 NA
HETATM    3  C   UNL     1      24.394  44.789  50.290  1.00  0.00     0.166 A 
HETATM    4  N   UNL     1      23.903  43.625  50.737  1.00  0.00    -0.144 NA
HETATM    5  N   UNL     1      24.714  43.386  51.784  1.00  0.00    -0.106 N 
HETATM    6  H   UNL     1      24.576  42.546  52.331  1.00  0.00     0.208 HD
ENDROOT
BRANCH   1   7
HETATM    7  N   UNL     1      26.584  44.358  52.948  1.00  0.00    -0.152 N 
HETATM    8  C   UNL     1      27.886  43.960  52.709  1.00  0.00     0.270 C 
HETATM    9  O   UNL     1      28.342  43.472  51.683  1.00  0.00    -0.267 OA
HETATM   10  H   UNL     1      26.299  44.584  53.889  1.00  0.00     0.187 HD
BRANCH   8  11
HETATM   11  C   UNL     1      28.801  44.102  53.873  1.00  0.00     0.033 A 
HETATM   12  C   UNL     1      28.625  45.194  54.732  1.00  0.00     0.020 A 
HETATM   13  C   UNL     1      29.447  45.352  55.852  1.00  0.00     0.038 A 
HETATM   14  C   UNL     1      30.440  44.411  56.127  1.00  0.00     0.068 A 
HETATM   15  C   UNL     1      30.608  43.319  55.271  1.00  0.00     0.038 A 
HETATM   16  C   UNL     1      29.791  43.156  54.149  1.00  0.00     0.020 A 
BRANCH  14  17
HETATM   17  O   UNL     1      31.301  44.441  57.189  1.00  0.00    -0.356 OA
HETATM   18  C   UNL     1      32.142  43.307  57.365  1.00  0.00     0.210 C 
ENDBRANCH  14  17
ENDBRANCH   8  11
ENDBRANCH   1   7
BRANCH   3  19
HETATM   19  C   UNL     1      23.812  45.546  49.156  1.00  0.00     0.087 C 
BRANCH  19  20
HETATM   20  C   UNL     1      23.068  46.801  49.620  1.00  0.00     0.048 C 
BRANCH  20  21
HETATM   21  C   UNL     1      23.586  48.041  48.959  1.00  0.00    -0.030 A 
HETATM   22  C   UNL     1      24.937  48.515  48.997  1.00  0.00    -0.002 A 
HETATM   23  C   UNL     1      24.988  49.697  48.260  1.00  0.00     0.042 A 
HETATM   24  C   UNL     1      26.123  48.042  49.598  1.00  0.00     0.014 A 
HETATM   25  C   UNL     1      26.167  50.435  48.094  1.00  0.00     0.030 A 
HETATM   26  N   UNL     1      23.719  49.929  47.783  1.00  0.00    -0.365 N 
HETATM   27  C   UNL     1      27.328  49.947  48.702  1.00  0.00     0.002 A 
HETATM   28  C   UNL     1      27.310  48.768  49.443  1.00  0.00     0.001 A 
HETATM   29  H   UNL     1      23.461  50.719  47.209  1.00  0.00     0.165 HD
HETATM   30  C   UNL     1      22.866  48.941  48.199  1.00  0.00     0.096 A 
ENDBRANCH  20  21
ENDBRANCH  19  20
ENDBRANCH   3  19
TORSDOF 6
ENDMDL
MODEL 9
REMARK VINA RESULT:      -8.4      7.797     10.327
REMARK  6 active torsions:
REMARK  status: ('A' for Active; 'I' for Inactive)
REMARK    1  A    between atoms: O_2  and  C_3 
REMARK    2  A    between atoms: C_6  and  C_7 
REMARK       I    between atoms: C_7  and  N_8 
REMARK    3  A    between atoms: N_8  and  C_9 
REMARK    4  A    between atoms: C_11  and  C_12 
REMARK    5  A    between atoms: C_12  and  C_13 
REMARK    6  A    between atoms: C_13  and  C_14 
ROOT
HETATM    1  C   UNL     1      27.784  40.142  51.232  1.00  0.00     0.725 A 
HETATM    2  N   UNL     1      27.106  41.172  51.669  1.00  0.00    -0.046 NA
HETATM    3  C   UNL     1      27.919  41.739  52.611  1.00  0.00     0.166 A 
HETATM    4  N   UNL     1      29.092  41.114  52.781  1.00  0.00    -0.144 NA
HETATM    5  N   UNL     1      28.983  40.109  51.893  1.00  0.00    -0.106 N 
HETATM    6  H   UNL     1      29.745  39.452  51.798  1.00  0.00     0.208 HD
ENDROOT
BRANCH   1   7
HETATM    7  N   UNL     1      27.444  39.226  50.265  1.00  0.00    -0.152 N 
HETATM    8  C   UNL     1      28.314  38.922  49.233  1.00  0.00     0.270 C 
HETATM    9  O   UNL     1      29.375  39.470  48.965  1.00  0.00    -0.267 OA
HETATM   10  H   UNL     1      26.524  38.814  50.275  1.00  0.00     0.187 HD
BRANCH   8  11
HETATM   11  C   UNL     1      27.848  37.835  48.331  1.00  0.00     0.033 A 
HETATM   12  C   UNL     1      26.935  36.897  48.829  1.00  0.00     0.020 A 
HETATM   13  C   UNL     1      26.453  35.875  48.006  1.00  0.00     0.038 A 
HETATM   14  C   UNL     1      26.870  35.793  46.677  1.00  0.00     0.068 A 
HETATM   15  C   UNL     1      27.775  36.736  46.181  1.00  0.00     0.038 A 
HETATM   16  C   UNL     1      28.262  37.759  46.998  1.00  0.00     0.020 A 
BRANCH  14  17
HETATM   17  O   UNL     1      26.469  34.854  45.767  1.00  0.00    -0.356 OA
HETATM   18  C   UNL     1      25.954  35.337  44.532  1.00  0.00     0.210 C 
ENDBRANCH  14  17
ENDBRANCH   8  11
ENDBRANCH   1   7
BRANCH   3  19
HETATM   19  C   UNL     1      27.537  42.981  53.325  1.00  0.00     0.087 C 
BRANCH  19  20
HETATM   20  C   UNL     1      28.596  44.078  53.181  1.00  0.00     0.048 C 
BRANCH  20  21
HETATM   21  C   UNL     1      28.845  44.794  54.473  1.00  0.00    -0.030 A 
HETATM   22  C   UNL     1      29.784  44.407  55.483  1.00  0.00    -0.002 A 
HETATM   23  C   UNL     1      29.696  45.340  56.516  1.00  0.00     0.042 A 
HETATM   24  C   UNL     1      30.700  43.343  55.611  1.00  0.00     0.014 A 
HETATM   25  C   UNL     1      30.478  45.260  57.675  1.00  0.00     0.030 A 
HETATM   26  N   UNL     1      28.746  46.263  56.145  1.00  0.00    -0.365 N 
HETATM   27  C   UNL     1      31.376  44.194  57.779  1.00  0.00     0.002 A 
HETATM   28  C   UNL     1      31.489  43.248  56.763  1.00  0.00     0.001 A 
HETATM   29  H   UNL     1      28.477  47.060  56.703  1.00  0.00     0.165 HD
HETATM   30  C   UNL     1      28.226  45.944  54.919  1.00  0.00     0.096 A 
ENDBRANCH  20  21
ENDBRANCH  19  20
ENDBRANCH   3  19
TORSDOF 6
ENDMDL
MODEL 10
REMARK VINA RESULT:      -8.3      3.651     10.144
REMARK  6 active torsions:
REMARK  status: ('A' for Active; 'I' for Inactive)
REMARK    1  A    between atoms: O_2  and  C_3 
REMARK    2  A    between atoms: C_6  and  C_7 
REMARK       I    between atoms: C_7  and  N_8 
REMARK    3  A    between atoms: N_8  and  C_9 
REMARK    4  A    between atoms: C_11  and  C_12 
REMARK    5  A    between atoms: C_12  and  C_13 
REMARK    6  A    between atoms: C_13  and  C_14 
ROOT
HETATM    1  C   UNL     1      25.334  43.700  51.834  1.00  0.00     0.725 A 
HETATM    2  N   UNL     1      24.540  44.606  51.326  1.00  0.00    -0.046 NA
HETATM    3  C   UNL     1      23.772  43.918  50.428  1.00  0.00     0.166 A 
HETATM    4  N   UNL     1      24.042  42.607  50.355  1.00  0.00    -0.144 NA
HETATM    5  N   UNL     1      25.032  42.495  51.259  1.00  0.00    -0.106 N 
HETATM    6  H   UNL     1      25.447  41.588  51.423  1.00  0.00     0.208 HD
ENDROOT
BRANCH   1   7
HETATM    7  N   UNL     1      26.305  43.839  52.799  1.00  0.00    -0.152 N 
HETATM    8  C   UNL     1      27.603  43.421  52.569  1.00  0.00     0.270 C 
HETATM    9  O   UNL     1      28.027  42.794  51.607  1.00  0.00    -0.267 OA
HETATM   10  H   UNL     1      26.052  44.197  53.706  1.00  0.00     0.187 HD
BRANCH   8  11
HETATM   11  C   UNL     1      28.558  43.739  53.664  1.00  0.00     0.033 A 
HETATM   12  C   UNL     1      28.360  44.909  54.406  1.00  0.00     0.020 A 
HETATM   13  C   UNL     1      29.220  45.232  55.460  1.00  0.00     0.038 A 
HETATM   14  C   UNL     1      30.274  44.378  55.788  1.00  0.00     0.068 A 
HETATM   15  C   UNL     1      30.464  43.206  55.050  1.00  0.00     0.038 A 
HETATM   16  C   UNL     1      29.609  42.878  53.994  1.00  0.00     0.020 A 
BRANCH  14  17
HETATM   17  O   UNL     1      31.177  44.569  56.797  1.00  0.00    -0.356 OA
HETATM   18  C   UNL     1      31.926  43.432  57.211  1.00  0.00     0.210 C 
ENDBRANCH  14  17
ENDBRANCH   8  11
ENDBRANCH   1   7
BRANCH   3  19
HETATM   19  C   UNL     1      22.690  44.579  49.658  1.00  0.00     0.087 C 
BRANCH  19  20
HETATM   20  C   UNL     1      23.239  45.487  48.555  1.00  0.00     0.048 C 
BRANCH  20  21
HETATM   21  C   UNL     1      22.980  46.935  48.835  1.00  0.00    -0.030 A 
HETATM   22  C   UNL     1      21.896  47.713  48.315  1.00  0.00    -0.002 A 
HETATM   23  C   UNL     1      22.028  49.007  48.818  1.00  0.00     0.042 A 
HETATM   24  C   UNL     1      20.813  47.430  47.457  1.00  0.00     0.014 A 
HETATM   25  C   UNL     1      21.132  50.036  48.504  1.00  0.00     0.030 A 
HETATM   26  N   UNL     1      23.145  49.014  49.621  1.00  0.00    -0.365 N 
HETATM   27  C   UNL     1      20.069  49.731  47.649  1.00  0.00     0.002 A 
HETATM   28  C   UNL     1      19.908  48.448  47.131  1.00  0.00     0.001 A 
HETATM   29  H   UNL     1      23.482  49.822  50.124  1.00  0.00     0.165 HD
HETATM   30  C   UNL     1      23.728  47.774  49.637  1.00  0.00     0.096 A 
ENDBRANCH  20  21
ENDBRANCH  19  20
ENDBRANCH   3  19
TORSDOF 6
ENDMDL
