MODEL 1
REMARK VINA RESULT:      -7.4      0.000      0.000
REMARK  10 active torsions:
REMARK  status: ('A' for Active; 'I' for Inactive)
REMARK    1  A    between atoms: C_8  and  N_9 
REMARK    2  A    between atoms: C_10  and  S_11 
REMARK    3  A    between atoms: S_11  and  C_12 
REMARK    4  A    between atoms: C_12  and  C_13 
REMARK       I    between atoms: C_13  and  N_14 
REMARK    5  A    between atoms: N_14  and  C_15 
REMARK    6  A    between atoms: C_15  and  C_16 
REMARK    7  A    between atoms: C_16  and  C_17 
REMARK    8  A    between atoms: C_20  and  S_21 
REMARK    9  A    between atoms: S_21  and  N_22 
REMARK   10  A    between atoms: C_31  and  N_32 
ROOT
HETATM    1  N   UNL     1      26.396  48.560  39.671  1.00  0.00    -0.275 N 
HETATM    2  C   UNL     1      26.390  48.641  38.309  1.00  0.00     0.177 A 
HETATM    3  N   UNL     1      26.966  49.628  37.588  1.00  0.00    -0.204 NA
HETATM    4  C   UNL     1      27.563  50.531  38.365  1.00  0.00     0.162 A 
HETATM    5  C   UNL     1      27.619  50.531  39.742  1.00  0.00     0.081 A 
HETATM    6  C   UNL     1      27.030  49.476  40.458  1.00  0.00     0.124 A 
HETATM    7  N   UNL     1      28.222  51.648  37.939  1.00  0.00    -0.260 N 
HETATM    8  H   UNL     1      28.379  51.955  36.985  1.00  0.00     0.191 HD
HETATM    9  N   UNL     1      28.679  52.405  38.947  1.00  0.00    -0.177 NA
HETATM   10  C   UNL     1      28.311  51.743  40.052  1.00  0.00     0.068 A 
HETATM   11  C   UNL     1      28.626  52.325  41.382  1.00  0.00     0.073 C 
ENDROOT
BRANCH   2  12
HETATM   12  S   UNL     1      25.447  47.474  37.305  1.00  0.00    -0.082 SA
BRANCH  12  13
HETATM   13  C   UNL     1      26.807  46.632  36.426  1.00  0.00     0.185 C 
BRANCH  13  14
HETATM   14  C   UNL     1      27.790  45.994  37.397  1.00  0.00     0.227 C 
HETATM   15  N   UNL     1      28.928  46.746  37.610  1.00  0.00    -0.360 N 
HETATM   16  H   UNL     1      28.935  47.713  37.308  1.00  0.00     0.162 HD
HETATM   17  O   UNL     1      27.582  44.913  37.944  1.00  0.00    -0.273 OA
BRANCH  15  18
HETATM   18  C   UNL     1      29.943  46.341  38.573  1.00  0.00     0.127 C 
BRANCH  18  19
HETATM   19  C   UNL     1      29.742  47.029  39.925  1.00  0.00     0.058 C 
BRANCH  19  20
HETATM   20  C   UNL     1      30.522  48.314  40.038  1.00  0.00    -0.057 A 
HETATM   21  C   UNL     1      30.848  48.839  41.298  1.00  0.00     0.009 A 
HETATM   22  C   UNL     1      31.564  50.034  41.403  1.00  0.00     0.025 A 
HETATM   23  C   UNL     1      31.960  50.704  40.244  1.00  0.00     0.074 A 
HETATM   24  C   UNL     1      31.631  50.202  38.983  1.00  0.00     0.025 A 
HETATM   25  C   UNL     1      30.916  49.007  38.884  1.00  0.00     0.009 A 
BRANCH  23  26
HETATM   26  S   UNL     1      32.825  52.244  40.373  1.00  0.00     0.239 S 
HETATM   27  O   UNL     1      31.864  53.311  40.517  1.00  0.00    -0.206 OA
HETATM   28  O   UNL     1      33.942  52.081  41.273  1.00  0.00    -0.206 OA
BRANCH  26  29
HETATM   29  N   UNL     1      33.481  52.407  38.838  1.00  0.00    -0.225 NA
HETATM   30  H   UNL     1      33.865  53.346  38.722  1.00  0.00     0.136 HD
HETATM   31  H   UNL     1      34.165  51.667  38.671  1.00  0.00     0.136 HD
ENDBRANCH  26  29
ENDBRANCH  23  26
ENDBRANCH  19  20
ENDBRANCH  18  19
ENDBRANCH  15  18
ENDBRANCH  13  14
ENDBRANCH  12  13
ENDBRANCH   2  12
BRANCH   1  32
HETATM   32  C   UNL     1      25.613  47.541  40.321  1.00  0.00     0.051 A 
HETATM   33  C   UNL     1      24.221  47.676  40.452  1.00  0.00    -0.013 A 
HETATM   34  C   UNL     1      23.468  48.875  39.949  1.00  0.00     0.052 C 
HETATM   35  C   UNL     1      23.552  46.636  41.120  1.00  0.00     0.042 A 
HETATM   36 CL   UNL     1      21.849  46.695  41.409  1.00  0.00    -0.084 Cl
HETATM   37  C   UNL     1      24.240  45.504  41.579  1.00  0.00     0.024 A 
HETATM   38  C   UNL     1      25.617  45.386  41.395  1.00  0.00     0.004 A 
HETATM   39  C   UNL     1      26.314  46.409  40.764  1.00  0.00     0.031 A 
ENDBRANCH   1  32
BRANCH   6  40
HETATM   40  N   UNL     1      27.048  49.399  41.847  1.00  0.00    -0.384 N 
HETATM   41  H   UNL     1      26.598  48.599  42.281  1.00  0.00     0.157 HD
HETATM   42  H   UNL     1      27.018  50.239  42.413  1.00  0.00     0.157 HD
ENDBRANCH   6  40
TORSDOF 10
ENDMDL
MODEL 2
REMARK VINA RESULT:      -7.4      4.552      6.760
REMARK  10 active torsions:
REMARK  status: ('A' for Active; 'I' for Inactive)
REMARK    1  A    between atoms: C_8  and  N_9 
REMARK    2  A    between atoms: C_10  and  S_11 
REMARK    3  A    between atoms: S_11  and  C_12 
REMARK    4  A    between atoms: C_12  and  C_13 
REMARK       I    between atoms: C_13  and  N_14 
REMARK    5  A    between atoms: N_14  and  C_15 
REMARK    6  A    between atoms: C_15  and  C_16 
REMARK    7  A    between atoms: C_16  and  C_17 
REMARK    8  A    between atoms: C_20  and  S_21 
REMARK    9  A    between atoms: S_21  and  N_22 
REMARK   10  A    between atoms: C_31  and  N_32 
ROOT
HETATM    1  N   UNL     1      28.370  49.867  39.917  1.00  0.00    -0.275 N 
HETATM    2  C   UNL     1      28.471  48.955  40.927  1.00  0.00     0.177 A 
HETATM    3  N   UNL     1      27.464  48.166  41.364  1.00  0.00    -0.204 NA
HETATM    4  C   UNL     1      26.338  48.372  40.683  1.00  0.00     0.162 A 
HETATM    5  C   UNL     1      26.143  49.268  39.653  1.00  0.00     0.081 A 
HETATM    6  C   UNL     1      27.219  50.054  39.209  1.00  0.00     0.124 A 
HETATM    7  N   UNL     1      25.146  47.740  40.891  1.00  0.00    -0.260 N 
HETATM    8  H   UNL     1      24.933  47.015  41.569  1.00  0.00     0.191 HD
HETATM    9  N   UNL     1      24.167  48.186  40.091  1.00  0.00    -0.177 NA
HETATM   10  C   UNL     1      24.757  49.123  39.338  1.00  0.00     0.068 A 
HETATM   11  C   UNL     1      23.942  49.870  38.345  1.00  0.00     0.073 C 
ENDROOT
BRANCH   2  12
HETATM   12  S   UNL     1      29.975  48.814  41.915  1.00  0.00    -0.082 SA
BRANCH  12  13
HETATM   13  C   UNL     1      31.004  47.806  40.794  1.00  0.00     0.185 C 
BRANCH  13  14
HETATM   14  C   UNL     1      32.489  47.999  41.074  1.00  0.00     0.227 C 
HETATM   15  N   UNL     1      32.905  49.311  40.983  1.00  0.00    -0.360 N 
HETATM   16  H   UNL     1      32.205  50.044  40.965  1.00  0.00     0.162 HD
HETATM   17  O   UNL     1      33.240  47.069  41.360  1.00  0.00    -0.273 OA
BRANCH  15  18
HETATM   18  C   UNL     1      34.272  49.704  41.302  1.00  0.00     0.127 C 
BRANCH  18  19
HETATM   19  C   UNL     1      34.323  51.092  41.942  1.00  0.00     0.058 C 
BRANCH  19  20
HETATM   20  C   UNL     1      35.595  51.322  42.717  1.00  0.00    -0.057 A 
HETATM   21  C   UNL     1      36.737  50.550  42.455  1.00  0.00     0.009 A 
HETATM   22  C   UNL     1      37.914  50.758  43.178  1.00  0.00     0.025 A 
HETATM   23  C   UNL     1      37.951  51.745  44.165  1.00  0.00     0.074 A 
HETATM   24  C   UNL     1      36.819  52.513  44.447  1.00  0.00     0.025 A 
HETATM   25  C   UNL     1      35.646  52.301  43.720  1.00  0.00     0.009 A 
BRANCH  23  26
HETATM   26  S   UNL     1      39.425  51.979  45.117  1.00  0.00     0.239 S 
HETATM   27  O   UNL     1      39.964  50.688  45.472  1.00  0.00    -0.206 OA
HETATM   28  O   UNL     1      40.226  53.009  44.499  1.00  0.00    -0.206 OA
BRANCH  26  29
HETATM   29  N   UNL     1      38.825  52.642  46.536  1.00  0.00    -0.225 NA
HETATM   30  H   UNL     1      39.439  52.407  47.317  1.00  0.00     0.136 HD
HETATM   31  H   UNL     1      38.685  53.646  46.419  1.00  0.00     0.136 HD
ENDBRANCH  26  29
ENDBRANCH  23  26
ENDBRANCH  19  20
ENDBRANCH  18  19
ENDBRANCH  15  18
ENDBRANCH  13  14
ENDBRANCH  12  13
ENDBRANCH   2  12
BRANCH   1  32
HETATM   32  C   UNL     1      29.474  50.752  39.652  1.00  0.00     0.051 A 
HETATM   33  C   UNL     1      29.639  51.937  40.388  1.00  0.00    -0.013 A 
HETATM   34  C   UNL     1      28.688  52.364  41.470  1.00  0.00     0.052 C 
HETATM   35  C   UNL     1      30.738  52.742  40.040  1.00  0.00     0.042 A 
HETATM   36 CL   UNL     1      31.031  54.257  40.818  1.00  0.00    -0.084 Cl
HETATM   37  C   UNL     1      31.642  52.348  39.044  1.00  0.00     0.024 A 
HETATM   38  C   UNL     1      31.469  51.144  38.362  1.00  0.00     0.004 A 
HETATM   39  C   UNL     1      30.377  50.338  38.662  1.00  0.00     0.031 A 
ENDBRANCH   1  32
BRANCH   6  40
HETATM   40  N   UNL     1      27.107  50.975  38.173  1.00  0.00    -0.384 N 
HETATM   41  H   UNL     1      27.741  51.768  38.177  1.00  0.00     0.157 HD
HETATM   42  H   UNL     1      26.207  51.177  37.753  1.00  0.00     0.157 HD
ENDBRANCH   6  40
TORSDOF 10
ENDMDL
MODEL 3
REMARK VINA RESULT:      -7.3     11.405     13.477
REMARK  10 active torsions:
REMARK  status: ('A' for Active; 'I' for Inactive)
REMARK    1  A    between atoms: C_8  and  N_9 
REMARK    2  A    between atoms: C_10  and  S_11 
REMARK    3  A    between atoms: S_11  and  C_12 
REMARK    4  A    between atoms: C_12  and  C_13 
REMARK       I    between atoms: C_13  and  N_14 
REMARK    5  A    between atoms: N_14  and  C_15 
REMARK    6  A    between atoms: C_15  and  C_16 
REMARK    7  A    between atoms: C_16  and  C_17 
REMARK    8  A    between atoms: C_20  and  S_21 
REMARK    9  A    between atoms: S_21  and  N_22 
REMARK   10  A    between atoms: C_31  and  N_32 
ROOT
HETATM    1  N   UNL     1      24.770  45.101  50.645  1.00  0.00    -0.275 N 
HETATM    2  C   UNL     1      24.132  44.157  49.895  1.00  0.00     0.177 A 
HETATM    3  N   UNL     1      23.289  44.420  48.871  1.00  0.00    -0.204 NA
HETATM    4  C   UNL     1      23.151  45.728  48.661  1.00  0.00     0.162 A 
HETATM    5  C   UNL     1      23.754  46.749  49.365  1.00  0.00     0.081 A 
HETATM    6  C   UNL     1      24.642  46.438  50.407  1.00  0.00     0.124 A 
HETATM    7  N   UNL     1      22.365  46.311  47.709  1.00  0.00    -0.260 N 
HETATM    8  H   UNL     1      21.787  45.855  47.012  1.00  0.00     0.191 HD
HETATM    9  N   UNL     1      22.380  47.651  47.763  1.00  0.00    -0.177 NA
HETATM   10  C   UNL     1      23.214  47.932  48.772  1.00  0.00     0.068 A 
HETATM   11  C   UNL     1      23.443  49.352  49.147  1.00  0.00     0.073 C 
ENDROOT
BRANCH   2  12
HETATM   12  S   UNL     1      24.236  42.403  50.308  1.00  0.00    -0.082 SA
BRANCH  12  13
HETATM   13  C   UNL     1      23.345  41.683  48.887  1.00  0.00     0.185 C 
BRANCH  13  14
HETATM   14  C   UNL     1      24.306  41.064  47.881  1.00  0.00     0.227 C 
HETATM   15  N   UNL     1      23.888  39.843  47.392  1.00  0.00    -0.360 N 
HETATM   16  H   UNL     1      22.927  39.561  47.546  1.00  0.00     0.162 HD
HETATM   17  O   UNL     1      25.352  41.609  47.535  1.00  0.00    -0.273 OA
BRANCH  15  18
HETATM   18  C   UNL     1      24.632  39.140  46.356  1.00  0.00     0.127 C 
BRANCH  18  19
HETATM   19  C   UNL     1      25.022  37.730  46.803  1.00  0.00     0.058 C 
BRANCH  19  20
HETATM   20  C   UNL     1      26.232  37.726  47.702  1.00  0.00    -0.057 A 
HETATM   21  C   UNL     1      26.281  36.883  48.824  1.00  0.00     0.009 A 
HETATM   22  C   UNL     1      27.399  36.885  49.662  1.00  0.00     0.025 A 
HETATM   23  C   UNL     1      28.474  37.728  49.375  1.00  0.00     0.074 A 
HETATM   24  C   UNL     1      28.434  38.582  48.271  1.00  0.00     0.025 A 
HETATM   25  C   UNL     1      27.315  38.577  47.436  1.00  0.00     0.009 A 
BRANCH  23  26
HETATM   26  S   UNL     1      29.872  37.768  50.461  1.00  0.00     0.239 S 
HETATM   27  O   UNL     1      29.843  36.598  51.306  1.00  0.00    -0.206 OA
HETATM   28  O   UNL     1      31.042  38.151  49.708  1.00  0.00    -0.206 OA
BRANCH  26  29
HETATM   29  N   UNL     1      29.507  39.071  51.453  1.00  0.00    -0.225 NA
HETATM   30  H   UNL     1      30.369  39.505  51.788  1.00  0.00     0.136 HD
HETATM   31  H   UNL     1      28.891  39.721  50.962  1.00  0.00     0.136 HD
ENDBRANCH  26  29
ENDBRANCH  23  26
ENDBRANCH  19  20
ENDBRANCH  18  19
ENDBRANCH  15  18
ENDBRANCH  13  14
ENDBRANCH  12  13
ENDBRANCH   2  12
BRANCH   1  32
HETATM   32  C   UNL     1      25.520  44.693  51.805  1.00  0.00     0.051 A 
HETATM   33  C   UNL     1      26.883  44.370  51.704  1.00  0.00    -0.013 A 
HETATM   34  C   UNL     1      27.636  44.411  50.405  1.00  0.00     0.052 C 
HETATM   35  C   UNL     1      27.519  43.964  52.891  1.00  0.00     0.042 A 
HETATM   36 CL   UNL     1      29.177  43.479  52.907  1.00  0.00    -0.084 Cl
HETATM   37  C   UNL     1      26.832  43.938  54.113  1.00  0.00     0.024 A 
HETATM   38  C   UNL     1      25.489  44.305  54.181  1.00  0.00     0.004 A 
HETATM   39  C   UNL     1      24.822  44.683  53.022  1.00  0.00     0.031 A 
ENDBRANCH   1  32
BRANCH   6  40
HETATM   40  N   UNL     1      25.295  47.408  51.161  1.00  0.00    -0.384 N 
HETATM   41  H   UNL     1      25.598  47.154  52.096  1.00  0.00     0.157 HD
HETATM   42  H   UNL     1      25.056  48.388  51.064  1.00  0.00     0.157 HD
ENDBRANCH   6  40
TORSDOF 10
ENDMDL
MODEL 4
REMARK VINA RESULT:      -7.3      4.020      6.111
REMARK  10 active torsions:
REMARK  status: ('A' for Active; 'I' for Inactive)
REMARK    1  A    between atoms: C_8  and  N_9 
REMARK    2  A    between atoms: C_10  and  S_11 
REMARK    3  A    between atoms: S_11  and  C_12 
REMARK    4  A    between atoms: C_12  and  C_13 
REMARK       I    between atoms: C_13  and  N_14 
REMARK    5  A    between atoms: N_14  and  C_15 
REMARK    6  A    between atoms: C_15  and  C_16 
REMARK    7  A    between atoms: C_16  and  C_17 
REMARK    8  A    between atoms: C_20  and  S_21 
REMARK    9  A    between atoms: S_21  and  N_22 
REMARK   10  A    between atoms: C_31  and  N_32 
ROOT
HETATM    1  N   UNL     1      27.701  49.213  39.248  1.00  0.00    -0.275 N 
HETATM    2  C   UNL     1      28.464  48.129  38.925  1.00  0.00     0.177 A 
HETATM    3  N   UNL     1      28.011  46.859  38.846  1.00  0.00    -0.204 NA
HETATM    4  C   UNL     1      26.709  46.775  39.115  1.00  0.00     0.162 A 
HETATM    5  C   UNL     1      25.863  47.810  39.449  1.00  0.00     0.081 A 
HETATM    6  C   UNL     1      26.363  49.122  39.498  1.00  0.00     0.124 A 
HETATM    7  N   UNL     1      25.962  45.632  39.127  1.00  0.00    -0.260 N 
HETATM    8  H   UNL     1      26.265  44.686  38.919  1.00  0.00     0.191 HD
HETATM    9  N   UNL     1      24.687  45.840  39.483  1.00  0.00    -0.177 NA
HETATM   10  C   UNL     1      24.613  47.161  39.692  1.00  0.00     0.068 A 
HETATM   11  C   UNL     1      23.327  47.750  40.147  1.00  0.00     0.073 C 
ENDROOT
BRANCH   2  12
HETATM   12  S   UNL     1      30.250  48.271  38.711  1.00  0.00    -0.082 SA
BRANCH  12  13
HETATM   13  C   UNL     1      30.825  47.253  40.113  1.00  0.00     0.185 C 
BRANCH  13  14
HETATM   14  C   UNL     1      32.149  47.762  40.667  1.00  0.00     0.227 C 
HETATM   15  N   UNL     1      32.356  49.111  40.462  1.00  0.00    -0.360 N 
HETATM   16  H   UNL     1      31.570  49.686  40.180  1.00  0.00     0.162 HD
HETATM   17  O   UNL     1      32.952  47.035  41.249  1.00  0.00    -0.273 OA
BRANCH  15  18
HETATM   18  C   UNL     1      33.525  49.795  40.998  1.00  0.00     0.127 C 
BRANCH  18  19
HETATM   19  C   UNL     1      33.175  50.623  42.235  1.00  0.00     0.058 C 
BRANCH  19  20
HETATM   20  C   UNL     1      34.385  51.270  42.857  1.00  0.00    -0.057 A 
HETATM   21  C   UNL     1      34.263  52.025  44.034  1.00  0.00     0.009 A 
HETATM   22  C   UNL     1      35.384  52.631  44.606  1.00  0.00     0.025 A 
HETATM   23  C   UNL     1      36.634  52.479  44.002  1.00  0.00     0.074 A 
HETATM   24  C   UNL     1      36.769  51.743  42.823  1.00  0.00     0.025 A 
HETATM   25  C   UNL     1      35.646  51.138  42.255  1.00  0.00     0.009 A 
BRANCH  23  26
HETATM   26  S   UNL     1      38.048  53.286  44.697  1.00  0.00     0.239 S 
HETATM   27  O   UNL     1      39.235  52.810  44.029  1.00  0.00    -0.206 OA
HETATM   28  O   UNL     1      37.757  54.692  44.852  1.00  0.00    -0.206 OA
BRANCH  26  29
HETATM   29  N   UNL     1      38.092  52.644  46.246  1.00  0.00    -0.225 NA
HETATM   30  H   UNL     1      37.724  53.323  46.914  1.00  0.00     0.136 HD
HETATM   31  H   UNL     1      37.601  51.749  46.266  1.00  0.00     0.136 HD
ENDBRANCH  26  29
ENDBRANCH  23  26
ENDBRANCH  19  20
ENDBRANCH  18  19
ENDBRANCH  15  18
ENDBRANCH  13  14
ENDBRANCH  12  13
ENDBRANCH   2  12
BRANCH   1  32
HETATM   32  C   UNL     1      28.337  50.490  39.449  1.00  0.00     0.051 A 
HETATM   33  C   UNL     1      28.928  50.814  40.681  1.00  0.00    -0.013 A 
HETATM   34  C   UNL     1      28.925  49.879  41.857  1.00  0.00     0.052 C 
HETATM   35  C   UNL     1      29.506  52.091  40.782  1.00  0.00     0.042 A 
HETATM   36 CL   UNL     1      30.214  52.650  42.255  1.00  0.00    -0.084 Cl
HETATM   37  C   UNL     1      29.530  52.967  39.687  1.00  0.00     0.024 A 
HETATM   38  C   UNL     1      28.969  52.595  38.466  1.00  0.00     0.004 A 
HETATM   39  C   UNL     1      28.364  51.350  38.341  1.00  0.00     0.031 A 
ENDBRANCH   1  32
BRANCH   6  40
HETATM   40  N   UNL     1      25.575  50.222  39.821  1.00  0.00    -0.384 N 
HETATM   41  H   UNL     1      25.016  50.169  40.667  1.00  0.00     0.157 HD
HETATM   42  H   UNL     1      25.159  50.794  39.094  1.00  0.00     0.157 HD
ENDBRANCH   6  40
TORSDOF 10
ENDMDL
MODEL 5
REMARK VINA RESULT:      -7.3      3.891      6.216
REMARK  10 active torsions:
REMARK  status: ('A' for Active; 'I' for Inactive)
REMARK    1  A    between atoms: C_8  and  N_9 
REMARK    2  A    between atoms: C_10  and  S_11 
REMARK    3  A    between atoms: S_11  and  C_12 
REMARK    4  A    between atoms: C_12  and  C_13 
REMARK       I    between atoms: C_13  and  N_14 
REMARK    5  A    between atoms: N_14  and  C_15 
REMARK    6  A    between atoms: C_15  and  C_16 
REMARK    7  A    between atoms: C_16  and  C_17 
REMARK    8  A    between atoms: C_20  and  S_21 
REMARK    9  A    between atoms: S_21  and  N_22 
REMARK   10  A    between atoms: C_31  and  N_32 
ROOT
HETATM    1  N   UNL     1      28.350  49.537  39.750  1.00  0.00    -0.275 N 
HETATM    2  C   UNL     1      28.353  50.463  38.747  1.00  0.00     0.177 A 
HETATM    3  N   UNL     1      27.269  50.832  38.030  1.00  0.00    -0.204 NA
HETATM    4  C   UNL     1      26.169  50.188  38.420  1.00  0.00     0.162 A 
HETATM    5  C   UNL     1      26.072  49.242  39.417  1.00  0.00     0.081 A 
HETATM    6  C   UNL     1      27.216  48.900  40.158  1.00  0.00     0.124 A 
HETATM    7  N   UNL     1      24.921  50.334  37.886  1.00  0.00    -0.260 N 
HETATM    8  H   UNL     1      24.630  50.954  37.138  1.00  0.00     0.191 HD
HETATM    9  N   UNL     1      24.014  49.517  38.442  1.00  0.00    -0.177 NA
HETATM   10  C   UNL     1      24.702  48.840  39.369  1.00  0.00     0.068 A 
HETATM   11  C   UNL     1      24.006  47.798  40.169  1.00  0.00     0.073 C 
ENDROOT
BRANCH   2  12
HETATM   12  S   UNL     1      29.890  51.203  38.158  1.00  0.00    -0.082 SA
BRANCH  12  13
HETATM   13  C   UNL     1      29.954  52.694  39.208  1.00  0.00     0.185 C 
BRANCH  13  14
HETATM   14  C   UNL     1      31.323  52.867  39.852  1.00  0.00     0.227 C 
HETATM   15  N   UNL     1      32.313  52.105  39.266  1.00  0.00    -0.360 N 
HETATM   16  H   UNL     1      32.131  51.682  38.363  1.00  0.00     0.162 HD
HETATM   17  O   UNL     1      31.524  53.623  40.801  1.00  0.00    -0.273 OA
BRANCH  15  18
HETATM   18  C   UNL     1      33.704  52.202  39.688  1.00  0.00     0.127 C 
BRANCH  18  19
HETATM   19  C   UNL     1      34.186  50.904  40.337  1.00  0.00     0.058 C 
BRANCH  19  20
HETATM   20  C   UNL     1      35.295  51.135  41.332  1.00  0.00    -0.057 A 
HETATM   21  C   UNL     1      36.588  50.651  41.081  1.00  0.00     0.009 A 
HETATM   22  C   UNL     1      37.614  50.859  42.005  1.00  0.00     0.025 A 
HETATM   23  C   UNL     1      37.348  51.558  43.184  1.00  0.00     0.074 A 
HETATM   24  C   UNL     1      36.064  52.033  43.455  1.00  0.00     0.025 A 
HETATM   25  C   UNL     1      35.042  51.824  42.528  1.00  0.00     0.009 A 
BRANCH  23  26
HETATM   26  S   UNL     1      38.634  51.780  44.381  1.00  0.00     0.239 S 
HETATM   27  O   UNL     1      39.131  50.486  44.782  1.00  0.00    -0.206 OA
HETATM   28  O   UNL     1      39.506  52.843  43.941  1.00  0.00    -0.206 OA
BRANCH  26  29
HETATM   29  N   UNL     1      37.787  52.385  45.696  1.00  0.00    -0.225 NA
HETATM   30  H   UNL     1      38.256  53.217  46.059  1.00  0.00     0.136 HD
HETATM   31  H   UNL     1      36.813  52.550  45.438  1.00  0.00     0.136 HD
ENDBRANCH  26  29
ENDBRANCH  23  26
ENDBRANCH  19  20
ENDBRANCH  18  19
ENDBRANCH  15  18
ENDBRANCH  13  14
ENDBRANCH  12  13
ENDBRANCH   2  12
BRANCH   1  32
HETATM   32  C   UNL     1      29.601  49.122  40.330  1.00  0.00     0.051 A 
HETATM   33  C   UNL     1      30.114  49.763  41.470  1.00  0.00    -0.013 A 
HETATM   34  C   UNL     1      29.418  50.914  42.140  1.00  0.00     0.052 C 
HETATM   35  C   UNL     1      31.351  49.296  41.947  1.00  0.00     0.042 A 
HETATM   36 CL   UNL     1      32.132  50.029  43.303  1.00  0.00    -0.084 Cl
HETATM   37  C   UNL     1      32.002  48.212  41.342  1.00  0.00     0.024 A 
HETATM   38  C   UNL     1      31.442  47.573  40.236  1.00  0.00     0.004 A 
HETATM   39  C   UNL     1      30.235  48.029  39.721  1.00  0.00     0.031 A 
ENDBRANCH   1  32
BRANCH   6  40
HETATM   40  N   UNL     1      27.201  47.961  41.184  1.00  0.00    -0.384 N 
HETATM   41  H   UNL     1      27.792  48.134  41.991  1.00  0.00     0.157 HD
HETATM   42  H   UNL     1      27.065  46.976  40.983  1.00  0.00     0.157 HD
ENDBRANCH   6  40
TORSDOF 10
ENDMDL
MODEL 6
REMARK VINA RESULT:      -7.3      1.436      1.625
REMARK  10 active torsions:
REMARK  status: ('A' for Active; 'I' for Inactive)
REMARK    1  A    between atoms: C_8  and  N_9 
REMARK    2  A    between atoms: C_10  and  S_11 
REMARK    3  A    between atoms: S_11  and  C_12 
REMARK    4  A    between atoms: C_12  and  C_13 
REMARK       I    between atoms: C_13  and  N_14 
REMARK    5  A    between atoms: N_14  and  C_15 
REMARK    6  A    between atoms: C_15  and  C_16 
REMARK    7  A    between atoms: C_16  and  C_17 
REMARK    8  A    between atoms: C_20  and  S_21 
REMARK    9  A    between atoms: S_21  and  N_22 
REMARK   10  A    between atoms: C_31  and  N_32 
ROOT
HETATM    1  N   UNL     1      26.785  48.446  39.892  1.00  0.00    -0.275 N 
HETATM    2  C   UNL     1      26.877  48.387  38.532  1.00  0.00     0.177 A 
HETATM    3  N   UNL     1      27.353  49.376  37.744  1.00  0.00    -0.204 NA
HETATM    4  C   UNL     1      27.739  50.436  38.451  1.00  0.00     0.162 A 
HETATM    5  C   UNL     1      27.683  50.585  39.820  1.00  0.00     0.081 A 
HETATM    6  C   UNL     1      27.205  49.527  40.610  1.00  0.00     0.124 A 
HETATM    7  N   UNL     1      28.253  51.596  37.945  1.00  0.00    -0.260 N 
HETATM    8  H   UNL     1      28.438  51.826  36.974  1.00  0.00     0.191 HD
HETATM    9  N   UNL     1      28.506  52.514  38.888  1.00  0.00    -0.177 NA
HETATM   10  C   UNL     1      28.156  51.917  40.034  1.00  0.00     0.068 A 
HETATM   11  C   UNL     1      28.268  52.674  41.308  1.00  0.00     0.073 C 
ENDROOT
BRANCH   2  12
HETATM   12  S   UNL     1      26.207  46.989  37.608  1.00  0.00    -0.082 SA
BRANCH  12  13
HETATM   13  C   UNL     1      27.740  46.323  36.874  1.00  0.00     0.185 C 
BRANCH  13  14
HETATM   14  C   UNL     1      28.780  46.008  37.940  1.00  0.00     0.227 C 
HETATM   15  N   UNL     1      29.646  47.051  38.197  1.00  0.00    -0.360 N 
HETATM   16  H   UNL     1      29.412  47.975  37.851  1.00  0.00     0.162 HD
HETATM   17  O   UNL     1      28.833  44.926  38.521  1.00  0.00    -0.273 OA
BRANCH  15  18
HETATM   18  C   UNL     1      30.653  46.968  39.247  1.00  0.00     0.127 C 
BRANCH  18  19
HETATM   19  C   UNL     1      30.238  47.760  40.488  1.00  0.00     0.058 C 
BRANCH  19  20
HETATM   20  C   UNL     1      31.334  48.668  40.985  1.00  0.00    -0.057 A 
HETATM   21  C   UNL     1      31.044  49.981  41.384  1.00  0.00     0.009 A 
HETATM   22  C   UNL     1      32.061  50.825  41.837  1.00  0.00     0.025 A 
HETATM   23  C   UNL     1      33.373  50.352  41.897  1.00  0.00     0.074 A 
HETATM   24  C   UNL     1      33.681  49.052  41.489  1.00  0.00     0.025 A 
HETATM   25  C   UNL     1      32.661  48.213  41.038  1.00  0.00     0.009 A 
BRANCH  23  26
HETATM   26  S   UNL     1      34.672  51.434  42.424  1.00  0.00     0.239 S 
HETATM   27  O   UNL     1      35.079  52.256  41.310  1.00  0.00    -0.206 OA
HETATM   28  O   UNL     1      34.327  51.988  43.712  1.00  0.00    -0.206 OA
BRANCH  26  29
HETATM   29  N   UNL     1      35.931  50.360  42.699  1.00  0.00    -0.225 NA
HETATM   30  H   UNL     1      36.824  50.810  42.489  1.00  0.00     0.136 HD
HETATM   31  H   UNL     1      35.876  49.995  43.651  1.00  0.00     0.136 HD
ENDBRANCH  26  29
ENDBRANCH  23  26
ENDBRANCH  19  20
ENDBRANCH  18  19
ENDBRANCH  15  18
ENDBRANCH  13  14
ENDBRANCH  12  13
ENDBRANCH   2  12
BRANCH   1  32
HETATM   32  C   UNL     1      26.116  47.386  40.602  1.00  0.00     0.051 A 
HETATM   33  C   UNL     1      24.716  47.362  40.708  1.00  0.00    -0.013 A 
HETATM   34  C   UNL     1      23.835  48.426  40.115  1.00  0.00     0.052 C 
HETATM   35  C   UNL     1      24.162  46.295  41.437  1.00  0.00     0.042 A 
HETATM   36 CL   UNL     1      22.459  46.169  41.702  1.00  0.00    -0.084 Cl
HETATM   37  C   UNL     1      24.971  45.287  41.980  1.00  0.00     0.024 A 
HETATM   38  C   UNL     1      26.355  45.323  41.820  1.00  0.00     0.004 A 
HETATM   39  C   UNL     1      26.938  46.379  41.129  1.00  0.00     0.031 A 
ENDBRANCH   1  32
BRANCH   6  40
HETATM   40  N   UNL     1      27.123  49.595  41.997  1.00  0.00    -0.384 N 
HETATM   41  H   UNL     1      27.580  50.375  42.459  1.00  0.00     0.157 HD
HETATM   42  H   UNL     1      27.095  48.751  42.558  1.00  0.00     0.157 HD
ENDBRANCH   6  40
TORSDOF 10
ENDMDL
MODEL 7
REMARK VINA RESULT:      -7.2      3.538      5.860
REMARK  10 active torsions:
REMARK  status: ('A' for Active; 'I' for Inactive)
REMARK    1  A    between atoms: C_8  and  N_9 
REMARK    2  A    between atoms: C_10  and  S_11 
REMARK    3  A    between atoms: S_11  and  C_12 
REMARK    4  A    between atoms: C_12  and  C_13 
REMARK       I    between atoms: C_13  and  N_14 
REMARK    5  A    between atoms: N_14  and  C_15 
REMARK    6  A    between atoms: C_15  and  C_16 
REMARK    7  A    between atoms: C_16  and  C_17 
REMARK    8  A    between atoms: C_20  and  S_21 
REMARK    9  A    between atoms: S_21  and  N_22 
REMARK   10  A    between atoms: C_31  and  N_32 
ROOT
HETATM    1  N   UNL     1      28.120  49.557  39.367  1.00  0.00    -0.275 N 
HETATM    2  C   UNL     1      28.907  48.515  38.970  1.00  0.00     0.177 A 
HETATM    3  N   UNL     1      28.470  47.256  38.745  1.00  0.00    -0.204 NA
HETATM    4  C   UNL     1      27.159  47.137  38.948  1.00  0.00     0.162 A 
HETATM    5  C   UNL     1      26.289  48.129  39.348  1.00  0.00     0.081 A 
HETATM    6  C   UNL     1      26.774  49.433  39.549  1.00  0.00     0.124 A 
HETATM    7  N   UNL     1      26.425  45.994  38.814  1.00  0.00    -0.260 N 
HETATM    8  H   UNL     1      26.746  45.076  38.527  1.00  0.00     0.191 HD
HETATM    9  N   UNL     1      25.133  46.159  39.136  1.00  0.00    -0.177 NA
HETATM   10  C   UNL     1      25.037  47.451  39.471  1.00  0.00     0.068 A 
HETATM   11  C   UNL     1      23.727  47.984  39.928  1.00  0.00     0.073 C 
ENDROOT
BRANCH   2  12
HETATM   12  S   UNL     1      30.699  48.688  38.847  1.00  0.00    -0.082 SA
BRANCH  12  13
HETATM   13  C   UNL     1      31.228  47.428  40.057  1.00  0.00     0.185 C 
BRANCH  13  14
HETATM   14  C   UNL     1      32.430  47.899  40.865  1.00  0.00     0.227 C 
HETATM   15  N   UNL     1      32.588  49.269  40.879  1.00  0.00    -0.360 N 
HETATM   16  H   UNL     1      31.819  49.851  40.564  1.00  0.00     0.162 HD
HETATM   17  O   UNL     1      33.181  47.125  41.455  1.00  0.00    -0.273 OA
BRANCH  15  18
HETATM   18  C   UNL     1      33.629  49.911  41.670  1.00  0.00     0.127 C 
BRANCH  18  19
HETATM   19  C   UNL     1      34.937  50.033  40.886  1.00  0.00     0.058 C 
BRANCH  19  20
HETATM   20  C   UNL     1      35.194  51.440  40.410  1.00  0.00    -0.057 A 
HETATM   21  C   UNL     1      34.206  52.145  39.706  1.00  0.00     0.009 A 
HETATM   22  C   UNL     1      34.447  53.446  39.259  1.00  0.00     0.025 A 
HETATM   23  C   UNL     1      35.680  54.047  39.521  1.00  0.00     0.074 A 
HETATM   24  C   UNL     1      36.678  53.354  40.208  1.00  0.00     0.025 A 
HETATM   25  C   UNL     1      36.432  52.054  40.654  1.00  0.00     0.009 A 
BRANCH  23  26
HETATM   26  S   UNL     1      36.007  55.678  38.914  1.00  0.00     0.239 S 
HETATM   27  O   UNL     1      34.800  56.464  39.006  1.00  0.00    -0.206 OA
HETATM   28  O   UNL     1      37.271  56.132  39.445  1.00  0.00    -0.206 OA
BRANCH  26  29
HETATM   29  N   UNL     1      36.261  55.399  37.280  1.00  0.00    -0.225 NA
HETATM   30  H   UNL     1      36.125  56.263  36.754  1.00  0.00     0.136 HD
HETATM   31  H   UNL     1      37.180  54.979  37.137  1.00  0.00     0.136 HD
ENDBRANCH  26  29
ENDBRANCH  23  26
ENDBRANCH  19  20
ENDBRANCH  18  19
ENDBRANCH  15  18
ENDBRANCH  13  14
ENDBRANCH  12  13
ENDBRANCH   2  12
BRANCH   1  32
HETATM   32  C   UNL     1      28.733  50.810  39.721  1.00  0.00     0.051 A 
HETATM   33  C   UNL     1      29.298  51.002  40.992  1.00  0.00    -0.013 A 
HETATM   34  C   UNL     1      29.287  49.941  42.057  1.00  0.00     0.052 C 
HETATM   35  C   UNL     1      29.855  52.268  41.246  1.00  0.00     0.042 A 
HETATM   36 CL   UNL     1      30.529  52.667  42.786  1.00  0.00    -0.084 Cl
HETATM   37  C   UNL     1      29.887  53.260  40.256  1.00  0.00     0.024 A 
HETATM   38  C   UNL     1      29.353  53.020  38.991  1.00  0.00     0.004 A 
HETATM   39  C   UNL     1      28.769  51.789  38.716  1.00  0.00     0.031 A 
ENDBRANCH   1  32
BRANCH   6  40
HETATM   40  N   UNL     1      25.961  50.490  39.946  1.00  0.00    -0.384 N 
HETATM   41  H   UNL     1      25.709  51.180  39.245  1.00  0.00     0.157 HD
HETATM   42  H   UNL     1      26.023  50.868  40.885  1.00  0.00     0.157 HD
ENDBRANCH   6  40
TORSDOF 10
ENDMDL
MODEL 8
REMARK VINA RESULT:      -7.1     13.290     16.031
REMARK  10 active torsions:
REMARK  status: ('A' for Active; 'I' for Inactive)
REMARK    1  A    between atoms: C_8  and  N_9 
REMARK    2  A    between atoms: C_10  and  S_11 
REMARK    3  A    between atoms: S_11  and  C_12 
REMARK    4  A    between atoms: C_12  and  C_13 
REMARK       I    between atoms: C_13  and  N_14 
REMARK    5  A    between atoms: N_14  and  C_15 
REMARK    6  A    between atoms: C_15  and  C_16 
REMARK    7  A    between atoms: C_16  and  C_17 
REMARK    8  A    between atoms: C_20  and  S_21 
REMARK    9  A    between atoms: S_21  and  N_22 
REMARK   10  A    between atoms: C_31  and  N_32 
ROOT
HETATM    1  N   UNL     1      20.224  48.966  48.276  1.00  0.00    -0.275 N 
HETATM    2  C   UNL     1      20.403  50.308  48.106  1.00  0.00     0.177 A 
HETATM    3  N   UNL     1      21.568  50.965  48.302  1.00  0.00    -0.204 NA
HETATM    4  C   UNL     1      22.548  50.145  48.678  1.00  0.00     0.162 A 
HETATM    5  C   UNL     1      22.460  48.783  48.874  1.00  0.00     0.081 A 
HETATM    6  C   UNL     1      21.239  48.129  48.638  1.00  0.00     0.124 A 
HETATM    7  N   UNL     1      23.834  50.505  48.960  1.00  0.00    -0.260 N 
HETATM    8  H   UNL     1      24.248  51.430  48.912  1.00  0.00     0.191 HD
HETATM    9  N   UNL     1      24.591  49.476  49.365  1.00  0.00    -0.177 NA
HETATM   10  C   UNL     1      23.766  48.422  49.327  1.00  0.00     0.068 A 
HETATM   11  C   UNL     1      24.271  47.093  49.758  1.00  0.00     0.073 C 
ENDROOT
BRANCH   2  12
HETATM   12  S   UNL     1      19.014  51.399  47.737  1.00  0.00    -0.082 SA
BRANCH  12  13
HETATM   13  C   UNL     1      18.524  51.881  49.428  1.00  0.00     0.185 C 
BRANCH  13  14
HETATM   14  C   UNL     1      17.009  51.956  49.571  1.00  0.00     0.227 C 
HETATM   15  N   UNL     1      16.575  53.027  50.324  1.00  0.00    -0.360 N 
HETATM   16  H   UNL     1      17.228  53.774  50.529  1.00  0.00     0.162 HD
HETATM   17  O   UNL     1      16.249  51.139  49.054  1.00  0.00    -0.273 OA
BRANCH  15  18
HETATM   18  C   UNL     1      15.157  53.314  50.498  1.00  0.00     0.127 C 
BRANCH  18  19
HETATM   19  C   UNL     1      14.801  54.715  49.997  1.00  0.00     0.058 C 
BRANCH  19  20
HETATM   20  C   UNL     1      14.944  55.764  51.070  1.00  0.00    -0.057 A 
HETATM   21  C   UNL     1      14.810  55.420  52.424  1.00  0.00     0.009 A 
HETATM   22  C   UNL     1      14.935  56.393  53.418  1.00  0.00     0.025 A 
HETATM   23  C   UNL     1      15.200  57.716  53.058  1.00  0.00     0.074 A 
HETATM   24  C   UNL     1      15.322  58.077  51.715  1.00  0.00     0.025 A 
HETATM   25  C   UNL     1      15.197  57.100  50.725  1.00  0.00     0.009 A 
BRANCH  23  26
HETATM   26  S   UNL     1      15.311  58.961  54.312  1.00  0.00     0.239 S 
HETATM   27  O   UNL     1      15.354  60.258  53.682  1.00  0.00    -0.206 OA
HETATM   28  O   UNL     1      14.383  58.644  55.372  1.00  0.00    -0.206 OA
BRANCH  26  29
HETATM   29  N   UNL     1      16.844  58.692  54.937  1.00  0.00    -0.225 NA
HETATM   30  H   UNL     1      17.072  57.699  54.884  1.00  0.00     0.136 HD
HETATM   31  H   UNL     1      17.523  59.290  54.464  1.00  0.00     0.136 HD
ENDBRANCH  26  29
ENDBRANCH  23  26
ENDBRANCH  19  20
ENDBRANCH  18  19
ENDBRANCH  15  18
ENDBRANCH  13  14
ENDBRANCH  12  13
ENDBRANCH   2  12
BRANCH   1  32
HETATM   32  C   UNL     1      18.897  48.414  48.186  1.00  0.00     0.051 A 
HETATM   33  C   UNL     1      18.351  48.053  46.943  1.00  0.00    -0.013 A 
HETATM   34  C   UNL     1      19.089  48.229  45.646  1.00  0.00     0.052 C 
HETATM   35  C   UNL     1      17.042  47.541  46.960  1.00  0.00     0.042 A 
HETATM   36 CL   UNL     1      16.219  47.113  45.502  1.00  0.00    -0.084 Cl
HETATM   37  C   UNL     1      16.348  47.356  48.165  1.00  0.00     0.024 A 
HETATM   38  C   UNL     1      16.939  47.687  49.384  1.00  0.00     0.004 A 
HETATM   39  C   UNL     1      18.221  48.223  49.400  1.00  0.00     0.031 A 
ENDBRANCH   1  32
BRANCH   6  40
HETATM   40  N   UNL     1      21.069  46.759  48.807  1.00  0.00    -0.384 N 
HETATM   41  H   UNL     1      21.869  46.159  48.629  1.00  0.00     0.157 HD
HETATM   42  H   UNL     1      20.178  46.318  48.607  1.00  0.00     0.157 HD
ENDBRANCH   6  40
TORSDOF 10
ENDMDL
MODEL 9
REMARK VINA RESULT:      -7.1      4.756      7.358
REMARK  10 active torsions:
REMARK  status: ('A' for Active; 'I' for Inactive)
REMARK    1  A    between atoms: C_8  and  N_9 
REMARK    2  A    between atoms: C_10  and  S_11 
REMARK    3  A    between atoms: S_11  and  C_12 
REMARK    4  A    between atoms: C_12  and  C_13 
REMARK       I    between atoms: C_13  and  N_14 
REMARK    5  A    between atoms: N_14  and  C_15 
REMARK    6  A    between atoms: C_15  and  C_16 
REMARK    7  A    between atoms: C_16  and  C_17 
REMARK    8  A    between atoms: C_20  and  S_21 
REMARK    9  A    between atoms: S_21  and  N_22 
REMARK   10  A    between atoms: C_31  and  N_32 
ROOT
HETATM    1  N   UNL     1      29.851  49.181  39.522  1.00  0.00    -0.275 N 
HETATM    2  C   UNL     1      30.292  48.083  40.202  1.00  0.00     0.177 A 
HETATM    3  N   UNL     1      29.552  46.982  40.459  1.00  0.00    -0.204 NA
HETATM    4  C   UNL     1      28.321  47.080  39.960  1.00  0.00     0.162 A 
HETATM    5  C   UNL     1      27.790  48.145  39.263  1.00  0.00     0.081 A 
HETATM    6  C   UNL     1      28.597  49.263  38.993  1.00  0.00     0.124 A 
HETATM    7  N   UNL     1      27.336  46.140  40.060  1.00  0.00    -0.260 N 
HETATM    8  H   UNL     1      27.385  45.229  40.504  1.00  0.00     0.191 HD
HETATM    9  N   UNL     1      26.178  46.531  39.508  1.00  0.00    -0.177 NA
HETATM   10  C   UNL     1      26.437  47.753  39.026  1.00  0.00     0.068 A 
HETATM   11  C   UNL     1      25.345  48.517  38.369  1.00  0.00     0.073 C 
ENDROOT
BRANCH   2  12
HETATM   12  S   UNL     1      31.919  48.056  40.983  1.00  0.00    -0.082 SA
BRANCH  12  13
HETATM   13  C   UNL     1      31.479  48.619  42.663  1.00  0.00     0.185 C 
BRANCH  13  14
HETATM   14  C   UNL     1      32.201  49.910  43.026  1.00  0.00     0.227 C 
HETATM   15  N   UNL     1      33.319  50.158  42.255  1.00  0.00    -0.360 N 
HETATM   16  H   UNL     1      33.451  49.623  41.404  1.00  0.00     0.162 HD
HETATM   17  O   UNL     1      31.815  50.662  43.919  1.00  0.00    -0.273 OA
BRANCH  15  18
HETATM   18  C   UNL     1      34.088  51.386  42.396  1.00  0.00     0.127 C 
BRANCH  18  19
HETATM   19  C   UNL     1      35.592  51.109  42.412  1.00  0.00     0.058 C 
BRANCH  19  20
HETATM   20  C   UNL     1      36.391  52.292  42.898  1.00  0.00    -0.057 A 
HETATM   21  C   UNL     1      36.427  52.614  44.263  1.00  0.00     0.009 A 
HETATM   22  C   UNL     1      37.161  53.714  44.712  1.00  0.00     0.025 A 
HETATM   23  C   UNL     1      37.865  54.495  43.793  1.00  0.00     0.074 A 
HETATM   24  C   UNL     1      37.827  54.197  42.429  1.00  0.00     0.025 A 
HETATM   25  C   UNL     1      37.093  53.095  41.986  1.00  0.00     0.009 A 
BRANCH  23  26
HETATM   26  S   UNL     1      38.756  55.919  44.352  1.00  0.00     0.239 S 
HETATM   27  O   UNL     1      40.171  55.650  44.268  1.00  0.00    -0.206 OA
HETATM   28  O   UNL     1      38.156  57.102  43.781  1.00  0.00    -0.206 OA
BRANCH  26  29
HETATM   29  N   UNL     1      38.381  55.947  45.987  1.00  0.00    -0.225 NA
HETATM   30  H   UNL     1      38.516  55.019  46.391  1.00  0.00     0.136 HD
HETATM   31  H   UNL     1      38.921  56.675  46.456  1.00  0.00     0.136 HD
ENDBRANCH  26  29
ENDBRANCH  23  26
ENDBRANCH  19  20
ENDBRANCH  18  19
ENDBRANCH  15  18
ENDBRANCH  13  14
ENDBRANCH  12  13
ENDBRANCH   2  12
BRANCH   1  32
HETATM   32  C   UNL     1      30.689  50.351  39.450  1.00  0.00     0.051 A 
HETATM   33  C   UNL     1      30.483  51.438  40.314  1.00  0.00    -0.013 A 
HETATM   34  C   UNL     1      29.387  51.466  41.342  1.00  0.00     0.052 C 
HETATM   35  C   UNL     1      31.342  52.539  40.151  1.00  0.00     0.042 A 
HETATM   36 CL   UNL     1      31.167  53.971  41.101  1.00  0.00    -0.084 Cl
HETATM   37  C   UNL     1      32.379  52.519  39.207  1.00  0.00     0.024 A 
HETATM   38  C   UNL     1      32.579  51.405  38.394  1.00  0.00     0.004 A 
HETATM   39  C   UNL     1      31.729  50.311  38.510  1.00  0.00     0.031 A 
ENDBRANCH   1  32
BRANCH   6  40
HETATM   40  N   UNL     1      28.140  50.374  38.293  1.00  0.00    -0.384 N 
HETATM   41  H   UNL     1      27.188  50.682  38.466  1.00  0.00     0.157 HD
HETATM   42  H   UNL     1      28.463  50.563  37.350  1.00  0.00     0.157 HD
ENDBRANCH   6  40
TORSDOF 10
ENDMDL
MODEL 10
REMARK VINA RESULT:      -7.1     10.688     13.303
REMARK  10 active torsions:
REMARK  status: ('A' for Active; 'I' for Inactive)
REMARK    1  A    between atoms: C_8  and  N_9 
REMARK    2  A    between atoms: C_10  and  S_11 
REMARK    3  A    between atoms: S_11  and  C_12 
REMARK    4  A    between atoms: C_12  and  C_13 
REMARK       I    between atoms: C_13  and  N_14 
REMARK    5  A    between atoms: N_14  and  C_15 
REMARK    6  A    between atoms: C_15  and  C_16 
REMARK    7  A    between atoms: C_16  and  C_17 
REMARK    8  A    between atoms: C_20  and  S_21 
REMARK    9  A    between atoms: S_21  and  N_22 
REMARK   10  A    between atoms: C_31  and  N_32 
ROOT
HETATM    1  N   UNL     1      25.443  45.919  51.008  1.00  0.00    -0.275 N 
HETATM    2  C   UNL     1      25.412  44.674  50.451  1.00  0.00     0.177 A 
HETATM    3  N   UNL     1      25.893  43.553  51.032  1.00  0.00    -0.204 NA
HETATM    4  C   UNL     1      26.406  43.794  52.237  1.00  0.00     0.162 A 
HETATM    5  C   UNL     1      26.481  45.013  52.877  1.00  0.00     0.081 A 
HETATM    6  C   UNL     1      25.948  46.154  52.253  1.00  0.00     0.124 A 
HETATM    7  N   UNL     1      26.976  42.873  53.068  1.00  0.00    -0.260 N 
HETATM    8  H   UNL     1      27.082  41.876  52.916  1.00  0.00     0.191 HD
HETATM    9  N   UNL     1      27.456  43.411  54.199  1.00  0.00    -0.177 NA
HETATM   10  C   UNL     1      27.170  44.715  54.093  1.00  0.00     0.068 A 
HETATM   11  C   UNL     1      27.600  45.640  55.173  1.00  0.00     0.073 C 
ENDROOT
BRANCH   2  12
HETATM   12  S   UNL     1      24.840  44.419  48.759  1.00  0.00    -0.082 SA
BRANCH  12  13
HETATM   13  C   UNL     1      23.358  43.399  49.069  1.00  0.00     0.185 C 
BRANCH  13  14
HETATM   14  C   UNL     1      22.315  43.580  47.974  1.00  0.00     0.227 C 
HETATM   15  N   UNL     1      22.177  44.886  47.549  1.00  0.00    -0.360 N 
HETATM   16  H   UNL     1      22.888  45.560  47.809  1.00  0.00     0.162 HD
HETATM   17  O   UNL     1      21.665  42.645  47.511  1.00  0.00    -0.273 OA
BRANCH  15  18
HETATM   18  C   UNL     1      21.292  45.242  46.448  1.00  0.00     0.127 C 
BRANCH  18  19
HETATM   19  C   UNL     1      19.885  45.579  46.946  1.00  0.00     0.058 C 
BRANCH  19  20
HETATM   20  C   UNL     1      19.814  46.937  47.597  1.00  0.00    -0.057 A 
HETATM   21  C   UNL     1      20.166  48.090  46.877  1.00  0.00     0.009 A 
HETATM   22  C   UNL     1      20.108  49.347  47.483  1.00  0.00     0.025 A 
HETATM   23  C   UNL     1      19.692  49.454  48.811  1.00  0.00     0.074 A 
HETATM   24  C   UNL     1      19.353  48.315  49.545  1.00  0.00     0.025 A 
HETATM   25  C   UNL     1      19.412  47.061  48.935  1.00  0.00     0.009 A 
BRANCH  23  26
HETATM   26  S   UNL     1      19.664  51.040  49.597  1.00  0.00     0.239 S 
HETATM   27  O   UNL     1      20.022  52.050  48.629  1.00  0.00    -0.206 OA
HETATM   28  O   UNL     1      18.480  51.138  50.417  1.00  0.00    -0.206 OA
BRANCH  26  29
HETATM   29  N   UNL     1      20.959  50.929  50.657  1.00  0.00    -0.225 NA
HETATM   30  H   UNL     1      20.624  50.690  51.592  1.00  0.00     0.136 HD
HETATM   31  H   UNL     1      21.651  50.271  50.295  1.00  0.00     0.136 HD
ENDBRANCH  26  29
ENDBRANCH  23  26
ENDBRANCH  19  20
ENDBRANCH  18  19
ENDBRANCH  15  18
ENDBRANCH  13  14
ENDBRANCH  12  13
ENDBRANCH   2  12
BRANCH   1  32
HETATM   32  C   UNL     1      25.038  47.055  50.222  1.00  0.00     0.051 A 
HETATM   33  C   UNL     1      25.990  47.863  49.579  1.00  0.00    -0.013 A 
HETATM   34  C   UNL     1      27.469  47.614  49.677  1.00  0.00     0.052 C 
HETATM   35  C   UNL     1      25.493  48.958  48.851  1.00  0.00     0.042 A 
HETATM   36 CL   UNL     1      26.550  50.073  48.061  1.00  0.00    -0.084 Cl
HETATM   37  C   UNL     1      24.115  49.191  48.737  1.00  0.00     0.024 A 
HETATM   38  C   UNL     1      23.197  48.344  49.356  1.00  0.00     0.004 A 
HETATM   39  C   UNL     1      23.656  47.268  50.107  1.00  0.00     0.031 A 
ENDBRANCH   1  32
BRANCH   6  40
HETATM   40  N   UNL     1      25.978  47.418  52.834  1.00  0.00    -0.384 N 
HETATM   41  H   UNL     1      26.038  47.471  53.846  1.00  0.00     0.157 HD
HETATM   42  H   UNL     1      25.477  48.193  52.415  1.00  0.00     0.157 HD
ENDBRANCH   6  40
TORSDOF 10
ENDMDL
