MODEL 1
REMARK VINA RESULT:      -9.4      0.000      0.000
REMARK  4 active torsions:
REMARK  status: ('A' for Active; 'I' for Inactive)
REMARK    1  A    between atoms: C_5  and  N_6 
REMARK       I    between atoms: N_6  and  C_7 
REMARK    2  A    between atoms: C_7  and  C_8 
REMARK    3  A    between atoms: N_12  and  C_13 
REMARK    4  A    between atoms: C_24  and  O_25 
ROOT
HETATM    1  C   UNL     1      24.918  45.672  51.777  1.00  0.00     0.034 A 
HETATM    2  C   UNL     1      24.290  44.960  50.750  1.00  0.00     0.049 A 
HETATM    3  C   UNL     1      23.764  45.699  49.710  1.00  0.00     0.064 A 
HETATM    4  C   UNL     1      23.843  47.093  49.624  1.00  0.00     0.066 A 
HETATM    5  N   UNL     1      23.208  47.480  48.423  1.00  0.00    -0.293 N 
HETATM    6  C   UNL     1      22.670  46.309  47.820  1.00  0.00     0.328 A 
HETATM    7  O   UNL     1      21.981  46.223  46.818  1.00  0.00    -0.247 OA
HETATM    8  N   UNL     1      23.068  45.227  48.609  1.00  0.00    -0.306 N 
HETATM    9  C   UNL     1      24.461  47.803  50.631  1.00  0.00     0.033 A 
HETATM   10  C   UNL     1      25.005  47.083  51.707  1.00  0.00     0.019 A 
HETATM   11  H   UNL     1      22.815  44.275  48.400  1.00  0.00     0.171 HD
ENDROOT
BRANCH   1  12
HETATM   12  C   UNL     1      25.539  44.996  52.951  1.00  0.00     0.252 C 
HETATM   13  N   UNL     1      26.603  45.629  53.547  1.00  0.00    -0.346 N 
HETATM   14  H   UNL     1      26.959  46.510  53.207  1.00  0.00     0.163 HD
HETATM   15  O   UNL     1      25.097  43.928  53.356  1.00  0.00    -0.268 OA
BRANCH  13  16
HETATM   16  C   UNL     1      27.255  45.070  54.717  1.00  0.00     0.147 C 
HETATM   17  C   UNL     1      28.425  44.195  54.354  1.00  0.00    -0.027 A 
HETATM   18  C   UNL     1      29.515  44.446  55.194  1.00  0.00    -0.047 A 
HETATM   19  C   UNL     1      28.491  43.204  53.383  1.00  0.00     0.010 A 
HETATM   20  C   UNL     1      30.696  43.732  55.067  1.00  0.00     0.008 A 
HETATM   21  C   UNL     1      29.189  45.494  56.217  1.00  0.00     0.073 C 
HETATM   22  C   UNL     1      30.777  42.753  54.075  1.00  0.00     0.001 A 
HETATM   23  C   UNL     1      29.681  42.488  53.241  1.00  0.00     0.001 A 
HETATM   24  C   UNL     1      27.932  46.149  55.617  1.00  0.00     0.149 C 
BRANCH  24  25
HETATM   25  O   UNL     1      28.333  47.302  54.854  1.00  0.00    -0.393 OA
HETATM   26  H   UNL     1      28.944  46.962  54.176  1.00  0.00     0.210 HD
ENDBRANCH  24  25
ENDBRANCH  13  16
ENDBRANCH   1  12
BRANCH   5  27
HETATM   27  C   UNL     1      22.894  48.800  47.920  1.00  0.00     0.095 C 
HETATM   28  C   UNL     1      21.759  49.587  48.575  1.00  0.00     0.026 C 
HETATM   29  C   UNL     1      21.996  51.009  48.091  1.00  0.00     0.002 C 
HETATM   30  C   UNL     1      23.501  51.176  48.204  1.00  0.00     0.002 C 
HETATM   31  C   UNL     1      24.087  49.775  48.022  1.00  0.00     0.026 C 
ENDBRANCH   5  27
TORSDOF 4
ENDMDL
MODEL 2
REMARK VINA RESULT:      -9.4      2.349      3.585
REMARK  4 active torsions:
REMARK  status: ('A' for Active; 'I' for Inactive)
REMARK    1  A    between atoms: C_5  and  N_6 
REMARK       I    between atoms: N_6  and  C_7 
REMARK    2  A    between atoms: C_7  and  C_8 
REMARK    3  A    between atoms: N_12  and  C_13 
REMARK    4  A    between atoms: C_24  and  O_25 
ROOT
HETATM    1  C   UNL     1      25.035  46.364  49.558  1.00  0.00     0.034 A 
HETATM    2  C   UNL     1      23.771  45.848  49.257  1.00  0.00     0.049 A 
HETATM    3  C   UNL     1      22.748  46.760  49.092  1.00  0.00     0.064 A 
HETATM    4  C   UNL     1      22.914  48.146  49.191  1.00  0.00     0.066 A 
HETATM    5  N   UNL     1      21.655  48.740  48.950  1.00  0.00    -0.293 N 
HETATM    6  C   UNL     1      20.706  47.694  48.785  1.00  0.00     0.328 A 
HETATM    7  O   UNL     1      19.498  47.785  48.641  1.00  0.00    -0.247 OA
HETATM    8  N   UNL     1      21.414  46.491  48.832  1.00  0.00    -0.306 N 
HETATM    9  C   UNL     1      24.157  48.663  49.485  1.00  0.00     0.033 A 
HETATM   10  C   UNL     1      25.221  47.763  49.662  1.00  0.00     0.019 A 
HETATM   11  H   UNL     1      20.972  45.591  48.741  1.00  0.00     0.171 HD
ENDROOT
BRANCH   1  12
HETATM   12  C   UNL     1      26.229  45.490  49.747  1.00  0.00     0.252 C 
HETATM   13  N   UNL     1      26.032  44.296  50.400  1.00  0.00    -0.346 N 
HETATM   14  H   UNL     1      25.126  44.019  50.744  1.00  0.00     0.163 HD
HETATM   15  O   UNL     1      27.324  45.837  49.322  1.00  0.00    -0.268 OA
BRANCH  13  16
HETATM   16  C   UNL     1      27.123  43.361  50.604  1.00  0.00     0.147 C 
HETATM   17  C   UNL     1      27.682  43.433  51.999  1.00  0.00    -0.027 A 
HETATM   18  C   UNL     1      27.910  42.151  52.512  1.00  0.00    -0.047 A 
HETATM   19  C   UNL     1      28.018  44.561  52.736  1.00  0.00     0.010 A 
HETATM   20  C   UNL     1      28.455  41.971  53.773  1.00  0.00     0.008 A 
HETATM   21  C   UNL     1      27.551  41.090  51.513  1.00  0.00     0.073 C 
HETATM   22  C   UNL     1      28.770  43.102  54.529  1.00  0.00     0.001 A 
HETATM   23  C   UNL     1      28.557  44.388  54.012  1.00  0.00     0.001 A 
HETATM   24  C   UNL     1      26.676  41.869  50.516  1.00  0.00     0.149 C 
BRANCH  24  25
HETATM   25  O   UNL     1      25.296  41.705  50.889  1.00  0.00    -0.393 OA
HETATM   26  H   UNL     1      24.892  41.197  50.164  1.00  0.00     0.210 HD
ENDBRANCH  24  25
ENDBRANCH  13  16
ENDBRANCH   1  12
BRANCH   5  27
HETATM   27  C   UNL     1      21.243  50.123  49.062  1.00  0.00     0.095 C 
HETATM   28  C   UNL     1      20.523  50.775  47.883  1.00  0.00     0.026 C 
HETATM   29  C   UNL     1      19.903  52.021  48.498  1.00  0.00     0.002 C 
HETATM   30  C   UNL     1      19.365  51.529  49.830  1.00  0.00     0.002 C 
HETATM   31  C   UNL     1      20.264  50.360  50.232  1.00  0.00     0.026 C 
ENDBRANCH   5  27
TORSDOF 4
ENDMDL
MODEL 3
REMARK VINA RESULT:      -9.4      2.439      8.987
REMARK  4 active torsions:
REMARK  status: ('A' for Active; 'I' for Inactive)
REMARK    1  A    between atoms: C_5  and  N_6 
REMARK       I    between atoms: N_6  and  C_7 
REMARK    2  A    between atoms: C_7  and  C_8 
REMARK    3  A    between atoms: N_12  and  C_13 
REMARK    4  A    between atoms: C_24  and  O_25 
ROOT
HETATM    1  C   UNL     1      24.212  46.521  49.816  1.00  0.00     0.034 A 
HETATM    2  C   UNL     1      24.202  45.126  49.711  1.00  0.00     0.049 A 
HETATM    3  C   UNL     1      25.107  44.436  50.490  1.00  0.00     0.064 A 
HETATM    4  C   UNL     1      26.004  45.047  51.374  1.00  0.00     0.066 A 
HETATM    5  N   UNL     1      26.751  44.022  51.995  1.00  0.00    -0.293 N 
HETATM    6  C   UNL     1      26.355  42.784  51.417  1.00  0.00     0.328 A 
HETATM    7  O   UNL     1      26.816  41.674  51.617  1.00  0.00    -0.247 OA
HETATM    8  N   UNL     1      25.312  43.066  50.530  1.00  0.00    -0.306 N 
HETATM    9  C   UNL     1      26.020  46.421  51.484  1.00  0.00     0.033 A 
HETATM   10  C   UNL     1      25.113  47.156  50.704  1.00  0.00     0.019 A 
HETATM   11  H   UNL     1      24.851  42.357  49.985  1.00  0.00     0.171 HD
ENDROOT
BRANCH   1  12
HETATM   12  C   UNL     1      23.277  47.385  49.040  1.00  0.00     0.252 C 
HETATM   13  N   UNL     1      22.702  48.441  49.708  1.00  0.00    -0.346 N 
HETATM   14  H   UNL     1      22.894  48.625  50.681  1.00  0.00     0.163 HD
HETATM   15  O   UNL     1      23.054  47.152  47.859  1.00  0.00    -0.268 OA
BRANCH  13  16
HETATM   16  C   UNL     1      21.805  49.360  49.033  1.00  0.00     0.147 C 
HETATM   17  C   UNL     1      20.364  48.942  49.152  1.00  0.00    -0.027 A 
HETATM   18  C   UNL     1      19.547  50.042  49.437  1.00  0.00    -0.047 A 
HETATM   19  C   UNL     1      19.814  47.681  48.963  1.00  0.00     0.010 A 
HETATM   20  C   UNL     1      18.174  49.901  49.559  1.00  0.00     0.008 A 
HETATM   21  C   UNL     1      20.345  51.310  49.516  1.00  0.00     0.073 C 
HETATM   22  C   UNL     1      17.619  48.631  49.395  1.00  0.00     0.001 A 
HETATM   23  C   UNL     1      18.433  47.529  49.095  1.00  0.00     0.001 A 
HETATM   24  C   UNL     1      21.780  50.779  49.681  1.00  0.00     0.149 C 
BRANCH  24  25
HETATM   25  O   UNL     1      22.093  50.728  51.084  1.00  0.00    -0.393 OA
HETATM   26  H   UNL     1      21.674  49.913  51.412  1.00  0.00     0.210 HD
ENDBRANCH  24  25
ENDBRANCH  13  16
ENDBRANCH   1  12
BRANCH   5  27
HETATM   27  C   UNL     1      27.891  44.109  52.883  1.00  0.00     0.095 C 
HETATM   28  C   UNL     1      27.802  43.456  54.262  1.00  0.00     0.026 C 
HETATM   29  C   UNL     1      29.254  43.389  54.710  1.00  0.00     0.002 C 
HETATM   30  C   UNL     1      29.992  42.948  53.458  1.00  0.00     0.002 C 
HETATM   31  C   UNL     1      29.163  43.470  52.284  1.00  0.00     0.026 C 
ENDBRANCH   5  27
TORSDOF 4
ENDMDL
MODEL 4
REMARK VINA RESULT:      -9.2      5.321      9.039
REMARK  4 active torsions:
REMARK  status: ('A' for Active; 'I' for Inactive)
REMARK    1  A    between atoms: C_5  and  N_6 
REMARK       I    between atoms: N_6  and  C_7 
REMARK    2  A    between atoms: C_7  and  C_8 
REMARK    3  A    between atoms: N_12  and  C_13 
REMARK    4  A    between atoms: C_24  and  O_25 
ROOT
HETATM    1  C   UNL     1      27.769  42.136  52.422  1.00  0.00     0.034 A 
HETATM    2  C   UNL     1      27.154  43.382  52.578  1.00  0.00     0.049 A 
HETATM    3  C   UNL     1      27.729  44.253  53.482  1.00  0.00     0.064 A 
HETATM    4  C   UNL     1      28.882  43.963  54.220  1.00  0.00     0.066 A 
HETATM    5  N   UNL     1      29.167  45.093  55.019  1.00  0.00    -0.293 N 
HETATM    6  C   UNL     1      28.125  46.041  54.818  1.00  0.00     0.328 A 
HETATM    7  O   UNL     1      27.956  47.109  55.382  1.00  0.00    -0.247 OA
HETATM    8  N   UNL     1      27.282  45.516  53.835  1.00  0.00    -0.306 N 
HETATM    9  C   UNL     1      29.495  42.738  54.071  1.00  0.00     0.033 A 
HETATM   10  C   UNL     1      28.936  41.827  53.161  1.00  0.00     0.019 A 
HETATM   11  H   UNL     1      26.460  45.994  53.508  1.00  0.00     0.171 HD
ENDROOT
BRANCH   1  12
HETATM   12  C   UNL     1      27.259  41.109  51.469  1.00  0.00     0.252 C 
HETATM   13  N   UNL     1      28.190  40.302  50.862  1.00  0.00    -0.346 N 
HETATM   14  H   UNL     1      29.179  40.398  51.041  1.00  0.00     0.163 HD
HETATM   15  O   UNL     1      26.057  41.001  51.261  1.00  0.00    -0.268 OA
BRANCH  13  16
HETATM   16  C   UNL     1      27.792  39.249  49.945  1.00  0.00     0.147 C 
HETATM   17  C   UNL     1      27.791  39.712  48.512  1.00  0.00    -0.027 A 
HETATM   18  C   UNL     1      28.365  38.748  47.677  1.00  0.00    -0.047 A 
HETATM   19  C   UNL     1      27.263  40.883  47.985  1.00  0.00     0.010 A 
HETATM   20  C   UNL     1      28.443  38.942  46.307  1.00  0.00     0.008 A 
HETATM   21  C   UNL     1      28.790  37.534  48.451  1.00  0.00     0.073 C 
HETATM   22  C   UNL     1      27.936  40.129  45.774  1.00  0.00     0.001 A 
HETATM   23  C   UNL     1      27.347  41.091  46.608  1.00  0.00     0.001 A 
HETATM   24  C   UNL     1      28.805  38.064  49.896  1.00  0.00     0.149 C 
BRANCH  24  25
HETATM   25  O   UNL     1      30.141  38.492  50.217  1.00  0.00    -0.393 OA
HETATM   26  H   UNL     1      30.182  38.502  51.189  1.00  0.00     0.210 HD
ENDBRANCH  24  25
ENDBRANCH  13  16
ENDBRANCH   1  12
BRANCH   5  27
HETATM   27  C   UNL     1      30.161  45.272  56.056  1.00  0.00     0.095 C 
HETATM   28  C   UNL     1      29.692  45.509  57.491  1.00  0.00     0.026 C 
HETATM   29  C   UNL     1      30.941  45.236  58.315  1.00  0.00     0.002 C 
HETATM   30  C   UNL     1      31.531  43.997  57.666  1.00  0.00     0.002 C 
HETATM   31  C   UNL     1      31.096  44.051  56.201  1.00  0.00     0.026 C 
ENDBRANCH   5  27
TORSDOF 4
ENDMDL
MODEL 5
REMARK VINA RESULT:      -9.1      2.433      3.888
REMARK  4 active torsions:
REMARK  status: ('A' for Active; 'I' for Inactive)
REMARK    1  A    between atoms: C_5  and  N_6 
REMARK       I    between atoms: N_6  and  C_7 
REMARK    2  A    between atoms: C_7  and  C_8 
REMARK    3  A    between atoms: N_12  and  C_13 
REMARK    4  A    between atoms: C_24  and  O_25 
ROOT
HETATM    1  C   UNL     1      23.653  47.221  49.486  1.00  0.00     0.034 A 
HETATM    2  C   UNL     1      22.676  46.444  48.855  1.00  0.00     0.049 A 
HETATM    3  C   UNL     1      21.503  47.081  48.504  1.00  0.00     0.064 A 
HETATM    4  C   UNL     1      21.254  48.440  48.728  1.00  0.00     0.066 A 
HETATM    5  N   UNL     1      19.964  48.721  48.226  1.00  0.00    -0.293 N 
HETATM    6  C   UNL     1      19.399  47.499  47.769  1.00  0.00     0.328 A 
HETATM    7  O   UNL     1      18.275  47.298  47.342  1.00  0.00    -0.247 OA
HETATM    8  N   UNL     1      20.385  46.518  47.910  1.00  0.00    -0.306 N 
HETATM    9  C   UNL     1      22.211  49.213  49.348  1.00  0.00     0.033 A 
HETATM   10  C   UNL     1      23.417  48.597  49.721  1.00  0.00     0.019 A 
HETATM   11  H   UNL     1      20.238  45.555  47.658  1.00  0.00     0.171 HD
ENDROOT
BRANCH   1  12
HETATM   12  C   UNL     1      24.970  46.661  49.904  1.00  0.00     0.252 C 
HETATM   13  N   UNL     1      24.976  45.829  50.998  1.00  0.00    -0.346 N 
HETATM   14  H   UNL     1      24.133  45.606  51.505  1.00  0.00     0.163 HD
HETATM   15  O   UNL     1      25.986  46.938  49.280  1.00  0.00    -0.268 OA
BRANCH  13  16
HETATM   16  C   UNL     1      26.202  45.206  51.464  1.00  0.00     0.147 C 
HETATM   17  C   UNL     1      26.658  45.765  52.784  1.00  0.00    -0.027 A 
HETATM   18  C   UNL     1      27.080  44.741  53.640  1.00  0.00    -0.047 A 
HETATM   19  C   UNL     1      26.747  47.095  53.173  1.00  0.00     0.010 A 
HETATM   20  C   UNL     1      27.575  45.022  54.903  1.00  0.00     0.008 A 
HETATM   21  C   UNL     1      26.972  43.397  52.980  1.00  0.00     0.073 C 
HETATM   22  C   UNL     1      27.642  46.356  55.309  1.00  0.00     0.001 A 
HETATM   23  C   UNL     1      27.234  47.386  54.449  1.00  0.00     0.001 A 
HETATM   24  C   UNL     1      26.031  43.692  51.799  1.00  0.00     0.149 C 
BRANCH  24  25
HETATM   25  O   UNL     1      24.683  43.385  52.197  1.00  0.00    -0.393 OA
HETATM   26  H   UNL     1      24.745  42.552  52.697  1.00  0.00     0.210 HD
ENDBRANCH  24  25
ENDBRANCH  13  16
ENDBRANCH   1  12
BRANCH   5  27
HETATM   27  C   UNL     1      19.172  49.930  48.322  1.00  0.00     0.095 C 
HETATM   28  C   UNL     1      18.786  50.449  49.706  1.00  0.00     0.026 C 
HETATM   29  C   UNL     1      18.352  51.881  49.433  1.00  0.00     0.002 C 
HETATM   30  C   UNL     1      19.393  52.385  48.449  1.00  0.00     0.002 C 
HETATM   31  C   UNL     1      19.870  51.150  47.683  1.00  0.00     0.026 C 
ENDBRANCH   5  27
TORSDOF 4
ENDMDL
MODEL 6
REMARK VINA RESULT:      -9.0      5.261      8.255
REMARK  4 active torsions:
REMARK  status: ('A' for Active; 'I' for Inactive)
REMARK    1  A    between atoms: C_5  and  N_6 
REMARK       I    between atoms: N_6  and  C_7 
REMARK    2  A    between atoms: C_7  and  C_8 
REMARK    3  A    between atoms: N_12  and  C_13 
REMARK    4  A    between atoms: C_24  and  O_25 
ROOT
HETATM    1  C   UNL     1      26.237  41.576  50.786  1.00  0.00     0.034 A 
HETATM    2  C   UNL     1      27.443  41.079  51.292  1.00  0.00     0.049 A 
HETATM    3  C   UNL     1      28.021  40.031  50.606  1.00  0.00     0.064 A 
HETATM    4  C   UNL     1      27.483  39.465  49.445  1.00  0.00     0.066 A 
HETATM    5  N   UNL     1      28.357  38.435  49.032  1.00  0.00    -0.293 N 
HETATM    6  C   UNL     1      29.391  38.328  50.003  1.00  0.00     0.328 A 
HETATM    7  O   UNL     1      30.294  37.510  50.058  1.00  0.00    -0.247 OA
HETATM    8  N   UNL     1      29.183  39.351  50.932  1.00  0.00    -0.306 N 
HETATM    9  C   UNL     1      26.296  39.949  48.939  1.00  0.00     0.033 A 
HETATM   10  C   UNL     1      25.678  41.015  49.614  1.00  0.00     0.019 A 
HETATM   11  H   UNL     1      29.781  39.495  51.729  1.00  0.00     0.171 HD
ENDROOT
BRANCH   1  12
HETATM   12  C   UNL     1      25.514  42.714  51.423  1.00  0.00     0.252 C 
HETATM   13  N   UNL     1      26.272  43.624  52.122  1.00  0.00    -0.346 N 
HETATM   14  H   UNL     1      27.273  43.529  52.211  1.00  0.00     0.163 HD
HETATM   15  O   UNL     1      24.300  42.819  51.306  1.00  0.00    -0.268 OA
BRANCH  13  16
HETATM   16  C   UNL     1      25.668  44.785  52.749  1.00  0.00     0.147 C 
HETATM   17  C   UNL     1      26.576  45.420  53.768  1.00  0.00    -0.027 A 
HETATM   18  C   UNL     1      26.561  46.814  53.649  1.00  0.00    -0.047 A 
HETATM   19  C   UNL     1      27.316  44.801  54.767  1.00  0.00     0.010 A 
HETATM   20  C   UNL     1      27.299  47.614  54.507  1.00  0.00     0.008 A 
HETATM   21  C   UNL     1      25.631  47.261  52.559  1.00  0.00     0.073 C 
HETATM   22  C   UNL     1      28.065  46.996  55.497  1.00  0.00     0.001 A 
HETATM   23  C   UNL     1      28.071  45.599  55.628  1.00  0.00     0.001 A 
HETATM   24  C   UNL     1      25.429  45.964  51.756  1.00  0.00     0.149 C 
BRANCH  24  25
HETATM   25  O   UNL     1      26.373  45.943  50.670  1.00  0.00    -0.393 OA
HETATM   26  H   UNL     1      26.797  45.068  50.714  1.00  0.00     0.210 HD
ENDBRANCH  24  25
ENDBRANCH  13  16
ENDBRANCH   1  12
BRANCH   5  27
HETATM   27  C   UNL     1      28.207  37.455  47.977  1.00  0.00     0.095 C 
HETATM   28  C   UNL     1      26.926  36.623  47.923  1.00  0.00     0.026 C 
HETATM   29  C   UNL     1      26.946  36.044  46.516  1.00  0.00     0.002 C 
HETATM   30  C   UNL     1      27.397  37.213  45.658  1.00  0.00     0.002 C 
HETATM   31  C   UNL     1      28.266  38.082  46.568  1.00  0.00     0.026 C 
ENDBRANCH   5  27
TORSDOF 4
ENDMDL
MODEL 7
REMARK VINA RESULT:      -8.9      2.985      4.857
REMARK  4 active torsions:
REMARK  status: ('A' for Active; 'I' for Inactive)
REMARK    1  A    between atoms: C_5  and  N_6 
REMARK       I    between atoms: N_6  and  C_7 
REMARK    2  A    between atoms: C_7  and  C_8 
REMARK    3  A    between atoms: N_12  and  C_13 
REMARK    4  A    between atoms: C_24  and  O_25 
ROOT
HETATM    1  C   UNL     1      23.088  48.507  49.252  1.00  0.00     0.034 A 
HETATM    2  C   UNL     1      22.204  47.606  48.651  1.00  0.00     0.049 A 
HETATM    3  C   UNL     1      20.926  48.061  48.398  1.00  0.00     0.064 A 
HETATM    4  C   UNL     1      20.485  49.357  48.690  1.00  0.00     0.066 A 
HETATM    5  N   UNL     1      19.137  49.448  48.279  1.00  0.00    -0.293 N 
HETATM    6  C   UNL     1      18.739  48.166  47.809  1.00  0.00     0.328 A 
HETATM    7  O   UNL     1      17.633  47.805  47.444  1.00  0.00    -0.247 OA
HETATM    8  N   UNL     1      19.871  47.348  47.851  1.00  0.00    -0.306 N 
HETATM    9  C   UNL     1      21.351  50.252  49.281  1.00  0.00     0.033 A 
HETATM   10  C   UNL     1      22.659  49.822  49.555  1.00  0.00     0.019 A 
HETATM   11  H   UNL     1      19.858  46.382  47.570  1.00  0.00     0.171 HD
ENDROOT
BRANCH   1  12
HETATM   12  C   UNL     1      24.500  48.148  49.567  1.00  0.00     0.252 C 
HETATM   13  N   UNL     1      24.730  46.887  50.062  1.00  0.00    -0.346 N 
HETATM   14  H   UNL     1      23.980  46.229  50.215  1.00  0.00     0.163 HD
HETATM   15  O   UNL     1      25.401  48.955  49.375  1.00  0.00    -0.268 OA
BRANCH  13  16
HETATM   16  C   UNL     1      26.073  46.430  50.367  1.00  0.00     0.147 C 
HETATM   17  C   UNL     1      26.243  46.096  51.825  1.00  0.00    -0.027 A 
HETATM   18  C   UNL     1      26.957  44.903  51.984  1.00  0.00    -0.047 A 
HETATM   19  C   UNL     1      25.842  46.834  52.931  1.00  0.00     0.010 A 
HETATM   20  C   UNL     1      27.264  44.414  53.243  1.00  0.00     0.008 A 
HETATM   21  C   UNL     1      27.358  44.325  50.658  1.00  0.00     0.073 C 
HETATM   22  C   UNL     1      26.840  45.139  54.359  1.00  0.00     0.001 A 
HETATM   23  C   UNL     1      26.137  46.343  54.203  1.00  0.00     0.001 A 
HETATM   24  C   UNL     1      26.428  45.072  49.686  1.00  0.00     0.149 C 
BRANCH  24  25
HETATM   25  O   UNL     1      25.257  44.268  49.459  1.00  0.00    -0.393 OA
HETATM   26  H   UNL     1      25.414  43.818  48.611  1.00  0.00     0.210 HD
ENDBRANCH  24  25
ENDBRANCH  13  16
ENDBRANCH   1  12
BRANCH   5  27
HETATM   27  C   UNL     1      18.176  50.514  48.471  1.00  0.00     0.095 C 
HETATM   28  C   UNL     1      17.766  50.888  49.894  1.00  0.00     0.026 C 
HETATM   29  C   UNL     1      17.112  52.251  49.722  1.00  0.00     0.002 C 
HETATM   30  C   UNL     1      18.029  52.963  48.743  1.00  0.00     0.002 C 
HETATM   31  C   UNL     1      18.658  51.861  47.889  1.00  0.00     0.026 C 
ENDBRANCH   5  27
TORSDOF 4
ENDMDL
MODEL 8
REMARK VINA RESULT:      -8.8      3.023      4.006
REMARK  4 active torsions:
REMARK  status: ('A' for Active; 'I' for Inactive)
REMARK    1  A    between atoms: C_5  and  N_6 
REMARK       I    between atoms: N_6  and  C_7 
REMARK    2  A    between atoms: C_7  and  C_8 
REMARK    3  A    between atoms: N_12  and  C_13 
REMARK    4  A    between atoms: C_24  and  O_25 
ROOT
HETATM    1  C   UNL     1      25.361  45.353  50.653  1.00  0.00     0.034 A 
HETATM    2  C   UNL     1      26.434  46.184  50.317  1.00  0.00     0.049 A 
HETATM    3  C   UNL     1      26.127  47.382  49.704  1.00  0.00     0.064 A 
HETATM    4  C   UNL     1      24.823  47.805  49.424  1.00  0.00     0.066 A 
HETATM    5  N   UNL     1      24.912  49.074  48.810  1.00  0.00    -0.293 N 
HETATM    6  C   UNL     1      26.292  49.381  48.647  1.00  0.00     0.328 A 
HETATM    7  O   UNL     1      26.791  50.343  48.088  1.00  0.00    -0.247 OA
HETATM    8  N   UNL     1      27.012  48.345  49.246  1.00  0.00    -0.306 N 
HETATM    9  C   UNL     1      23.759  46.992  49.752  1.00  0.00     0.033 A 
HETATM   10  C   UNL     1      24.035  45.764  50.375  1.00  0.00     0.019 A 
HETATM   11  H   UNL     1      28.018  48.319  49.268  1.00  0.00     0.171 HD
ENDROOT
BRANCH   1  12
HETATM   12  C   UNL     1      25.552  44.039  51.330  1.00  0.00     0.252 C 
HETATM   13  N   UNL     1      26.771  43.424  51.171  1.00  0.00    -0.346 N 
HETATM   14  H   UNL     1      27.507  43.834  50.616  1.00  0.00     0.163 HD
HETATM   15  O   UNL     1      24.651  43.553  52.003  1.00  0.00    -0.268 OA
BRANCH  13  16
HETATM   16  C   UNL     1      27.067  42.159  51.818  1.00  0.00     0.147 C 
HETATM   17  C   UNL     1      27.393  41.075  50.827  1.00  0.00    -0.027 A 
HETATM   18  C   UNL     1      28.494  40.324  51.253  1.00  0.00    -0.047 A 
HETATM   19  C   UNL     1      26.720  40.745  49.658  1.00  0.00     0.010 A 
HETATM   20  C   UNL     1      28.956  39.247  50.513  1.00  0.00     0.008 A 
HETATM   21  C   UNL     1      29.007  40.807  52.578  1.00  0.00     0.073 C 
HETATM   22  C   UNL     1      28.298  38.926  49.324  1.00  0.00     0.001 A 
HETATM   23  C   UNL     1      27.185  39.668  48.901  1.00  0.00     0.001 A 
HETATM   24  C   UNL     1      28.365  42.202  52.682  1.00  0.00     0.149 C 
BRANCH  24  25
HETATM   25  O   UNL     1      29.301  43.177  52.187  1.00  0.00    -0.393 OA
HETATM   26  H   UNL     1      29.830  42.710  51.517  1.00  0.00     0.210 HD
ENDBRANCH  24  25
ENDBRANCH  13  16
ENDBRANCH   1  12
BRANCH   5  27
HETATM   27  C   UNL     1      23.881  49.889  48.205  1.00  0.00     0.095 C 
HETATM   28  C   UNL     1      22.606  49.212  47.704  1.00  0.00     0.026 C 
HETATM   29  C   UNL     1      21.637  50.372  47.537  1.00  0.00     0.002 C 
HETATM   30  C   UNL     1      21.880  51.219  48.774  1.00  0.00     0.002 C 
HETATM   31  C   UNL     1      23.337  50.970  49.165  1.00  0.00     0.026 C 
ENDBRANCH   5  27
TORSDOF 4
ENDMDL
MODEL 9
REMARK VINA RESULT:      -8.7      3.324      5.476
REMARK  4 active torsions:
REMARK  status: ('A' for Active; 'I' for Inactive)
REMARK    1  A    between atoms: C_5  and  N_6 
REMARK       I    between atoms: N_6  and  C_7 
REMARK    2  A    between atoms: C_7  and  C_8 
REMARK    3  A    between atoms: N_12  and  C_13 
REMARK    4  A    between atoms: C_24  and  O_25 
ROOT
HETATM    1  C   UNL     1      23.144  48.695  49.092  1.00  0.00     0.034 A 
HETATM    2  C   UNL     1      22.764  50.041  49.060  1.00  0.00     0.049 A 
HETATM    3  C   UNL     1      21.450  50.310  48.738  1.00  0.00     0.064 A 
HETATM    4  C   UNL     1      20.494  49.324  48.465  1.00  0.00     0.066 A 
HETATM    5  N   UNL     1      19.274  49.982  48.193  1.00  0.00    -0.293 N 
HETATM    6  C   UNL     1      19.520  51.382  48.223  1.00  0.00     0.328 A 
HETATM    7  O   UNL     1      18.749  52.291  47.961  1.00  0.00    -0.247 OA
HETATM    8  N   UNL     1      20.853  51.553  48.605  1.00  0.00    -0.306 N 
HETATM    9  C   UNL     1      20.860  47.996  48.496  1.00  0.00     0.033 A 
HETATM   10  C   UNL     1      22.191  47.685  48.817  1.00  0.00     0.019 A 
HETATM   11  H   UNL     1      21.283  52.458  48.701  1.00  0.00     0.171 HD
ENDROOT
BRANCH   1  12
HETATM   12  C   UNL     1      24.530  48.266  49.438  1.00  0.00     0.252 C 
HETATM   13  N   UNL     1      24.694  46.970  49.865  1.00  0.00    -0.346 N 
HETATM   14  H   UNL     1      23.917  46.333  49.951  1.00  0.00     0.163 HD
HETATM   15  O   UNL     1      25.466  49.049  49.328  1.00  0.00    -0.268 OA
BRANCH  13  16
HETATM   16  C   UNL     1      26.008  46.446  50.194  1.00  0.00     0.147 C 
HETATM   17  C   UNL     1      26.165  46.186  51.668  1.00  0.00    -0.027 A 
HETATM   18  C   UNL     1      26.802  44.961  51.893  1.00  0.00    -0.047 A 
HETATM   19  C   UNL     1      25.818  47.010  52.730  1.00  0.00     0.010 A 
HETATM   20  C   UNL     1      27.084  44.526  53.178  1.00  0.00     0.008 A 
HETATM   21  C   UNL     1      27.157  44.283  50.602  1.00  0.00     0.073 C 
HETATM   22  C   UNL     1      26.714  45.339  54.251  1.00  0.00     0.001 A 
HETATM   23  C   UNL     1      26.089  46.574  54.028  1.00  0.00     0.001 A 
HETATM   24  C   UNL     1      26.272  45.032  49.591  1.00  0.00     0.149 C 
BRANCH  24  25
HETATM   25  O   UNL     1      25.050  44.294  49.413  1.00  0.00    -0.393 OA
HETATM   26  H   UNL     1      25.074  43.972  48.494  1.00  0.00     0.210 HD
ENDBRANCH  24  25
ENDBRANCH  13  16
ENDBRANCH   1  12
BRANCH   5  27
HETATM   27  C   UNL     1      18.013  49.446  47.726  1.00  0.00     0.095 C 
HETATM   28  C   UNL     1      18.003  48.573  46.472  1.00  0.00     0.026 C 
HETATM   29  C   UNL     1      16.648  47.885  46.537  1.00  0.00     0.002 C 
HETATM   30  C   UNL     1      16.512  47.505  48.001  1.00  0.00     0.002 C 
HETATM   31  C   UNL     1      17.325  48.544  48.774  1.00  0.00     0.026 C 
ENDBRANCH   5  27
TORSDOF 4
ENDMDL
MODEL 10
REMARK VINA RESULT:      -8.6      7.503     13.684
REMARK  4 active torsions:
REMARK  status: ('A' for Active; 'I' for Inactive)
REMARK    1  A    between atoms: C_5  and  N_6 
REMARK       I    between atoms: N_6  and  C_7 
REMARK    2  A    between atoms: C_7  and  C_8 
REMARK    3  A    between atoms: N_12  and  C_13 
REMARK    4  A    between atoms: C_24  and  O_25 
ROOT
HETATM    1  C   UNL     1      16.587  51.906  49.453  1.00  0.00     0.034 A 
HETATM    2  C   UNL     1      16.543  50.514  49.329  1.00  0.00     0.049 A 
HETATM    3  C   UNL     1      17.752  49.861  49.196  1.00  0.00     0.064 A 
HETATM    4  C   UNL     1      18.993  50.508  49.198  1.00  0.00     0.066 A 
HETATM    5  N   UNL     1      19.987  49.514  49.054  1.00  0.00    -0.293 N 
HETATM    6  C   UNL     1      19.330  48.264  48.882  1.00  0.00     0.328 A 
HETATM    7  O   UNL     1      19.827  47.176  48.645  1.00  0.00    -0.247 OA
HETATM    8  N   UNL     1      17.961  48.503  49.020  1.00  0.00    -0.306 N 
HETATM    9  C   UNL     1      19.046  51.879  49.321  1.00  0.00     0.033 A 
HETATM   10  C   UNL     1      17.834  52.576  49.455  1.00  0.00     0.019 A 
HETATM   11  H   UNL     1      17.268  47.777  48.939  1.00  0.00     0.171 HD
ENDROOT
BRANCH   1  12
HETATM   12  C   UNL     1      15.356  52.731  49.617  1.00  0.00     0.252 C 
HETATM   13  N   UNL     1      15.227  53.831  48.802  1.00  0.00    -0.346 N 
HETATM   14  H   UNL     1      15.933  54.080  48.126  1.00  0.00     0.163 HD
HETATM   15  O   UNL     1      14.506  52.417  50.440  1.00  0.00    -0.268 OA
BRANCH  13  16
HETATM   16  C   UNL     1      14.050  54.678  48.861  1.00  0.00     0.147 C 
HETATM   17  C   UNL     1      14.368  56.060  49.366  1.00  0.00    -0.027 A 
HETATM   18  C   UNL     1      13.711  57.032  48.604  1.00  0.00    -0.047 A 
HETATM   19  C   UNL     1      15.139  56.421  50.462  1.00  0.00     0.010 A 
HETATM   20  C   UNL     1      13.829  58.380  48.907  1.00  0.00     0.008 A 
HETATM   21  C   UNL     1      12.871  56.410  47.527  1.00  0.00     0.073 C 
HETATM   22  C   UNL     1      14.624  58.750  49.992  1.00  0.00     0.001 A 
HETATM   23  C   UNL     1      15.272  57.776  50.768  1.00  0.00     0.001 A 
HETATM   24  C   UNL     1      13.444  54.984  47.456  1.00  0.00     0.149 C 
BRANCH  24  25
HETATM   25  O   UNL     1      14.447  54.941  46.424  1.00  0.00    -0.393 OA
HETATM   26  H   UNL     1      14.556  55.863  46.133  1.00  0.00     0.210 HD
ENDBRANCH  24  25
ENDBRANCH  13  16
ENDBRANCH   1  12
BRANCH   5  27
HETATM   27  C   UNL     1      21.416  49.649  48.862  1.00  0.00     0.095 C 
HETATM   28  C   UNL     1      21.935  50.135  47.510  1.00  0.00     0.026 C 
HETATM   29  C   UNL     1      23.371  50.538  47.812  1.00  0.00     0.002 C 
HETATM   30  C   UNL     1      23.264  51.262  49.143  1.00  0.00     0.002 C 
HETATM   31  C   UNL     1      22.057  50.646  49.852  1.00  0.00     0.026 C 
ENDBRANCH   5  27
TORSDOF 4
ENDMDL
