MODEL 1
REMARK VINA RESULT:      -9.1      0.000      0.000
REMARK  5 active torsions:
REMARK  status: ('A' for Active; 'I' for Inactive)
REMARK    1  A    between atoms: C_3  and  N_4 
REMARK       I    between atoms: N_4  and  C_5 
REMARK    2  A    between atoms: C_9  and  N_10 
REMARK       I    between atoms: N_10  and  C_11 
REMARK    3  A    between atoms: C_11  and  C_12 
REMARK    4  A    between atoms: C_17  and  C_18 
REMARK    5  A    between atoms: C_24  and  C_25 
ROOT
HETATM    1  C   UNL     1      20.150  48.895  47.588  1.00  0.00     0.148 A 
HETATM    2  N   UNL     1      19.635  49.676  48.566  1.00  0.00    -0.165 NA
HETATM    3  N   UNL     1      18.382  49.931  48.139  1.00  0.00    -0.240 N 
HETATM    4  C   UNL     1      18.065  49.317  46.959  1.00  0.00     0.123 A 
HETATM    5  N   UNL     1      16.837  49.422  46.411  1.00  0.00    -0.364 N 
HETATM    6  C   UNL     1      15.843  50.364  46.925  1.00  0.00     0.143 C 
HETATM    7  C   UNL     1      16.011  50.518  48.448  1.00  0.00     0.068 C 
HETATM    8  C   UNL     1      17.463  50.747  48.910  1.00  0.00     0.221 C 
HETATM    9  C   UNL     1      19.192  48.644  46.569  1.00  0.00     0.089 A 
HETATM   10  H   UNL     1      16.667  49.100  45.458  1.00  0.00     0.162 HD
ENDROOT
BRANCH   1  11
HETATM   11  C   UNL     1      21.537  48.398  47.629  1.00  0.00     0.276 C 
HETATM   12  N   UNL     1      22.360  49.225  48.369  1.00  0.00    -0.322 N 
HETATM   13  H   UNL     1      21.878  50.034  48.757  1.00  0.00     0.169 HD
HETATM   14  O   UNL     1      21.865  47.373  47.041  1.00  0.00    -0.266 OA
BRANCH  12  15
HETATM   15  C   UNL     1      23.739  49.098  48.610  1.00  0.00     0.037 A 
HETATM   16  C   UNL     1      24.299  48.124  49.440  1.00  0.00     0.059 A 
HETATM   17  C   UNL     1      25.693  48.018  49.634  1.00  0.00     0.042 A 
HETATM   18  C   UNL     1      26.537  48.966  49.033  1.00  0.00    -0.035 A 
HETATM   19  C   UNL     1      28.020  49.066  49.261  1.00  0.00     0.050 C 
HETATM   20  C   UNL     1      25.967  49.930  48.179  1.00  0.00     0.011 A 
HETATM   21  C   UNL     1      24.588  49.996  47.971  1.00  0.00     0.030 A 
BRANCH  17  22
HETATM   22  N   UNL     1      26.086  46.957  50.485  1.00  0.00    -0.327 N 
HETATM   23  C   UNL     1      25.895  46.835  51.847  1.00  0.00     0.218 C 
HETATM   24  C   UNL     1      26.388  45.511  52.379  1.00  0.00     0.117 C 
HETATM   25  O   UNL     1      25.403  47.661  52.605  1.00  0.00    -0.274 OA
HETATM   26  H   UNL     1      26.792  46.343  50.097  1.00  0.00     0.169 HD
ENDBRANCH  17  22
ENDBRANCH  12  15
ENDBRANCH   1  11
BRANCH   8  27
HETATM   27  C   UNL     1      17.898  52.195  48.874  1.00  0.00     0.409 C 
HETATM   28  F   UNL     1      18.591  52.484  47.746  1.00  0.00    -0.169 F 
HETATM   29  F   UNL     1      16.880  53.072  48.952  1.00  0.00    -0.169 F 
HETATM   30  F   UNL     1      18.739  52.461  49.907  1.00  0.00    -0.169 F 
ENDBRANCH   8  27
BRANCH   6  31
HETATM   31  C   UNL     1      15.780  51.671  46.203  1.00  0.00     0.075 A 
HETATM   32  O   UNL     1      14.772  52.515  46.571  1.00  0.00    -0.325 OA
HETATM   33  C   UNL     1      14.873  53.621  45.789  1.00  0.00     0.142 A 
HETATM   34  C   UNL     1      15.930  53.502  44.920  1.00  0.00     0.027 A 
HETATM   35  C   UNL     1      16.512  52.238  45.179  1.00  0.00     0.037 A 
ENDBRANCH   6  31
TORSDOF 5
ENDMDL
MODEL 2
REMARK VINA RESULT:      -9.1      2.913      4.908
REMARK  5 active torsions:
REMARK  status: ('A' for Active; 'I' for Inactive)
REMARK    1  A    between atoms: C_3  and  N_4 
REMARK       I    between atoms: N_4  and  C_5 
REMARK    2  A    between atoms: C_9  and  N_10 
REMARK       I    between atoms: N_10  and  C_11 
REMARK    3  A    between atoms: C_11  and  C_12 
REMARK    4  A    between atoms: C_17  and  C_18 
REMARK    5  A    between atoms: C_24  and  C_25 
ROOT
HETATM    1  C   UNL     1      23.638  48.289  49.229  1.00  0.00     0.148 A 
HETATM    2  N   UNL     1      22.552  47.530  48.954  1.00  0.00    -0.165 NA
HETATM    3  N   UNL     1      21.704  48.395  48.363  1.00  0.00    -0.240 N 
HETATM    4  C   UNL     1      22.216  49.655  48.214  1.00  0.00     0.123 A 
HETATM    5  N   UNL     1      21.523  50.634  47.597  1.00  0.00    -0.364 N 
HETATM    6  C   UNL     1      20.112  50.474  47.245  1.00  0.00     0.143 C 
HETATM    7  C   UNL     1      19.828  49.004  46.889  1.00  0.00     0.068 C 
HETATM    8  C   UNL     1      20.394  47.983  47.895  1.00  0.00     0.221 C 
HETATM    9  C   UNL     1      23.465  49.623  48.772  1.00  0.00     0.089 A 
HETATM   10  H   UNL     1      21.845  51.601  47.640  1.00  0.00     0.162 HD
ENDROOT
BRANCH   1  11
HETATM   11  C   UNL     1      24.821  47.744  49.918  1.00  0.00     0.276 C 
HETATM   12  N   UNL     1      24.489  47.136  51.113  1.00  0.00    -0.322 N 
HETATM   13  H   UNL     1      23.492  47.167  51.320  1.00  0.00     0.169 HD
HETATM   14  O   UNL     1      25.946  47.863  49.444  1.00  0.00    -0.266 OA
BRANCH  12  15
HETATM   15  C   UNL     1      25.342  46.533  52.054  1.00  0.00     0.037 A 
HETATM   16  C   UNL     1      25.793  45.214  51.964  1.00  0.00     0.059 A 
HETATM   17  C   UNL     1      26.668  44.656  52.920  1.00  0.00     0.042 A 
HETATM   18  C   UNL     1      27.038  45.426  54.035  1.00  0.00    -0.035 A 
HETATM   19  C   UNL     1      27.845  44.924  55.200  1.00  0.00     0.050 C 
HETATM   20  C   UNL     1      26.598  46.763  54.105  1.00  0.00     0.011 A 
HETATM   21  C   UNL     1      25.761  47.308  53.130  1.00  0.00     0.030 A 
BRANCH  17  22
HETATM   22  N   UNL     1      27.045  43.317  52.658  1.00  0.00    -0.327 N 
HETATM   23  C   UNL     1      28.304  42.817  52.391  1.00  0.00     0.218 C 
HETATM   24  C   UNL     1      28.307  41.314  52.248  1.00  0.00     0.117 C 
HETATM   25  O   UNL     1      29.343  43.453  52.260  1.00  0.00    -0.274 OA
HETATM   26  H   UNL     1      26.280  42.705  52.401  1.00  0.00     0.169 HD
ENDBRANCH  17  22
ENDBRANCH  12  15
ENDBRANCH   1  11
BRANCH   8  27
HETATM   27  C   UNL     1      19.484  47.710  49.071  1.00  0.00     0.409 C 
HETATM   28  F   UNL     1      19.550  46.416  49.468  1.00  0.00    -0.169 F 
HETATM   29  F   UNL     1      19.745  48.471  50.150  1.00  0.00    -0.169 F 
HETATM   30  F   UNL     1      18.189  47.928  48.726  1.00  0.00    -0.169 F 
ENDBRANCH   8  27
BRANCH   6  31
HETATM   31  C   UNL     1      19.147  51.039  48.237  1.00  0.00     0.075 A 
HETATM   32  O   UNL     1      17.822  50.855  47.961  1.00  0.00    -0.325 OA
HETATM   33  C   UNL     1      17.121  51.456  48.956  1.00  0.00     0.142 A 
HETATM   34  C   UNL     1      17.973  52.028  49.869  1.00  0.00     0.027 A 
HETATM   35  C   UNL     1      19.283  51.768  49.401  1.00  0.00     0.037 A 
ENDBRANCH   6  31
TORSDOF 5
ENDMDL
MODEL 3
REMARK VINA RESULT:      -8.8     11.791     13.777
REMARK  5 active torsions:
REMARK  status: ('A' for Active; 'I' for Inactive)
REMARK    1  A    between atoms: C_3  and  N_4 
REMARK       I    between atoms: N_4  and  C_5 
REMARK    2  A    between atoms: C_9  and  N_10 
REMARK       I    between atoms: N_10  and  C_11 
REMARK    3  A    between atoms: C_11  and  C_12 
REMARK    4  A    between atoms: C_17  and  C_18 
REMARK    5  A    between atoms: C_24  and  C_25 
ROOT
HETATM    1  C   UNL     1      27.670  40.789  51.335  1.00  0.00     0.148 A 
HETATM    2  N   UNL     1      28.679  40.474  50.489  1.00  0.00    -0.165 NA
HETATM    3  N   UNL     1      28.041  40.006  49.398  1.00  0.00    -0.240 N 
HETATM    4  C   UNL     1      26.677  40.046  49.496  1.00  0.00     0.123 A 
HETATM    5  N   UNL     1      25.879  39.664  48.477  1.00  0.00    -0.364 N 
HETATM    6  C   UNL     1      26.413  38.985  47.296  1.00  0.00     0.143 C 
HETATM    7  C   UNL     1      27.832  39.499  46.997  1.00  0.00     0.068 C 
HETATM    8  C   UNL     1      28.763  39.553  48.224  1.00  0.00     0.221 C 
HETATM    9  C   UNL     1      26.403  40.541  50.742  1.00  0.00     0.089 A 
HETATM   10  H   UNL     1      24.877  39.544  48.623  1.00  0.00     0.162 HD
ENDROOT
BRANCH   1  11
HETATM   11  C   UNL     1      27.918  41.318  52.688  1.00  0.00     0.276 C 
HETATM   12  N   UNL     1      28.491  42.574  52.654  1.00  0.00    -0.322 N 
HETATM   13  H   UNL     1      28.649  42.922  51.710  1.00  0.00     0.169 HD
HETATM   14  O   UNL     1      27.641  40.665  53.689  1.00  0.00    -0.266 OA
BRANCH  12  15
HETATM   15  C   UNL     1      28.895  43.380  53.733  1.00  0.00     0.037 A 
HETATM   16  C   UNL     1      28.153  44.457  54.222  1.00  0.00     0.059 A 
HETATM   17  C   UNL     1      28.586  45.225  55.324  1.00  0.00     0.042 A 
HETATM   18  C   UNL     1      29.836  44.945  55.899  1.00  0.00    -0.035 A 
HETATM   19  C   UNL     1      30.490  45.761  56.979  1.00  0.00     0.050 C 
HETATM   20  C   UNL     1      30.568  43.843  55.414  1.00  0.00     0.011 A 
HETATM   21  C   UNL     1      30.105  43.072  54.346  1.00  0.00     0.030 A 
BRANCH  17  22
HETATM   22  N   UNL     1      27.697  46.259  55.703  1.00  0.00    -0.327 N 
HETATM   23  C   UNL     1      27.616  47.545  55.205  1.00  0.00     0.218 C 
HETATM   24  C   UNL     1      26.473  48.325  55.813  1.00  0.00     0.117 C 
HETATM   25  O   UNL     1      28.350  48.068  54.377  1.00  0.00    -0.274 OA
HETATM   26  H   UNL     1      27.238  46.118  56.595  1.00  0.00     0.169 HD
ENDBRANCH  17  22
ENDBRANCH  12  15
ENDBRANCH   1  11
BRANCH   8  27
HETATM   27  C   UNL     1      29.468  38.247  48.519  1.00  0.00     0.409 C 
HETATM   28  F   UNL     1      29.517  37.446  47.428  1.00  0.00    -0.169 F 
HETATM   29  F   UNL     1      30.730  38.397  48.961  1.00  0.00    -0.169 F 
HETATM   30  F   UNL     1      28.789  37.548  49.464  1.00  0.00    -0.169 F 
ENDBRANCH   8  27
BRANCH   6  31
HETATM   31  C   UNL     1      26.320  37.494  47.330  1.00  0.00     0.075 A 
HETATM   32  O   UNL     1      26.598  36.845  46.161  1.00  0.00    -0.325 OA
HETATM   33  C   UNL     1      26.434  35.517  46.393  1.00  0.00     0.142 A 
HETATM   34  C   UNL     1      26.050  35.299  47.694  1.00  0.00     0.027 A 
HETATM   35  C   UNL     1      25.967  36.576  48.299  1.00  0.00     0.037 A 
ENDBRANCH   6  31
TORSDOF 5
ENDMDL
MODEL 4
REMARK VINA RESULT:      -8.7     13.037     16.015
REMARK  5 active torsions:
REMARK  status: ('A' for Active; 'I' for Inactive)
REMARK    1  A    between atoms: C_3  and  N_4 
REMARK       I    between atoms: N_4  and  C_5 
REMARK    2  A    between atoms: C_9  and  N_10 
REMARK       I    between atoms: N_10  and  C_11 
REMARK    3  A    between atoms: C_11  and  C_12 
REMARK    4  A    between atoms: C_17  and  C_18 
REMARK    5  A    between atoms: C_24  and  C_25 
ROOT
HETATM    1  C   UNL     1      35.239  51.274  42.571  1.00  0.00     0.148 A 
HETATM    2  N   UNL     1      34.061  51.508  43.196  1.00  0.00    -0.165 NA
HETATM    3  N   UNL     1      33.205  50.671  42.577  1.00  0.00    -0.240 N 
HETATM    4  C   UNL     1      33.791  49.890  41.620  1.00  0.00     0.123 A 
HETATM    5  N   UNL     1      33.093  48.959  40.936  1.00  0.00    -0.364 N 
HETATM    6  C   UNL     1      31.635  48.877  41.021  1.00  0.00     0.143 C 
HETATM    7  C   UNL     1      31.170  49.292  42.428  1.00  0.00     0.068 C 
HETATM    8  C   UNL     1      31.805  50.595  42.951  1.00  0.00     0.221 C 
HETATM    9  C   UNL     1      35.108  50.261  41.584  1.00  0.00     0.089 A 
HETATM   10  H   UNL     1      33.500  48.505  40.119  1.00  0.00     0.162 HD
ENDROOT
BRANCH   1  11
HETATM   11  C   UNL     1      36.469  52.010  42.915  1.00  0.00     0.276 C 
HETATM   12  N   UNL     1      36.478  52.411  44.237  1.00  0.00    -0.322 N 
HETATM   13  H   UNL     1      35.640  52.138  44.749  1.00  0.00     0.169 HD
HETATM   14  O   UNL     1      37.340  52.223  42.079  1.00  0.00    -0.266 OA
BRANCH  12  15
HETATM   15  C   UNL     1      37.458  53.154  44.919  1.00  0.00     0.037 A 
HETATM   16  C   UNL     1      37.530  54.548  44.904  1.00  0.00     0.059 A 
HETATM   17  C   UNL     1      38.518  55.254  45.623  1.00  0.00     0.042 A 
HETATM   18  C   UNL     1      39.502  54.530  46.315  1.00  0.00    -0.035 A 
HETATM   19  C   UNL     1      40.692  55.137  47.005  1.00  0.00     0.050 C 
HETATM   20  C   UNL     1      39.409  53.125  46.345  1.00  0.00     0.011 A 
HETATM   21  C   UNL     1      38.402  52.446  45.656  1.00  0.00     0.030 A 
BRANCH  17  22
HETATM   22  N   UNL     1      38.425  56.663  45.517  1.00  0.00    -0.327 N 
HETATM   23  C   UNL     1      39.053  57.497  44.613  1.00  0.00     0.218 C 
HETATM   24  C   UNL     1      38.629  58.938  44.772  1.00  0.00     0.117 C 
HETATM   25  O   UNL     1      39.873  57.184  43.760  1.00  0.00    -0.274 OA
HETATM   26  H   UNL     1      38.055  57.126  46.338  1.00  0.00     0.169 HD
ENDBRANCH  17  22
ENDBRANCH  12  15
ENDBRANCH   1  11
BRANCH   8  27
HETATM   27  C   UNL     1      31.082  51.850  42.513  1.00  0.00     0.409 C 
HETATM   28  F   UNL     1      30.991  52.754  43.518  1.00  0.00    -0.169 F 
HETATM   29  F   UNL     1      31.655  52.472  41.467  1.00  0.00    -0.169 F 
HETATM   30  F   UNL     1      29.804  51.557  42.158  1.00  0.00    -0.169 F 
ENDBRANCH   8  27
BRANCH   6  31
HETATM   31  C   UNL     1      30.899  49.578  39.925  1.00  0.00     0.075 A 
HETATM   32  O   UNL     1      29.549  49.377  39.880  1.00  0.00    -0.325 OA
HETATM   33  C   UNL     1      29.078  50.071  38.812  1.00  0.00     0.142 A 
HETATM   34  C   UNL     1      30.104  50.714  38.165  1.00  0.00     0.027 A 
HETATM   35  C   UNL     1      31.284  50.390  38.877  1.00  0.00     0.037 A 
ENDBRANCH   6  31
TORSDOF 5
ENDMDL
MODEL 5
REMARK VINA RESULT:      -8.6     12.174     15.304
REMARK  5 active torsions:
REMARK  status: ('A' for Active; 'I' for Inactive)
REMARK    1  A    between atoms: C_3  and  N_4 
REMARK       I    between atoms: N_4  and  C_5 
REMARK    2  A    between atoms: C_9  and  N_10 
REMARK       I    between atoms: N_10  and  C_11 
REMARK    3  A    between atoms: C_11  and  C_12 
REMARK    4  A    between atoms: C_17  and  C_18 
REMARK    5  A    between atoms: C_24  and  C_25 
ROOT
HETATM    1  C   UNL     1      34.554  50.979  41.411  1.00  0.00     0.148 A 
HETATM    2  N   UNL     1      33.867  49.852  41.711  1.00  0.00    -0.165 NA
HETATM    3  N   UNL     1      32.770  49.933  40.933  1.00  0.00    -0.240 N 
HETATM    4  C   UNL     1      32.748  51.036  40.124  1.00  0.00     0.123 A 
HETATM    5  N   UNL     1      31.749  51.251  39.243  1.00  0.00    -0.364 N 
HETATM    6  C   UNL     1      30.532  50.441  39.248  1.00  0.00     0.143 C 
HETATM    7  C   UNL     1      30.865  49.002  39.681  1.00  0.00     0.068 C 
HETATM    8  C   UNL     1      31.749  48.903  40.940  1.00  0.00     0.221 C 
HETATM    9  C   UNL     1      33.885  51.740  40.415  1.00  0.00     0.089 A 
HETATM   10  H   UNL     1      31.662  52.151  38.771  1.00  0.00     0.162 HD
ENDROOT
BRANCH   1  11
HETATM   11  C   UNL     1      35.828  51.320  42.068  1.00  0.00     0.276 C 
HETATM   12  N   UNL     1      35.923  52.671  42.341  1.00  0.00    -0.322 N 
HETATM   13  H   UNL     1      35.107  53.203  42.044  1.00  0.00     0.169 HD
HETATM   14  O   UNL     1      36.673  50.463  42.304  1.00  0.00    -0.266 OA
BRANCH  12  15
HETATM   15  C   UNL     1      36.991  53.371  42.930  1.00  0.00     0.037 A 
HETATM   16  C   UNL     1      37.143  53.547  44.307  1.00  0.00     0.059 A 
HETATM   17  C   UNL     1      38.245  54.237  44.856  1.00  0.00     0.042 A 
HETATM   18  C   UNL     1      39.177  54.829  43.988  1.00  0.00    -0.035 A 
HETATM   19  C   UNL     1      40.317  55.709  44.420  1.00  0.00     0.050 C 
HETATM   20  C   UNL     1      39.029  54.627  42.602  1.00  0.00     0.011 A 
HETATM   21  C   UNL     1      37.952  53.910  42.080  1.00  0.00     0.030 A 
BRANCH  17  22
HETATM   22  N   UNL     1      38.253  54.296  46.270  1.00  0.00    -0.327 N 
HETATM   23  C   UNL     1      38.753  53.370  47.164  1.00  0.00     0.218 C 
HETATM   24  C   UNL     1      38.648  53.838  48.596  1.00  0.00     0.117 C 
HETATM   25  O   UNL     1      39.232  52.273  46.906  1.00  0.00    -0.274 OA
HETATM   26  H   UNL     1      37.610  54.970  46.669  1.00  0.00     0.169 HD
ENDBRANCH  17  22
ENDBRANCH  12  15
ENDBRANCH   1  11
BRANCH   8  27
HETATM   27  C   UNL     1      30.976  48.947  42.239  1.00  0.00     0.409 C 
HETATM   28  F   UNL     1      31.574  48.208  43.205  1.00  0.00    -0.169 F 
HETATM   29  F   UNL     1      30.808  50.188  42.731  1.00  0.00    -0.169 F 
HETATM   30  F   UNL     1      29.740  48.409  42.070  1.00  0.00    -0.169 F 
ENDBRANCH   8  27
BRANCH   6  31
HETATM   31  C   UNL     1      29.384  51.033  40.001  1.00  0.00     0.075 A 
HETATM   32  O   UNL     1      29.620  52.225  40.623  1.00  0.00    -0.325 OA
HETATM   33  C   UNL     1      28.475  52.574  41.264  1.00  0.00     0.142 A 
HETATM   34  C   UNL     1      27.503  51.623  41.067  1.00  0.00     0.027 A 
HETATM   35  C   UNL     1      28.091  50.621  40.259  1.00  0.00     0.037 A 
ENDBRANCH   6  31
TORSDOF 5
ENDMDL
MODEL 6
REMARK VINA RESULT:      -8.4     11.717     14.401
REMARK  5 active torsions:
REMARK  status: ('A' for Active; 'I' for Inactive)
REMARK    1  A    between atoms: C_3  and  N_4 
REMARK       I    between atoms: N_4  and  C_5 
REMARK    2  A    between atoms: C_9  and  N_10 
REMARK       I    between atoms: N_10  and  C_11 
REMARK    3  A    between atoms: C_11  and  C_12 
REMARK    4  A    between atoms: C_17  and  C_18 
REMARK    5  A    between atoms: C_24  and  C_25 
ROOT
HETATM    1  C   UNL     1      32.849  50.533  42.066  1.00  0.00     0.148 A 
HETATM    2  N   UNL     1      32.076  51.522  41.561  1.00  0.00    -0.165 NA
HETATM    3  N   UNL     1      30.839  50.988  41.563  1.00  0.00    -0.240 N 
HETATM    4  C   UNL     1      30.784  49.724  42.083  1.00  0.00     0.123 A 
HETATM    5  N   UNL     1      29.618  49.057  42.209  1.00  0.00    -0.364 N 
HETATM    6  C   UNL     1      28.381  49.551  41.605  1.00  0.00     0.143 C 
HETATM    7  C   UNL     1      28.379  51.090  41.607  1.00  0.00     0.068 C 
HETATM    8  C   UNL     1      29.684  51.731  41.095  1.00  0.00     0.221 C 
HETATM    9  C   UNL     1      32.072  49.395  42.411  1.00  0.00     0.089 A 
HETATM   10  H   UNL     1      29.614  48.064  42.441  1.00  0.00     0.162 HD
ENDROOT
BRANCH   1  11
HETATM   11  C   UNL     1      34.308  50.677  42.216  1.00  0.00     0.276 C 
HETATM   12  N   UNL     1      34.651  51.877  42.807  1.00  0.00    -0.322 N 
HETATM   13  H   UNL     1      33.848  52.460  43.036  1.00  0.00     0.169 HD
HETATM   14  O   UNL     1      35.078  49.805  41.827  1.00  0.00    -0.266 OA
BRANCH  12  15
HETATM   15  C   UNL     1      35.934  52.380  43.086  1.00  0.00     0.037 A 
HETATM   16  C   UNL     1      36.448  52.533  44.375  1.00  0.00     0.059 A 
HETATM   17  C   UNL     1      37.752  53.020  44.608  1.00  0.00     0.042 A 
HETATM   18  C   UNL     1      38.530  53.432  43.514  1.00  0.00    -0.035 A 
HETATM   19  C   UNL     1      39.873  54.098  43.614  1.00  0.00     0.050 C 
HETATM   20  C   UNL     1      38.013  53.252  42.216  1.00  0.00     0.011 A 
HETATM   21  C   UNL     1      36.734  52.735  42.004  1.00  0.00     0.030 A 
BRANCH  17  22
HETATM   22  N   UNL     1      38.117  53.084  45.974  1.00  0.00    -0.327 N 
HETATM   23  C   UNL     1      38.113  54.183  46.812  1.00  0.00     0.218 C 
HETATM   24  C   UNL     1      38.493  53.825  48.229  1.00  0.00     0.117 C 
HETATM   25  O   UNL     1      37.853  55.342  46.515  1.00  0.00    -0.274 OA
HETATM   26  H   UNL     1      38.668  52.300  46.303  1.00  0.00     0.169 HD
ENDBRANCH  17  22
ENDBRANCH  12  15
ENDBRANCH   1  11
BRANCH   8  27
HETATM   27  C   UNL     1      29.742  51.889  39.592  1.00  0.00     0.409 C 
HETATM   28  F   UNL     1      30.460  52.980  39.229  1.00  0.00    -0.169 F 
HETATM   29  F   UNL     1      30.273  50.831  38.953  1.00  0.00    -0.169 F 
HETATM   30  F   UNL     1      28.494  52.080  39.090  1.00  0.00    -0.169 F 
ENDBRANCH   8  27
BRANCH   6  31
HETATM   31  C   UNL     1      28.050  48.962  40.272  1.00  0.00     0.075 A 
HETATM   32  O   UNL     1      28.955  48.076  39.762  1.00  0.00    -0.325 OA
HETATM   33  C   UNL     1      28.488  47.682  38.550  1.00  0.00     0.142 A 
HETATM   34  C   UNL     1      27.295  48.303  38.268  1.00  0.00     0.027 A 
HETATM   35  C   UNL     1      27.015  49.138  39.375  1.00  0.00     0.037 A 
ENDBRANCH   6  31
TORSDOF 5
ENDMDL
MODEL 7
REMARK VINA RESULT:      -8.3      2.535      3.294
REMARK  5 active torsions:
REMARK  status: ('A' for Active; 'I' for Inactive)
REMARK    1  A    between atoms: C_3  and  N_4 
REMARK       I    between atoms: N_4  and  C_5 
REMARK    2  A    between atoms: C_9  and  N_10 
REMARK       I    between atoms: N_10  and  C_11 
REMARK    3  A    between atoms: C_11  and  C_12 
REMARK    4  A    between atoms: C_17  and  C_18 
REMARK    5  A    between atoms: C_24  and  C_25 
ROOT
HETATM    1  C   UNL     1      21.506  48.489  48.743  1.00  0.00     0.148 A 
HETATM    2  N   UNL     1      20.799  49.340  49.524  1.00  0.00    -0.165 NA
HETATM    3  N   UNL     1      19.608  49.425  48.900  1.00  0.00    -0.240 N 
HETATM    4  C   UNL     1      19.510  48.638  47.785  1.00  0.00     0.123 A 
HETATM    5  N   UNL     1      18.371  48.561  47.067  1.00  0.00    -0.364 N 
HETATM    6  C   UNL     1      17.249  49.469  47.305  1.00  0.00     0.143 C 
HETATM    7  C   UNL     1      17.181  49.832  48.799  1.00  0.00     0.068 C 
HETATM    8  C   UNL     1      18.531  50.248  49.417  1.00  0.00     0.221 C 
HETATM    9  C   UNL     1      20.726  48.024  47.650  1.00  0.00     0.089 A 
HETATM   10  H   UNL     1      18.366  48.105  46.155  1.00  0.00     0.162 HD
ENDROOT
BRANCH   1  11
HETATM   11  C   UNL     1      22.903  48.128  49.041  1.00  0.00     0.276 C 
HETATM   12  N   UNL     1      23.020  46.815  49.455  1.00  0.00    -0.322 N 
HETATM   13  H   UNL     1      22.131  46.321  49.490  1.00  0.00     0.169 HD
HETATM   14  O   UNL     1      23.810  48.946  48.930  1.00  0.00    -0.266 OA
BRANCH  12  15
HETATM   15  C   UNL     1      24.179  46.124  49.852  1.00  0.00     0.037 A 
HETATM   16  C   UNL     1      24.665  44.985  49.207  1.00  0.00     0.059 A 
HETATM   17  C   UNL     1      25.846  44.336  49.625  1.00  0.00     0.042 A 
HETATM   18  C   UNL     1      26.512  44.805  50.768  1.00  0.00    -0.035 A 
HETATM   19  C   UNL     1      27.694  44.136  51.412  1.00  0.00     0.050 C 
HETATM   20  C   UNL     1      26.028  45.968  51.399  1.00  0.00     0.011 A 
HETATM   21  C   UNL     1      24.877  46.618  50.949  1.00  0.00     0.030 A 
BRANCH  17  22
HETATM   22  N   UNL     1      26.207  43.214  48.840  1.00  0.00    -0.327 N 
HETATM   23  C   UNL     1      25.961  41.878  49.090  1.00  0.00     0.218 C 
HETATM   24  C   UNL     1      26.434  40.987  47.966  1.00  0.00     0.117 C 
HETATM   25  O   UNL     1      25.436  41.393  50.084  1.00  0.00    -0.274 OA
HETATM   26  H   UNL     1      26.929  43.393  48.152  1.00  0.00     0.169 HD
ENDBRANCH  17  22
ENDBRANCH  12  15
ENDBRANCH   1  11
BRANCH   8  27
HETATM   27  C   UNL     1      18.863  51.713  49.238  1.00  0.00     0.409 C 
HETATM   28  F   UNL     1      19.487  52.223  50.327  1.00  0.00    -0.169 F 
HETATM   29  F   UNL     1      19.646  51.967  48.173  1.00  0.00    -0.169 F 
HETATM   30  F   UNL     1      17.725  52.438  49.085  1.00  0.00    -0.169 F 
ENDBRANCH   8  27
BRANCH   6  31
HETATM   31  C   UNL     1      17.200  50.661  46.405  1.00  0.00     0.075 A 
HETATM   32  O   UNL     1      16.127  51.491  46.561  1.00  0.00    -0.325 OA
HETATM   33  C   UNL     1      16.256  52.485  45.645  1.00  0.00     0.142 A 
HETATM   34  C   UNL     1      17.395  52.307  44.897  1.00  0.00     0.027 A 
HETATM   35  C   UNL     1      18.002  51.124  45.381  1.00  0.00     0.037 A 
ENDBRANCH   6  31
TORSDOF 5
ENDMDL
MODEL 8
REMARK VINA RESULT:      -7.9     10.092     14.199
REMARK  5 active torsions:
REMARK  status: ('A' for Active; 'I' for Inactive)
REMARK    1  A    between atoms: C_3  and  N_4 
REMARK       I    between atoms: N_4  and  C_5 
REMARK    2  A    between atoms: C_9  and  N_10 
REMARK       I    between atoms: N_10  and  C_11 
REMARK    3  A    between atoms: C_11  and  C_12 
REMARK    4  A    between atoms: C_17  and  C_18 
REMARK    5  A    between atoms: C_24  and  C_25 
ROOT
HETATM    1  C   UNL     1      28.102  49.760  38.364  1.00  0.00     0.148 A 
HETATM    2  N   UNL     1      28.496  51.055  38.378  1.00  0.00    -0.165 NA
HETATM    3  N   UNL     1      29.766  50.994  38.823  1.00  0.00    -0.240 N 
HETATM    4  C   UNL     1      30.210  49.720  39.053  1.00  0.00     0.123 A 
HETATM    5  N   UNL     1      31.474  49.469  39.453  1.00  0.00    -0.364 N 
HETATM    6  C   UNL     1      32.375  50.543  39.871  1.00  0.00     0.143 C 
HETATM    7  C   UNL     1      32.074  51.819  39.066  1.00  0.00     0.068 C 
HETATM    8  C   UNL     1      30.578  52.185  38.986  1.00  0.00     0.221 C 
HETATM    9  C   UNL     1      29.153  48.896  38.773  1.00  0.00     0.089 A 
HETATM   10  H   UNL     1      31.738  48.539  39.777  1.00  0.00     0.162 HD
ENDROOT
BRANCH   1  11
HETATM   11  C   UNL     1      26.742  49.359  37.965  1.00  0.00     0.276 C 
HETATM   12  N   UNL     1      25.976  48.976  39.050  1.00  0.00    -0.322 N 
HETATM   13  H   UNL     1      26.475  49.031  39.937  1.00  0.00     0.169 HD
HETATM   14  O   UNL     1      26.392  49.368  36.789  1.00  0.00    -0.266 OA
BRANCH  12  15
HETATM   15  C   UNL     1      24.651  48.506  39.064  1.00  0.00     0.037 A 
HETATM   16  C   UNL     1      23.584  49.200  39.639  1.00  0.00     0.059 A 
HETATM   17  C   UNL     1      22.265  48.702  39.609  1.00  0.00     0.042 A 
HETATM   18  C   UNL     1      22.029  47.436  39.049  1.00  0.00    -0.035 A 
HETATM   19  C   UNL     1      20.709  46.716  39.072  1.00  0.00     0.050 C 
HETATM   20  C   UNL     1      23.106  46.753  38.451  1.00  0.00     0.011 A 
HETATM   21  C   UNL     1      24.399  47.280  38.459  1.00  0.00     0.030 A 
BRANCH  17  22
HETATM   22  N   UNL     1      21.305  49.548  40.215  1.00  0.00    -0.327 N 
HETATM   23  C   UNL     1      20.698  50.671  39.687  1.00  0.00     0.218 C 
HETATM   24  C   UNL     1      19.662  51.254  40.619  1.00  0.00     0.117 C 
HETATM   25  O   UNL     1      20.924  51.198  38.606  1.00  0.00    -0.274 OA
HETATM   26  H   UNL     1      21.240  49.462  41.222  1.00  0.00     0.169 HD
ENDBRANCH  17  22
ENDBRANCH  12  15
ENDBRANCH   1  11
BRANCH   8  27
HETATM   27  C   UNL     1      30.081  52.997  40.161  1.00  0.00     0.409 C 
HETATM   28  F   UNL     1      29.197  53.949  39.776  1.00  0.00    -0.169 F 
HETATM   29  F   UNL     1      29.483  52.261  41.117  1.00  0.00    -0.169 F 
HETATM   30  F   UNL     1      31.111  53.659  40.746  1.00  0.00    -0.169 F 
ENDBRANCH   8  27
BRANCH   6  31
HETATM   31  C   UNL     1      32.438  50.776  41.346  1.00  0.00     0.075 A 
HETATM   32  O   UNL     1      33.369  51.677  41.776  1.00  0.00    -0.325 OA
HETATM   33  C   UNL     1      33.282  51.724  43.130  1.00  0.00     0.142 A 
HETATM   34  C   UNL     1      32.311  50.864  43.581  1.00  0.00     0.027 A 
HETATM   35  C   UNL     1      31.770  50.243  42.430  1.00  0.00     0.037 A 
ENDBRANCH   6  31
TORSDOF 5
ENDMDL
MODEL 9
REMARK VINA RESULT:      -7.9     10.100     14.266
REMARK  5 active torsions:
REMARK  status: ('A' for Active; 'I' for Inactive)
REMARK    1  A    between atoms: C_3  and  N_4 
REMARK       I    between atoms: N_4  and  C_5 
REMARK    2  A    between atoms: C_9  and  N_10 
REMARK       I    between atoms: N_10  and  C_11 
REMARK    3  A    between atoms: C_11  and  C_12 
REMARK    4  A    between atoms: C_17  and  C_18 
REMARK    5  A    between atoms: C_24  and  C_25 
ROOT
HETATM    1  C   UNL     1      27.449  50.816  39.145  1.00  0.00     0.148 A 
HETATM    2  N   UNL     1      27.883  50.456  40.375  1.00  0.00    -0.165 NA
HETATM    3  N   UNL     1      28.919  51.289  40.601  1.00  0.00    -0.240 N 
HETATM    4  C   UNL     1      29.136  52.186  39.592  1.00  0.00     0.123 A 
HETATM    5  N   UNL     1      30.099  53.127  39.673  1.00  0.00    -0.364 N 
HETATM    6  C   UNL     1      31.102  53.111  40.737  1.00  0.00     0.143 C 
HETATM    7  C   UNL     1      30.484  52.546  42.028  1.00  0.00     0.068 C 
HETATM    8  C   UNL     1      29.682  51.244  41.834  1.00  0.00     0.221 C 
HETATM    9  C   UNL     1      28.206  51.902  38.628  1.00  0.00     0.089 A 
HETATM   10  H   UNL     1      30.356  53.675  38.852  1.00  0.00     0.162 HD
ENDROOT
BRANCH   1  11
HETATM   11  C   UNL     1      26.328  50.132  38.478  1.00  0.00     0.276 C 
HETATM   12  N   UNL     1      25.243  49.976  39.319  1.00  0.00    -0.322 N 
HETATM   13  H   UNL     1      25.397  50.353  40.252  1.00  0.00     0.169 HD
HETATM   14  O   UNL     1      26.413  49.754  37.314  1.00  0.00    -0.266 OA
BRANCH  12  15
HETATM   15  C   UNL     1      24.012  49.350  39.052  1.00  0.00     0.037 A 
HETATM   16  C   UNL     1      22.865  50.032  38.640  1.00  0.00     0.059 A 
HETATM   17  C   UNL     1      21.656  49.360  38.360  1.00  0.00     0.042 A 
HETATM   18  C   UNL     1      21.583  47.974  38.573  1.00  0.00    -0.035 A 
HETATM   19  C   UNL     1      20.332  47.149  38.455  1.00  0.00     0.050 C 
HETATM   20  C   UNL     1      22.751  47.291  38.966  1.00  0.00     0.011 A 
HETATM   21  C   UNL     1      23.948  47.969  39.204  1.00  0.00     0.030 A 
BRANCH  17  22
HETATM   22  N   UNL     1      20.604  50.203  37.927  1.00  0.00    -0.327 N 
HETATM   23  C   UNL     1      19.659  50.856  38.694  1.00  0.00     0.218 C 
HETATM   24  C   UNL     1      18.752  51.733  37.863  1.00  0.00     0.117 C 
HETATM   25  O   UNL     1      19.504  50.779  39.906  1.00  0.00    -0.274 OA
HETATM   26  H   UNL     1      20.374  50.123  36.944  1.00  0.00     0.169 HD
ENDBRANCH  17  22
ENDBRANCH  12  15
ENDBRANCH   1  11
BRANCH   8  27
HETATM   27  C   UNL     1      30.526  49.990  41.877  1.00  0.00     0.409 C 
HETATM   28  F   UNL     1      31.614  50.144  42.670  1.00  0.00    -0.169 F 
HETATM   29  F   UNL     1      29.865  48.902  42.315  1.00  0.00    -0.169 F 
HETATM   30  F   UNL     1      31.005  49.701  40.640  1.00  0.00    -0.169 F 
ENDBRANCH   8  27
BRANCH   6  31
HETATM   31  C   UNL     1      32.399  52.463  40.371  1.00  0.00     0.075 A 
HETATM   32  O   UNL     1      33.275  52.246  41.396  1.00  0.00    -0.325 OA
HETATM   33  C   UNL     1      34.386  51.681  40.858  1.00  0.00     0.142 A 
HETATM   34  C   UNL     1      34.242  51.533  39.499  1.00  0.00     0.027 A 
HETATM   35  C   UNL     1      32.962  52.046  39.182  1.00  0.00     0.037 A 
ENDBRANCH   6  31
TORSDOF 5
ENDMDL
MODEL 10
REMARK VINA RESULT:      -7.8     10.016     14.366
REMARK  5 active torsions:
REMARK  status: ('A' for Active; 'I' for Inactive)
REMARK    1  A    between atoms: C_3  and  N_4 
REMARK       I    between atoms: N_4  and  C_5 
REMARK    2  A    between atoms: C_9  and  N_10 
REMARK       I    between atoms: N_10  and  C_11 
REMARK    3  A    between atoms: C_11  and  C_12 
REMARK    4  A    between atoms: C_17  and  C_18 
REMARK    5  A    between atoms: C_24  and  C_25 
ROOT
HETATM    1  C   UNL     1      27.688  50.086  39.682  1.00  0.00     0.148 A 
HETATM    2  N   UNL     1      28.318  48.931  39.998  1.00  0.00    -0.165 NA
HETATM    3  N   UNL     1      29.322  49.328  40.804  1.00  0.00    -0.240 N 
HETATM    4  C   UNL     1      29.335  50.674  41.047  1.00  0.00     0.123 A 
HETATM    5  N   UNL     1      30.240  51.238  41.873  1.00  0.00    -0.364 N 
HETATM    6  C   UNL     1      31.387  50.488  42.385  1.00  0.00     0.143 C 
HETATM    7  C   UNL     1      30.998  49.012  42.581  1.00  0.00     0.068 C 
HETATM    8  C   UNL     1      30.258  48.383  41.384  1.00  0.00     0.221 C 
HETATM    9  C   UNL     1      28.294  51.197  40.328  1.00  0.00     0.089 A 
HETATM   10  H   UNL     1      30.341  52.252  41.914  1.00  0.00     0.162 HD
ENDROOT
BRANCH   1  11
HETATM   11  C   UNL     1      26.526  50.125  38.777  1.00  0.00     0.276 C 
HETATM   12  N   UNL     1      25.349  49.822  39.434  1.00  0.00    -0.322 N 
HETATM   13  H   UNL     1      25.479  49.620  40.424  1.00  0.00     0.169 HD
HETATM   14  O   UNL     1      26.654  50.386  37.586  1.00  0.00    -0.266 OA
BRANCH  12  15
HETATM   15  C   UNL     1      24.050  49.730  38.904  1.00  0.00     0.037 A 
HETATM   16  C   UNL     1      22.952  50.431  39.407  1.00  0.00     0.059 A 
HETATM   17  C   UNL     1      21.670  50.327  38.828  1.00  0.00     0.042 A 
HETATM   18  C   UNL     1      21.475  49.435  37.761  1.00  0.00    -0.035 A 
HETATM   19  C   UNL     1      20.145  49.114  37.138  1.00  0.00     0.050 C 
HETATM   20  C   UNL     1      22.592  48.749  37.245  1.00  0.00     0.011 A 
HETATM   21  C   UNL     1      23.861  48.893  37.809  1.00  0.00     0.030 A 
BRANCH  17  22
HETATM   22  N   UNL     1      20.681  51.129  39.448  1.00  0.00    -0.327 N 
HETATM   23  C   UNL     1      19.888  50.823  40.536  1.00  0.00     0.218 C 
HETATM   24  C   UNL     1      19.009  51.980  40.950  1.00  0.00     0.117 C 
HETATM   25  O   UNL     1      19.838  49.761  41.143  1.00  0.00    -0.274 OA
HETATM   26  H   UNL     1      20.353  51.906  38.887  1.00  0.00     0.169 HD
ENDBRANCH  17  22
ENDBRANCH  12  15
ENDBRANCH   1  11
BRANCH   8  27
HETATM   27  C   UNL     1      31.175  47.836  40.313  1.00  0.00     0.409 C 
HETATM   28  F   UNL     1      31.345  48.718  39.298  1.00  0.00    -0.169 F 
HETATM   29  F   UNL     1      32.399  47.503  40.762  1.00  0.00    -0.169 F 
HETATM   30  F   UNL     1      30.634  46.723  39.752  1.00  0.00    -0.169 F 
ENDBRANCH   8  27
BRANCH   6  31
HETATM   31  C   UNL     1      32.654  50.667  41.613  1.00  0.00     0.075 A 
HETATM   32  O   UNL     1      33.755  50.024  42.102  1.00  0.00    -0.325 OA
HETATM   33  C   UNL     1      34.793  50.332  41.282  1.00  0.00     0.142 A 
HETATM   34  C   UNL     1      34.379  51.166  40.272  1.00  0.00     0.027 A 
HETATM   35  C   UNL     1      32.999  51.392  40.489  1.00  0.00     0.037 A 
ENDBRANCH   6  31
TORSDOF 5
ENDMDL
