MODEL 1
REMARK VINA RESULT:     -11.1      0.000      0.000
REMARK  4 active torsions:
REMARK  status: ('A' for Active; 'I' for Inactive)
REMARK    1  A    between atoms: C_4  and  C_5 
REMARK    2  A    between atoms: C_5  and  N_6 
REMARK    3  A    between atoms: C_9  and  C_10 
REMARK    4  A    between atoms: C_22  and  C_23 
ROOT
HETATM    1  N   UNL     1      25.947  45.800  50.886  1.00  0.00    -0.314 N 
HETATM    2  N   UNL     1      26.413  45.867  52.186  1.00  0.00    -0.203 NA
HETATM    3  C   UNL     1      27.212  44.749  52.428  1.00  0.00     0.041 C 
HETATM    4  C   UNL     1      28.013  44.460  53.464  1.00  0.00     0.044 C 
HETATM    5  C   UNL     1      27.039  43.876  51.240  1.00  0.00     0.015 C 
HETATM    6  C   UNL     1      26.270  44.562  50.367  1.00  0.00     0.119 C 
HETATM    7  H   UNL     1      26.804  46.771  52.471  1.00  0.00     0.153 HD
ENDROOT
BRANCH   4   8
HETATM    8  C   UNL     1      28.215  45.225  54.668  1.00  0.00     0.046 A 
HETATM    9  C   UNL     1      27.454  46.417  55.095  1.00  0.00     0.257 A 
HETATM   10  O   UNL     1      26.595  47.096  54.590  1.00  0.00    -0.267 OA
HETATM   11  N   UNL     1      27.998  46.855  56.443  1.00  0.00    -0.322 N 
HETATM   12  C   UNL     1      28.955  46.050  56.693  1.00  0.00     0.046 A 
HETATM   13  H   UNL     1      27.649  47.648  56.966  1.00  0.00     0.169 HD
HETATM   14  C   UNL     1      29.141  45.029  55.627  1.00  0.00     0.008 A 
HETATM   15  C   UNL     1      29.844  46.037  57.863  1.00  0.00     0.032 A 
HETATM   16  C   UNL     1      30.188  44.054  55.773  1.00  0.00     0.038 A 
HETATM   17  C   UNL     1      30.977  44.094  56.861  1.00  0.00     0.035 A 
HETATM   18  C   UNL     1      30.797  45.090  57.905  1.00  0.00     0.026 A 
HETATM   19 CL   UNL     1      32.250  42.948  57.056  1.00  0.00    -0.084 Cl
ENDBRANCH   4   8
BRANCH   5  20
HETATM   20  C   UNL     1      27.508  42.514  50.998  1.00  0.00    -0.005 A 
HETATM   21  C   UNL     1      27.279  41.883  49.778  1.00  0.00     0.128 A 
HETATM   22  N   UNL     1      27.654  40.615  49.491  1.00  0.00    -0.272 NA
HETATM   23  C   UNL     1      28.329  39.952  50.455  1.00  0.00     0.116 A 
HETATM   24  C   UNL     1      28.627  40.493  51.695  1.00  0.00     0.020 A 
HETATM   25  C   UNL     1      28.204  41.792  51.970  1.00  0.00     0.015 A 
ENDBRANCH   5  20
BRANCH   1  26
HETATM   26  C   UNL     1      24.890  46.686  50.406  1.00  0.00     0.181 C 
BRANCH  26  27
HETATM   27  C   UNL     1      25.472  47.855  49.642  1.00  0.00    -0.039 A 
HETATM   28  C   UNL     1      24.628  48.778  49.001  1.00  0.00     0.009 A 
HETATM   29  C   UNL     1      25.158  49.881  48.331  1.00  0.00     0.001 A 
HETATM   30  C   UNL     1      26.537  50.078  48.298  1.00  0.00     0.000 A 
HETATM   31  C   UNL     1      27.385  49.173  48.932  1.00  0.00     0.001 A 
HETATM   32  C   UNL     1      26.856  48.067  49.601  1.00  0.00     0.009 A 
ENDBRANCH  26  27
ENDBRANCH   1  26
TORSDOF 4
ENDMDL
MODEL 2
REMARK VINA RESULT:     -10.7      3.408      7.739
REMARK  4 active torsions:
REMARK  status: ('A' for Active; 'I' for Inactive)
REMARK    1  A    between atoms: C_4  and  C_5 
REMARK    2  A    between atoms: C_5  and  N_6 
REMARK    3  A    between atoms: C_9  and  C_10 
REMARK    4  A    between atoms: C_22  and  C_23 
ROOT
HETATM    1  N   UNL     1      26.303  46.913  53.908  1.00  0.00    -0.314 N 
HETATM    2  N   UNL     1      26.254  47.544  52.678  1.00  0.00    -0.203 NA
HETATM    3  C   UNL     1      26.117  46.572  51.687  1.00  0.00     0.041 C 
HETATM    4  C   UNL     1      25.856  46.694  50.377  1.00  0.00     0.044 C 
HETATM    5  C   UNL     1      26.291  45.271  52.382  1.00  0.00     0.015 C 
HETATM    6  C   UNL     1      26.403  45.552  53.699  1.00  0.00     0.119 C 
HETATM    7  H   UNL     1      25.617  48.345  52.615  1.00  0.00     0.153 HD
ENDROOT
BRANCH   4   8
HETATM    8  C   UNL     1      25.707  47.908  49.614  1.00  0.00     0.046 A 
HETATM    9  C   UNL     1      26.793  48.766  49.099  1.00  0.00     0.257 A 
HETATM   10  O   UNL     1      27.993  48.774  49.220  1.00  0.00    -0.267 OA
HETATM   11  N   UNL     1      26.155  49.906  48.325  1.00  0.00    -0.322 N 
HETATM   12  C   UNL     1      24.898  49.725  48.443  1.00  0.00     0.046 A 
HETATM   13  H   UNL     1      26.675  50.640  47.861  1.00  0.00     0.169 HD
HETATM   14  C   UNL     1      24.564  48.512  49.238  1.00  0.00     0.008 A 
HETATM   15  C   UNL     1      23.810  50.555  47.907  1.00  0.00     0.032 A 
HETATM   16  C   UNL     1      23.180  48.185  49.457  1.00  0.00     0.038 A 
HETATM   17  C   UNL     1      22.226  48.984  48.949  1.00  0.00     0.035 A 
HETATM   18  C   UNL     1      22.550  50.170  48.171  1.00  0.00     0.026 A 
HETATM   19 CL   UNL     1      20.560  48.625  49.207  1.00  0.00    -0.084 Cl
ENDBRANCH   4   8
BRANCH   5  20
HETATM   20  C   UNL     1      26.400  43.921  51.838  1.00  0.00    -0.005 A 
HETATM   21  C   UNL     1      27.611  43.233  51.863  1.00  0.00     0.128 A 
HETATM   22  N   UNL     1      27.796  41.994  51.351  1.00  0.00    -0.272 NA
HETATM   23  C   UNL     1      26.710  41.391  50.821  1.00  0.00     0.116 A 
HETATM   24  C   UNL     1      25.457  41.976  50.764  1.00  0.00     0.020 A 
HETATM   25  C   UNL     1      25.303  43.264  51.277  1.00  0.00     0.015 A 
ENDBRANCH   5  20
BRANCH   1  26
HETATM   26  C   UNL     1      26.691  47.629  55.119  1.00  0.00     0.181 C 
BRANCH  26  27
HETATM   27  C   UNL     1      27.821  46.916  55.830  1.00  0.00    -0.039 A 
HETATM   28  C   UNL     1      28.940  46.462  55.112  1.00  0.00     0.009 A 
HETATM   29  C   UNL     1      30.003  45.841  55.769  1.00  0.00     0.001 A 
HETATM   30  C   UNL     1      29.963  45.672  57.151  1.00  0.00     0.000 A 
HETATM   31  C   UNL     1      28.861  46.121  57.876  1.00  0.00     0.001 A 
HETATM   32  C   UNL     1      27.795  46.740  57.220  1.00  0.00     0.009 A 
ENDBRANCH  26  27
ENDBRANCH   1  26
TORSDOF 4
ENDMDL
MODEL 3
REMARK VINA RESULT:     -10.4      3.138      8.132
REMARK  4 active torsions:
REMARK  status: ('A' for Active; 'I' for Inactive)
REMARK    1  A    between atoms: C_4  and  C_5 
REMARK    2  A    between atoms: C_5  and  N_6 
REMARK    3  A    between atoms: C_9  and  C_10 
REMARK    4  A    between atoms: C_22  and  C_23 
ROOT
HETATM    1  N   UNL     1      26.102  45.022  52.577  1.00  0.00    -0.314 N 
HETATM    2  N   UNL     1      25.487  44.214  51.638  1.00  0.00    -0.203 NA
HETATM    3  C   UNL     1      25.387  44.924  50.441  1.00  0.00     0.041 C 
HETATM    4  C   UNL     1      25.030  44.517  49.214  1.00  0.00     0.044 C 
HETATM    5  C   UNL     1      25.804  46.312  50.768  1.00  0.00     0.015 C 
HETATM    6  C   UNL     1      26.210  46.296  52.056  1.00  0.00     0.119 C 
HETATM    7  H   UNL     1      25.853  43.259  51.566  1.00  0.00     0.153 HD
ENDROOT
BRANCH   4   8
HETATM    8  C   UNL     1      24.581  43.208  48.812  1.00  0.00     0.046 A 
HETATM    9  C   UNL     1      23.184  42.782  48.593  1.00  0.00     0.257 A 
HETATM   10  O   UNL     1      22.107  43.303  48.752  1.00  0.00    -0.267 OA
HETATM   11  N   UNL     1      23.206  41.333  48.142  1.00  0.00    -0.322 N 
HETATM   12  C   UNL     1      24.436  40.997  48.163  1.00  0.00     0.046 A 
HETATM   13  H   UNL     1      22.379  40.794  47.918  1.00  0.00     0.169 HD
HETATM   14  C   UNL     1      25.329  42.113  48.578  1.00  0.00     0.008 A 
HETATM   15  C   UNL     1      25.023  39.689  47.839  1.00  0.00     0.032 A 
HETATM   16  C   UNL     1      26.747  41.878  48.651  1.00  0.00     0.038 A 
HETATM   17  C   UNL     1      27.228  40.659  48.351  1.00  0.00     0.035 A 
HETATM   18  C   UNL     1      26.357  39.567  47.943  1.00  0.00     0.026 A 
HETATM   19 CL   UNL     1      28.920  40.344  48.442  1.00  0.00    -0.084 Cl
ENDBRANCH   4   8
BRANCH   5  20
HETATM   20  C   UNL     1      25.757  47.524  49.956  1.00  0.00    -0.005 A 
HETATM   21  C   UNL     1      24.542  48.092  49.585  1.00  0.00     0.128 A 
HETATM   22  N   UNL     1      24.419  49.195  48.810  1.00  0.00    -0.272 NA
HETATM   23  C   UNL     1      25.567  49.787  48.415  1.00  0.00     0.116 A 
HETATM   24  C   UNL     1      26.827  49.316  48.744  1.00  0.00     0.020 A 
HETATM   25  C   UNL     1      26.921  48.163  49.523  1.00  0.00     0.015 A 
ENDBRANCH   5  20
BRANCH   1  26
HETATM   26  C   UNL     1      26.130  44.664  53.992  1.00  0.00     0.181 C 
BRANCH  26  27
HETATM   27  C   UNL     1      27.535  44.314  54.432  1.00  0.00    -0.039 A 
HETATM   28  C   UNL     1      28.111  43.086  54.065  1.00  0.00     0.009 A 
HETATM   29  C   UNL     1      29.421  42.776  54.433  1.00  0.00     0.001 A 
HETATM   30  C   UNL     1      30.173  43.693  55.166  1.00  0.00     0.000 A 
HETATM   31  C   UNL     1      29.615  44.916  55.533  1.00  0.00     0.001 A 
HETATM   32  C   UNL     1      28.303  45.226  55.168  1.00  0.00     0.009 A 
ENDBRANCH  26  27
ENDBRANCH   1  26
TORSDOF 4
ENDMDL
MODEL 4
REMARK VINA RESULT:     -10.3      2.886      7.249
REMARK  4 active torsions:
REMARK  status: ('A' for Active; 'I' for Inactive)
REMARK    1  A    between atoms: C_4  and  C_5 
REMARK    2  A    between atoms: C_5  and  N_6 
REMARK    3  A    between atoms: C_9  and  C_10 
REMARK    4  A    between atoms: C_22  and  C_23 
ROOT
HETATM    1  N   UNL     1      28.041  41.569  51.189  1.00  0.00    -0.314 N 
HETATM    2  N   UNL     1      27.069  42.542  51.049  1.00  0.00    -0.203 NA
HETATM    3  C   UNL     1      27.372  43.598  51.909  1.00  0.00     0.041 C 
HETATM    4  C   UNL     1      26.836  44.824  52.007  1.00  0.00     0.044 C 
HETATM    5  C   UNL     1      28.500  43.114  52.746  1.00  0.00     0.015 C 
HETATM    6  C   UNL     1      28.840  41.899  52.266  1.00  0.00     0.119 C 
HETATM    7  H   UNL     1      26.834  42.799  50.085  1.00  0.00     0.153 HD
ENDROOT
BRANCH   4   8
HETATM    8  C   UNL     1      25.725  45.365  51.266  1.00  0.00     0.046 A 
HETATM    9  C   UNL     1      24.374  44.779  51.145  1.00  0.00     0.257 A 
HETATM   10  O   UNL     1      23.866  43.745  51.504  1.00  0.00    -0.267 OA
HETATM   11  N   UNL     1      23.534  45.721  50.301  1.00  0.00    -0.322 N 
HETATM   12  C   UNL     1      24.327  46.661  49.965  1.00  0.00     0.046 A 
HETATM   13  H   UNL     1      22.563  45.560  50.066  1.00  0.00     0.169 HD
HETATM   14  C   UNL     1      25.695  46.488  50.524  1.00  0.00     0.008 A 
HETATM   15  C   UNL     1      24.037  47.830  49.122  1.00  0.00     0.032 A 
HETATM   16  C   UNL     1      26.698  47.474  50.224  1.00  0.00     0.038 A 
HETATM   17  C   UNL     1      26.380  48.520  49.441  1.00  0.00     0.035 A 
HETATM   18  C   UNL     1      25.043  48.692  48.894  1.00  0.00     0.026 A 
HETATM   19 CL   UNL     1      27.565  49.709  49.052  1.00  0.00    -0.084 Cl
ENDBRANCH   4   8
BRANCH   5  20
HETATM   20  C   UNL     1      29.134  43.722  53.912  1.00  0.00    -0.005 A 
HETATM   21  C   UNL     1      28.615  44.879  54.489  1.00  0.00     0.128 A 
HETATM   22  N   UNL     1      29.164  45.516  55.549  1.00  0.00    -0.272 NA
HETATM   23  C   UNL     1      30.266  44.952  56.089  1.00  0.00     0.116 A 
HETATM   24  C   UNL     1      30.851  43.794  55.606  1.00  0.00     0.020 A 
HETATM   25  C   UNL     1      30.277  43.174  54.497  1.00  0.00     0.015 A 
ENDBRANCH   5  20
BRANCH   1  26
HETATM   26  C   UNL     1      27.877  40.237  50.614  1.00  0.00     0.181 C 
BRANCH  26  27
HETATM   27  C   UNL     1      27.484  40.325  49.155  1.00  0.00    -0.039 A 
HETATM   28  C   UNL     1      28.419  40.735  48.189  1.00  0.00     0.009 A 
HETATM   29  C   UNL     1      28.074  40.777  46.838  1.00  0.00     0.001 A 
HETATM   30  C   UNL     1      26.794  40.403  46.435  1.00  0.00     0.000 A 
HETATM   31  C   UNL     1      25.858  39.990  47.382  1.00  0.00     0.001 A 
HETATM   32  C   UNL     1      26.200  39.950  48.735  1.00  0.00     0.009 A 
ENDBRANCH  26  27
ENDBRANCH   1  26
TORSDOF 4
ENDMDL
MODEL 5
REMARK VINA RESULT:     -10.2      1.862      5.598
REMARK  4 active torsions:
REMARK  status: ('A' for Active; 'I' for Inactive)
REMARK    1  A    between atoms: C_4  and  C_5 
REMARK    2  A    between atoms: C_5  and  N_6 
REMARK    3  A    between atoms: C_9  and  C_10 
REMARK    4  A    between atoms: C_22  and  C_23 
ROOT
HETATM    1  N   UNL     1      24.567  44.081  51.171  1.00  0.00    -0.314 N 
HETATM    2  N   UNL     1      25.460  44.564  52.110  1.00  0.00    -0.203 NA
HETATM    3  C   UNL     1      25.590  45.942  51.929  1.00  0.00     0.041 C 
HETATM    4  C   UNL     1      26.195  46.867  52.689  1.00  0.00     0.044 C 
HETATM    5  C   UNL     1      24.862  46.245  50.671  1.00  0.00     0.015 C 
HETATM    6  C   UNL     1      24.284  45.091  50.273  1.00  0.00     0.119 C 
HETATM    7  H   UNL     1      25.307  44.248  53.073  1.00  0.00     0.153 HD
ENDROOT
BRANCH   4   8
HETATM    8  C   UNL     1      26.950  46.662  53.899  1.00  0.00     0.046 A 
HETATM    9  C   UNL     1      26.893  47.481  55.126  1.00  0.00     0.257 A 
HETATM   10  O   UNL     1      26.336  48.508  55.431  1.00  0.00    -0.267 OA
HETATM   11  N   UNL     1      27.832  46.859  56.144  1.00  0.00    -0.322 N 
HETATM   12  C   UNL     1      28.367  45.871  55.541  1.00  0.00     0.046 A 
HETATM   13  H   UNL     1      27.980  47.222  57.077  1.00  0.00     0.169 HD
HETATM   14  C   UNL     1      27.867  45.707  54.149  1.00  0.00     0.008 A 
HETATM   15  C   UNL     1      29.375  44.935  56.058  1.00  0.00     0.032 A 
HETATM   16  C   UNL     1      28.387  44.633  53.346  1.00  0.00     0.038 A 
HETATM   17  C   UNL     1      29.314  43.810  53.867  1.00  0.00     0.035 A 
HETATM   18  C   UNL     1      29.803  43.967  55.228  1.00  0.00     0.026 A 
HETATM   19 CL   UNL     1      29.965  42.523  52.924  1.00  0.00    -0.084 Cl
ENDBRANCH   4   8
BRANCH   5  20
HETATM   20  C   UNL     1      24.783  47.487  49.907  1.00  0.00    -0.005 A 
HETATM   21  C   UNL     1      23.553  48.017  49.525  1.00  0.00     0.128 A 
HETATM   22  N   UNL     1      23.401  49.144  48.791  1.00  0.00    -0.272 NA
HETATM   23  C   UNL     1      24.532  49.800  48.451  1.00  0.00     0.116 A 
HETATM   24  C   UNL     1      25.802  49.371  48.797  1.00  0.00     0.020 A 
HETATM   25  C   UNL     1      25.927  48.193  49.531  1.00  0.00     0.015 A 
ENDBRANCH   5  20
BRANCH   1  26
HETATM   26  C   UNL     1      24.406  42.649  50.936  1.00  0.00     0.181 C 
BRANCH  26  27
HETATM   27  C   UNL     1      25.670  42.052  50.356  1.00  0.00    -0.039 A 
HETATM   28  C   UNL     1      26.567  41.348  51.177  1.00  0.00     0.009 A 
HETATM   29  C   UNL     1      27.713  40.761  50.639  1.00  0.00     0.001 A 
HETATM   30  C   UNL     1      27.971  40.863  49.273  1.00  0.00     0.000 A 
HETATM   31  C   UNL     1      27.088  41.555  48.447  1.00  0.00     0.001 A 
HETATM   32  C   UNL     1      25.943  42.146  48.984  1.00  0.00     0.009 A 
ENDBRANCH  26  27
ENDBRANCH   1  26
TORSDOF 4
ENDMDL
MODEL 6
REMARK VINA RESULT:     -10.2      3.978      8.037
REMARK  4 active torsions:
REMARK  status: ('A' for Active; 'I' for Inactive)
REMARK    1  A    between atoms: C_4  and  C_5 
REMARK    2  A    between atoms: C_5  and  N_6 
REMARK    3  A    between atoms: C_9  and  C_10 
REMARK    4  A    between atoms: C_22  and  C_23 
ROOT
HETATM    1  N   UNL     1      25.645  45.299  52.768  1.00  0.00    -0.314 N 
HETATM    2  N   UNL     1      25.507  46.302  51.827  1.00  0.00    -0.203 NA
HETATM    3  C   UNL     1      24.850  45.777  50.713  1.00  0.00     0.041 C 
HETATM    4  C   UNL     1      24.340  46.388  49.634  1.00  0.00     0.044 C 
HETATM    5  C   UNL     1      24.773  44.313  50.955  1.00  0.00     0.015 C 
HETATM    6  C   UNL     1      25.270  44.101  52.192  1.00  0.00     0.119 C 
HETATM    7  H   UNL     1      25.150  47.196  52.180  1.00  0.00     0.153 HD
ENDROOT
BRANCH   4   8
HETATM    8  C   UNL     1      24.398  47.789  49.301  1.00  0.00     0.046 A 
HETATM    9  C   UNL     1      25.610  48.629  49.220  1.00  0.00     0.257 A 
HETATM   10  O   UNL     1      26.778  48.453  49.467  1.00  0.00    -0.267 OA
HETATM   11  N   UNL     1      25.181  50.022  48.797  1.00  0.00    -0.322 N 
HETATM   12  C   UNL     1      23.910  49.967  48.711  1.00  0.00     0.046 A 
HETATM   13  H   UNL     1      25.819  50.797  48.661  1.00  0.00     0.169 HD
HETATM   14  C   UNL     1      23.372  48.615  49.020  1.00  0.00     0.008 A 
HETATM   15  C   UNL     1      22.980  51.049  48.360  1.00  0.00     0.032 A 
HETATM   16  C   UNL     1      21.950  48.404  48.967  1.00  0.00     0.038 A 
HETATM   17  C   UNL     1      21.144  49.432  48.648  1.00  0.00     0.035 A 
HETATM   18  C   UNL     1      21.668  50.754  48.343  1.00  0.00     0.026 A 
HETATM   19 CL   UNL     1      19.435  49.213  48.589  1.00  0.00    -0.084 Cl
ENDBRANCH   4   8
BRANCH   5  20
HETATM   20  C   UNL     1      24.331  43.237  50.073  1.00  0.00    -0.005 A 
HETATM   21  C   UNL     1      22.979  43.038  49.805  1.00  0.00     0.128 A 
HETATM   22  N   UNL     1      22.492  42.046  49.025  1.00  0.00    -0.272 NA
HETATM   23  C   UNL     1      23.401  41.231  48.447  1.00  0.00     0.116 A 
HETATM   24  C   UNL     1      24.768  41.353  48.629  1.00  0.00     0.020 A 
HETATM   25  C   UNL     1      25.238  42.370  49.459  1.00  0.00     0.015 A 
ENDBRANCH   5  20
BRANCH   1  26
HETATM   26  C   UNL     1      26.506  45.461  53.936  1.00  0.00     0.181 C 
BRANCH  26  27
HETATM   27  C   UNL     1      27.766  44.633  53.797  1.00  0.00    -0.039 A 
HETATM   28  C   UNL     1      28.602  44.418  54.905  1.00  0.00     0.009 A 
HETATM   29  C   UNL     1      29.742  43.621  54.792  1.00  0.00     0.001 A 
HETATM   30  C   UNL     1      30.055  43.024  53.572  1.00  0.00     0.000 A 
HETATM   31  C   UNL     1      29.232  43.226  52.466  1.00  0.00     0.001 A 
HETATM   32  C   UNL     1      28.092  44.026  52.577  1.00  0.00     0.009 A 
ENDBRANCH  26  27
ENDBRANCH   1  26
TORSDOF 4
ENDMDL
MODEL 7
REMARK VINA RESULT:     -10.1      4.146      8.854
REMARK  4 active torsions:
REMARK  status: ('A' for Active; 'I' for Inactive)
REMARK    1  A    between atoms: C_4  and  C_5 
REMARK    2  A    between atoms: C_5  and  N_6 
REMARK    3  A    between atoms: C_9  and  C_10 
REMARK    4  A    between atoms: C_22  and  C_23 
ROOT
HETATM    1  N   UNL     1      26.301  45.120  52.728  1.00  0.00    -0.314 N 
HETATM    2  N   UNL     1      25.737  44.243  51.819  1.00  0.00    -0.203 NA
HETATM    3  C   UNL     1      25.586  44.906  50.601  1.00  0.00     0.041 C 
HETATM    4  C   UNL     1      25.253  44.435  49.389  1.00  0.00     0.044 C 
HETATM    5  C   UNL     1      25.912  46.327  50.880  1.00  0.00     0.015 C 
HETATM    6  C   UNL     1      26.322  46.381  52.166  1.00  0.00     0.119 C 
HETATM    7  H   UNL     1      26.164  43.312  51.777  1.00  0.00     0.153 HD
ENDROOT
BRANCH   4   8
HETATM    8  C   UNL     1      24.889  43.088  49.033  1.00  0.00     0.046 A 
HETATM    9  C   UNL     1      25.572  41.848  49.452  1.00  0.00     0.257 A 
HETATM   10  O   UNL     1      26.580  41.606  50.069  1.00  0.00    -0.267 OA
HETATM   11  N   UNL     1      24.808  40.675  48.863  1.00  0.00    -0.322 N 
HETATM   12  C   UNL     1      23.870  41.201  48.177  1.00  0.00     0.046 A 
HETATM   13  H   UNL     1      25.061  39.705  49.001  1.00  0.00     0.169 HD
HETATM   14  C   UNL     1      23.878  42.688  48.237  1.00  0.00     0.008 A 
HETATM   15  C   UNL     1      22.845  40.519  47.374  1.00  0.00     0.032 A 
HETATM   16  C   UNL     1      22.877  43.418  47.506  1.00  0.00     0.038 A 
HETATM   17  C   UNL     1      21.968  42.743  46.781  1.00  0.00     0.035 A 
HETATM   18  C   UNL     1      21.957  41.289  46.722  1.00  0.00     0.026 A 
HETATM   19 CL   UNL     1      20.766  43.591  45.884  1.00  0.00    -0.084 Cl
ENDBRANCH   4   8
BRANCH   5  20
HETATM   20  C   UNL     1      25.784  47.506  50.030  1.00  0.00    -0.005 A 
HETATM   21  C   UNL     1      24.531  48.002  49.675  1.00  0.00     0.128 A 
HETATM   22  N   UNL     1      24.333  49.069  48.867  1.00  0.00    -0.272 NA
HETATM   23  C   UNL     1      25.439  49.702  48.419  1.00  0.00     0.116 A 
HETATM   24  C   UNL     1      26.729  49.305  48.727  1.00  0.00     0.020 A 
HETATM   25  C   UNL     1      26.901  48.186  49.541  1.00  0.00     0.015 A 
ENDBRANCH   5  20
BRANCH   1  26
HETATM   26  C   UNL     1      26.356  44.811  54.154  1.00  0.00     0.181 C 
BRANCH  26  27
HETATM   27  C   UNL     1      27.771  44.481  54.579  1.00  0.00    -0.039 A 
HETATM   28  C   UNL     1      28.503  45.379  55.375  1.00  0.00     0.009 A 
HETATM   29  C   UNL     1      29.791  45.061  55.805  1.00  0.00     0.001 A 
HETATM   30  C   UNL     1      30.362  43.840  55.451  1.00  0.00     0.000 A 
HETATM   31  C   UNL     1      29.646  42.939  54.665  1.00  0.00     0.001 A 
HETATM   32  C   UNL     1      28.357  43.256  54.231  1.00  0.00     0.009 A 
ENDBRANCH  26  27
ENDBRANCH   1  26
TORSDOF 4
ENDMDL
MODEL 8
REMARK VINA RESULT:     -10.0      3.953      7.534
REMARK  4 active torsions:
REMARK  status: ('A' for Active; 'I' for Inactive)
REMARK    1  A    between atoms: C_4  and  C_5 
REMARK    2  A    between atoms: C_5  and  N_6 
REMARK    3  A    between atoms: C_9  and  C_10 
REMARK    4  A    between atoms: C_22  and  C_23 
ROOT
HETATM    1  N   UNL     1      25.205  43.941  49.594  1.00  0.00    -0.314 N 
HETATM    2  N   UNL     1      25.192  45.303  49.357  1.00  0.00    -0.203 NA
HETATM    3  C   UNL     1      25.939  45.933  50.353  1.00  0.00     0.041 C 
HETATM    4  C   UNL     1      26.357  47.204  50.456  1.00  0.00     0.044 C 
HETATM    5  C   UNL     1      26.249  44.873  51.345  1.00  0.00     0.015 C 
HETATM    6  C   UNL     1      25.777  43.716  50.831  1.00  0.00     0.119 C 
HETATM    7  H   UNL     1      25.394  45.588  48.393  1.00  0.00     0.153 HD
ENDROOT
BRANCH   4   8
HETATM    8  C   UNL     1      26.077  48.302  49.566  1.00  0.00     0.046 A 
HETATM    9  C   UNL     1      27.065  49.193  48.924  1.00  0.00     0.257 A 
HETATM   10  O   UNL     1      28.262  49.326  49.006  1.00  0.00    -0.267 OA
HETATM   11  N   UNL     1      26.306  50.171  48.046  1.00  0.00    -0.322 N 
HETATM   12  C   UNL     1      25.075  49.889  48.222  1.00  0.00     0.046 A 
HETATM   13  H   UNL     1      26.745  50.891  47.486  1.00  0.00     0.169 HD
HETATM   14  C   UNL     1      24.874  48.750  49.159  1.00  0.00     0.008 A 
HETATM   15  C   UNL     1      23.902  50.547  47.629  1.00  0.00     0.032 A 
HETATM   16  C   UNL     1      23.533  48.323  49.456  1.00  0.00     0.038 A 
HETATM   17  C   UNL     1      22.497  48.966  48.891  1.00  0.00     0.035 A 
HETATM   18  C   UNL     1      22.690  50.079  47.974  1.00  0.00     0.026 A 
HETATM   19 CL   UNL     1      20.879  48.487  49.239  1.00  0.00    -0.084 Cl
ENDBRANCH   4   8
BRANCH   5  20
HETATM   20  C   UNL     1      26.871  44.970  52.662  1.00  0.00    -0.005 A 
HETATM   21  C   UNL     1      26.369  45.837  53.630  1.00  0.00     0.128 A 
HETATM   22  N   UNL     1      26.908  46.004  54.859  1.00  0.00    -0.272 NA
HETATM   23  C   UNL     1      27.981  45.240  55.158  1.00  0.00     0.116 A 
HETATM   24  C   UNL     1      28.547  44.333  54.278  1.00  0.00     0.020 A 
HETATM   25  C   UNL     1      27.984  44.201  53.009  1.00  0.00     0.015 A 
ENDBRANCH   5  20
BRANCH   1  26
HETATM   26  C   UNL     1      24.315  43.032  48.879  1.00  0.00     0.181 C 
BRANCH  26  27
HETATM   27  C   UNL     1      23.178  43.791  48.229  1.00  0.00    -0.039 A 
HETATM   28  C   UNL     1      23.167  44.007  46.840  1.00  0.00     0.009 A 
HETATM   29  C   UNL     1      22.101  44.669  46.231  1.00  0.00     0.001 A 
HETATM   30  C   UNL     1      21.030  45.118  47.001  1.00  0.00     0.000 A 
HETATM   31  C   UNL     1      21.026  44.908  48.379  1.00  0.00     0.001 A 
HETATM   32  C   UNL     1      22.094  44.247  48.990  1.00  0.00     0.009 A 
ENDBRANCH  26  27
ENDBRANCH   1  26
TORSDOF 4
ENDMDL
MODEL 9
REMARK VINA RESULT:      -9.6      2.403      6.141
REMARK  4 active torsions:
REMARK  status: ('A' for Active; 'I' for Inactive)
REMARK    1  A    between atoms: C_4  and  C_5 
REMARK    2  A    between atoms: C_5  and  N_6 
REMARK    3  A    between atoms: C_9  and  C_10 
REMARK    4  A    between atoms: C_22  and  C_23 
ROOT
HETATM    1  N   UNL     1      25.042  45.817  51.101  1.00  0.00    -0.314 N 
HETATM    2  N   UNL     1      25.323  44.573  50.567  1.00  0.00    -0.203 NA
HETATM    3  C   UNL     1      26.200  43.910  51.426  1.00  0.00     0.041 C 
HETATM    4  C   UNL     1      26.618  42.635  51.430  1.00  0.00     0.044 C 
HETATM    5  C   UNL     1      26.604  44.921  52.435  1.00  0.00     0.015 C 
HETATM    6  C   UNL     1      25.881  46.032  52.176  1.00  0.00     0.119 C 
HETATM    7  H   UNL     1      24.512  44.034  50.247  1.00  0.00     0.153 HD
ENDROOT
BRANCH   4   8
HETATM    8  C   UNL     1      26.308  41.599  50.478  1.00  0.00     0.046 A 
HETATM    9  C   UNL     1      25.104  41.513  49.626  1.00  0.00     0.257 A 
HETATM   10  O   UNL     1      24.084  42.152  49.538  1.00  0.00    -0.267 OA
HETATM   11  N   UNL     1      25.237  40.273  48.760  1.00  0.00    -0.322 N 
HETATM   12  C   UNL     1      26.332  39.730  49.123  1.00  0.00     0.046 A 
HETATM   13  H   UNL     1      24.549  39.980  48.078  1.00  0.00     0.169 HD
HETATM   14  C   UNL     1      27.031  40.500  50.188  1.00  0.00     0.008 A 
HETATM   15  C   UNL     1      26.934  38.486  48.624  1.00  0.00     0.032 A 
HETATM   16  C   UNL     1      28.280  40.003  50.699  1.00  0.00     0.038 A 
HETATM   17  C   UNL     1      28.781  38.855  50.211  1.00  0.00     0.035 A 
HETATM   18  C   UNL     1      28.100  38.101  49.169  1.00  0.00     0.026 A 
HETATM   19 CL   UNL     1      30.268  38.227  50.814  1.00  0.00    -0.084 Cl
ENDBRANCH   4   8
BRANCH   5  20
HETATM   20  C   UNL     1      27.614  44.849  53.487  1.00  0.00    -0.005 A 
HETATM   21  C   UNL     1      27.643  45.783  54.519  1.00  0.00     0.128 A 
HETATM   22  N   UNL     1      28.565  45.798  55.510  1.00  0.00    -0.272 NA
HETATM   23  C   UNL     1      29.484  44.809  55.496  1.00  0.00     0.116 A 
HETATM   24  C   UNL     1      29.532  43.819  54.528  1.00  0.00     0.020 A 
HETATM   25  C   UNL     1      28.585  43.845  53.506  1.00  0.00     0.015 A 
ENDBRANCH   5  20
BRANCH   1  26
HETATM   26  C   UNL     1      24.356  46.845  50.324  1.00  0.00     0.181 C 
BRANCH  26  27
HETATM   27  C   UNL     1      25.347  47.817  49.721  1.00  0.00    -0.039 A 
HETATM   28  C   UNL     1      26.728  47.561  49.790  1.00  0.00     0.009 A 
HETATM   29  C   UNL     1      27.643  48.432  49.199  1.00  0.00     0.001 A 
HETATM   30  C   UNL     1      27.191  49.566  48.527  1.00  0.00     0.000 A 
HETATM   31  C   UNL     1      25.825  49.831  48.449  1.00  0.00     0.001 A 
HETATM   32  C   UNL     1      24.907  48.961  49.042  1.00  0.00     0.009 A 
ENDBRANCH  26  27
ENDBRANCH   1  26
TORSDOF 4
ENDMDL
MODEL 10
REMARK VINA RESULT:      -9.6      2.822      7.685
REMARK  4 active torsions:
REMARK  status: ('A' for Active; 'I' for Inactive)
REMARK    1  A    between atoms: C_4  and  C_5 
REMARK    2  A    between atoms: C_5  and  N_6 
REMARK    3  A    between atoms: C_9  and  C_10 
REMARK    4  A    between atoms: C_22  and  C_23 
ROOT
HETATM    1  N   UNL     1      27.707  45.519  54.253  1.00  0.00    -0.314 N 
HETATM    2  N   UNL     1      27.778  44.270  53.664  1.00  0.00    -0.203 NA
HETATM    3  C   UNL     1      27.212  44.349  52.391  1.00  0.00     0.041 C 
HETATM    4  C   UNL     1      27.204  43.461  51.385  1.00  0.00     0.044 C 
HETATM    5  C   UNL     1      26.599  45.700  52.314  1.00  0.00     0.015 C 
HETATM    6  C   UNL     1      26.928  46.336  53.458  1.00  0.00     0.119 C 
HETATM    7  H   UNL     1      28.687  43.801  53.725  1.00  0.00     0.153 HD
ENDROOT
BRANCH   4   8
HETATM    8  C   UNL     1      27.739  42.124  51.381  1.00  0.00     0.046 A 
HETATM    9  C   UNL     1      28.189  41.349  52.555  1.00  0.00     0.257 A 
HETATM   10  O   UNL     1      28.322  41.594  53.729  1.00  0.00    -0.267 OA
HETATM   11  N   UNL     1      28.634  39.982  52.065  1.00  0.00    -0.322 N 
HETATM   12  C   UNL     1      28.497  40.023  50.798  1.00  0.00     0.046 A 
HETATM   13  H   UNL     1      28.986  39.249  52.668  1.00  0.00     0.169 HD
HETATM   14  C   UNL     1      27.957  41.324  50.319  1.00  0.00     0.008 A 
HETATM   15  C   UNL     1      28.807  38.970  49.821  1.00  0.00     0.032 A 
HETATM   16  C   UNL     1      27.753  41.515  48.908  1.00  0.00     0.038 A 
HETATM   17  C   UNL     1      28.062  40.520  48.058  1.00  0.00     0.035 A 
HETATM   18  C   UNL     1      28.588  39.246  48.524  1.00  0.00     0.026 A 
HETATM   19 CL   UNL     1      27.841  40.725  46.361  1.00  0.00    -0.084 Cl
ENDBRANCH   4   8
BRANCH   5  20
HETATM   20  C   UNL     1      25.744  46.287  51.287  1.00  0.00    -0.005 A 
HETATM   21  C   UNL     1      24.564  45.661  50.892  1.00  0.00     0.128 A 
HETATM   22  N   UNL     1      23.737  46.127  49.927  1.00  0.00    -0.272 NA
HETATM   23  C   UNL     1      24.082  47.299  49.351  1.00  0.00     0.116 A 
HETATM   24  C   UNL     1      25.221  48.013  49.683  1.00  0.00     0.020 A 
HETATM   25  C   UNL     1      26.066  47.494  50.663  1.00  0.00     0.015 A 
ENDBRANCH   5  20
BRANCH   1  26
HETATM   26  C   UNL     1      27.986  45.710  55.674  1.00  0.00     0.181 C 
BRANCH  26  27
HETATM   27  C   UNL     1      29.280  45.031  56.065  1.00  0.00    -0.039 A 
HETATM   28  C   UNL     1      29.902  45.334  57.289  1.00  0.00     0.009 A 
HETATM   29  C   UNL     1      31.072  44.679  57.673  1.00  0.00     0.001 A 
HETATM   30  C   UNL     1      31.632  43.710  56.844  1.00  0.00     0.000 A 
HETATM   31  C   UNL     1      31.025  43.397  55.629  1.00  0.00     0.001 A 
HETATM   32  C   UNL     1      29.854  44.053  55.241  1.00  0.00     0.009 A 
ENDBRANCH  26  27
ENDBRANCH   1  26
TORSDOF 4
ENDMDL
