MODEL 1
REMARK VINA RESULT:     -10.3      0.000      0.000
REMARK  3 active torsions:
REMARK  status: ('A' for Active; 'I' for Inactive)
REMARK    1  A    between atoms: C_3  and  N_4 
REMARK       I    between atoms: N_4  and  C_5 
REMARK    2  A    between atoms: C_5  and  C_6 
REMARK    3  A    between atoms: C_17  and  O_18 
ROOT
HETATM    1  C   UNL     1      26.782  44.941  51.913  1.00  0.00     0.153 A 
HETATM    2  N   UNL     1      27.329  43.832  51.362  1.00  0.00    -0.168 NA
HETATM    3  N   UNL     1      28.297  43.473  52.232  1.00  0.00    -0.276 N 
HETATM    4  H   UNL     1      28.866  42.664  52.011  1.00  0.00     0.189 HD
HETATM    5  C   UNL     1      28.370  44.276  53.328  1.00  0.00     0.069 A 
HETATM    6  C   UNL     1      27.405  45.243  53.150  1.00  0.00     0.007 A 
HETATM    7  C   UNL     1      27.147  46.288  54.178  1.00  0.00     0.048 C 
HETATM    8  C   UNL     1      28.396  46.529  55.059  1.00  0.00     0.044 C 
HETATM    9  C   UNL     1      29.214  45.283  55.381  1.00  0.00    -0.043 A 
HETATM   10  C   UNL     1      29.244  44.190  54.485  1.00  0.00    -0.001 A 
HETATM   11  C   UNL     1      30.023  45.255  56.524  1.00  0.00     0.044 A 
HETATM   12  C   UNL     1      30.842  44.155  56.795  1.00  0.00     0.068 A 
HETATM   13  C   UNL     1      30.860  43.078  55.908  1.00  0.00     0.037 A 
HETATM   14  C   UNL     1      30.064  43.093  54.754  1.00  0.00     0.017 A 
ENDROOT
BRANCH   1  15
HETATM   15  C   UNL     1      25.668  45.660  51.261  1.00  0.00     0.277 C 
HETATM   16  N   UNL     1      26.107  46.803  50.617  1.00  0.00    -0.321 N 
HETATM   17  H   UNL     1      27.114  46.919  50.673  1.00  0.00     0.169 HD
HETATM   18  O   UNL     1      24.520  45.234  51.290  1.00  0.00    -0.266 OA
BRANCH  16  19
HETATM   19  C   UNL     1      25.353  47.745  49.888  1.00  0.00     0.043 A 
HETATM   20  C   UNL     1      26.030  48.742  49.150  1.00  0.00    -0.035 A 
HETATM   21  C   UNL     1      27.533  48.830  49.089  1.00  0.00     0.050 C 
HETATM   22  C   UNL     1      25.286  49.715  48.455  1.00  0.00     0.012 A 
HETATM   23  C   UNL     1      23.894  49.691  48.469  1.00  0.00     0.043 A 
HETATM   24  C   UNL     1      23.243  48.699  49.183  1.00  0.00     0.118 A 
HETATM   25  C   UNL     1      23.953  47.732  49.887  1.00  0.00     0.072 A 
HETATM   26  F   UNL     1      21.903  48.681  49.207  1.00  0.00    -0.206 F 
ENDBRANCH  16  19
ENDBRANCH   1  15
BRANCH  12  27
HETATM   27  O   UNL     1      31.571  44.260  57.948  1.00  0.00    -0.356 OA
HETATM   28  C   UNL     1      31.223  45.313  58.837  1.00  0.00     0.210 C 
ENDBRANCH  12  27
TORSDOF 3
ENDMDL
MODEL 2
REMARK VINA RESULT:      -9.7      3.511      8.990
REMARK  3 active torsions:
REMARK  status: ('A' for Active; 'I' for Inactive)
REMARK    1  A    between atoms: C_3  and  N_4 
REMARK       I    between atoms: N_4  and  C_5 
REMARK    2  A    between atoms: C_5  and  C_6 
REMARK    3  A    between atoms: C_17  and  O_18 
ROOT
HETATM    1  C   UNL     1      26.623  45.773  53.391  1.00  0.00     0.153 A 
HETATM    2  N   UNL     1      26.760  47.115  53.288  1.00  0.00    -0.168 NA
HETATM    3  N   UNL     1      26.029  47.441  52.201  1.00  0.00    -0.276 N 
HETATM    4  H   UNL     1      26.002  48.412  51.912  1.00  0.00     0.189 HD
HETATM    5  C   UNL     1      25.403  46.378  51.627  1.00  0.00     0.069 A 
HETATM    6  C   UNL     1      25.772  45.278  52.370  1.00  0.00     0.007 A 
HETATM    7  C   UNL     1      25.242  43.920  52.073  1.00  0.00     0.048 C 
HETATM    8  C   UNL     1      24.805  43.799  50.594  1.00  0.00     0.044 C 
HETATM    9  C   UNL     1      24.163  45.049  50.002  1.00  0.00    -0.043 A 
HETATM   10  C   UNL     1      24.512  46.333  50.481  1.00  0.00    -0.001 A 
HETATM   11  C   UNL     1      23.295  44.937  48.909  1.00  0.00     0.044 A 
HETATM   12  C   UNL     1      22.759  46.076  48.300  1.00  0.00     0.068 A 
HETATM   13  C   UNL     1      23.105  47.339  48.784  1.00  0.00     0.037 A 
HETATM   14  C   UNL     1      23.979  47.470  49.871  1.00  0.00     0.017 A 
ENDROOT
BRANCH   1  15
HETATM   15  C   UNL     1      27.281  45.008  54.470  1.00  0.00     0.277 C 
HETATM   16  N   UNL     1      28.599  45.395  54.638  1.00  0.00    -0.321 N 
HETATM   17  H   UNL     1      28.862  46.158  54.022  1.00  0.00     0.169 HD
HETATM   18  O   UNL     1      26.678  44.168  55.128  1.00  0.00    -0.266 OA
BRANCH  16  19
HETATM   19  C   UNL     1      29.548  44.904  55.558  1.00  0.00     0.043 A 
HETATM   20  C   UNL     1      30.272  43.734  55.238  1.00  0.00    -0.035 A 
HETATM   21  C   UNL     1      30.090  42.995  53.937  1.00  0.00     0.050 C 
HETATM   22  C   UNL     1      31.190  43.210  56.169  1.00  0.00     0.012 A 
HETATM   23  C   UNL     1      31.406  43.844  57.389  1.00  0.00     0.043 A 
HETATM   24  C   UNL     1      30.701  44.999  57.684  1.00  0.00     0.118 A 
HETATM   25  C   UNL     1      29.782  45.532  56.787  1.00  0.00     0.072 A 
HETATM   26  F   UNL     1      30.901  45.605  58.863  1.00  0.00    -0.206 F 
ENDBRANCH  16  19
ENDBRANCH   1  15
BRANCH  12  27
HETATM   27  O   UNL     1      21.922  45.819  47.249  1.00  0.00    -0.356 OA
HETATM   28  C   UNL     1      20.972  46.824  46.920  1.00  0.00     0.210 C 
ENDBRANCH  12  27
TORSDOF 3
ENDMDL
MODEL 3
REMARK VINA RESULT:      -9.5      1.438      2.007
REMARK  3 active torsions:
REMARK  status: ('A' for Active; 'I' for Inactive)
REMARK    1  A    between atoms: C_3  and  N_4 
REMARK       I    between atoms: N_4  and  C_5 
REMARK    2  A    between atoms: C_5  and  C_6 
REMARK    3  A    between atoms: C_17  and  O_18 
ROOT
HETATM    1  C   UNL     1      26.048  44.380  51.664  1.00  0.00     0.153 A 
HETATM    2  N   UNL     1      26.753  43.446  50.984  1.00  0.00    -0.168 NA
HETATM    3  N   UNL     1      27.859  43.254  51.734  1.00  0.00    -0.276 N 
HETATM    4  H   UNL     1      28.557  42.598  51.403  1.00  0.00     0.189 HD
HETATM    5  C   UNL     1      27.876  43.991  52.877  1.00  0.00     0.069 A 
HETATM    6  C   UNL     1      26.719  44.738  52.860  1.00  0.00     0.007 A 
HETATM    7  C   UNL     1      26.357  45.645  53.983  1.00  0.00     0.048 C 
HETATM    8  C   UNL     1      27.613  46.098  54.766  1.00  0.00     0.044 C 
HETATM    9  C   UNL     1      28.700  45.040  54.918  1.00  0.00    -0.043 A 
HETATM   10  C   UNL     1      28.863  44.030  53.942  1.00  0.00    -0.001 A 
HETATM   11  C   UNL     1      29.610  45.121  55.980  1.00  0.00     0.044 A 
HETATM   12  C   UNL     1      30.662  44.208  56.093  1.00  0.00     0.068 A 
HETATM   13  C   UNL     1      30.811  43.210  55.128  1.00  0.00     0.037 A 
HETATM   14  C   UNL     1      29.916  43.120  54.054  1.00  0.00     0.017 A 
ENDROOT
BRANCH   1  15
HETATM   15  C   UNL     1      24.748  44.880  51.170  1.00  0.00     0.277 C 
HETATM   16  N   UNL     1      24.910  45.784  50.134  1.00  0.00    -0.321 N 
HETATM   17  H   UNL     1      25.884  45.908  49.875  1.00  0.00     0.169 HD
HETATM   18  O   UNL     1      23.686  44.485  51.633  1.00  0.00    -0.266 OA
BRANCH  16  19
HETATM   19  C   UNL     1      23.919  46.473  49.408  1.00  0.00     0.043 A 
HETATM   20  C   UNL     1      23.194  45.782  48.410  1.00  0.00    -0.035 A 
HETATM   21  C   UNL     1      23.421  44.324  48.104  1.00  0.00     0.050 C 
HETATM   22  C   UNL     1      22.233  46.472  47.648  1.00  0.00     0.012 A 
HETATM   23  C   UNL     1      21.974  47.820  47.881  1.00  0.00     0.043 A 
HETATM   24  C   UNL     1      22.680  48.482  48.871  1.00  0.00     0.118 A 
HETATM   25  C   UNL     1      23.642  47.827  49.632  1.00  0.00     0.072 A 
HETATM   26  F   UNL     1      22.439  49.782  49.090  1.00  0.00    -0.206 F 
ENDBRANCH  16  19
ENDBRANCH   1  15
BRANCH  12  27
HETATM   27  O   UNL     1      31.468  44.401  57.181  1.00  0.00    -0.356 OA
HETATM   28  C   UNL     1      30.903  45.093  58.287  1.00  0.00     0.210 C 
ENDBRANCH  12  27
TORSDOF 3
ENDMDL
MODEL 4
REMARK VINA RESULT:      -9.5      4.499      6.434
REMARK  3 active torsions:
REMARK  status: ('A' for Active; 'I' for Inactive)
REMARK    1  A    between atoms: C_3  and  N_4 
REMARK       I    between atoms: N_4  and  C_5 
REMARK    2  A    between atoms: C_5  and  C_6 
REMARK    3  A    between atoms: C_17  and  O_18 
ROOT
HETATM    1  C   UNL     1      27.169  43.112  51.399  1.00  0.00     0.153 A 
HETATM    2  N   UNL     1      26.084  43.883  51.647  1.00  0.00    -0.168 NA
HETATM    3  N   UNL     1      26.393  44.532  52.790  1.00  0.00    -0.276 N 
HETATM    4  H   UNL     1      25.706  45.163  53.186  1.00  0.00     0.189 HD
HETATM    5  C   UNL     1      27.635  44.241  53.263  1.00  0.00     0.069 A 
HETATM    6  C   UNL     1      28.163  43.317  52.389  1.00  0.00     0.007 A 
HETATM    7  C   UNL     1      29.544  42.787  52.551  1.00  0.00     0.048 C 
HETATM    8  C   UNL     1      30.012  42.883  54.023  1.00  0.00     0.044 C 
HETATM    9  C   UNL     1      29.544  44.124  54.774  1.00  0.00    -0.043 A 
HETATM   10  C   UNL     1      28.329  44.759  54.429  1.00  0.00    -0.001 A 
HETATM   11  C   UNL     1      30.270  44.587  55.879  1.00  0.00     0.044 A 
HETATM   12  C   UNL     1      29.815  45.675  56.630  1.00  0.00     0.068 A 
HETATM   13  C   UNL     1      28.617  46.298  56.278  1.00  0.00     0.037 A 
HETATM   14  C   UNL     1      27.873  45.843  55.181  1.00  0.00     0.017 A 
ENDROOT
BRANCH   1  15
HETATM   15  C   UNL     1      27.235  42.227  50.218  1.00  0.00     0.277 C 
HETATM   16  N   UNL     1      27.253  40.892  50.581  1.00  0.00    -0.321 N 
HETATM   17  H   UNL     1      27.175  40.761  51.585  1.00  0.00     0.169 HD
HETATM   18  O   UNL     1      27.239  42.673  49.077  1.00  0.00    -0.266 OA
BRANCH  16  19
HETATM   19  C   UNL     1      27.312  39.757  49.748  1.00  0.00     0.043 A 
HETATM   20  C   UNL     1      28.360  38.826  49.931  1.00  0.00    -0.035 A 
HETATM   21  C   UNL     1      29.410  38.983  51.000  1.00  0.00     0.050 C 
HETATM   22  C   UNL     1      28.454  37.711  49.076  1.00  0.00     0.012 A 
HETATM   23  C   UNL     1      27.516  37.506  48.069  1.00  0.00     0.043 A 
HETATM   24  C   UNL     1      26.485  38.417  47.910  1.00  0.00     0.118 A 
HETATM   25  C   UNL     1      26.374  39.532  48.734  1.00  0.00     0.072 A 
HETATM   26  F   UNL     1      25.587  38.226  46.933  1.00  0.00    -0.206 F 
ENDBRANCH  16  19
ENDBRANCH   1  15
BRANCH  12  27
HETATM   27  O   UNL     1      30.627  46.023  57.676  1.00  0.00    -0.356 OA
HETATM   28  C   UNL     1      31.120  44.966  58.488  1.00  0.00     0.210 C 
ENDBRANCH  12  27
TORSDOF 3
ENDMDL
MODEL 5
REMARK VINA RESULT:      -9.4      1.510      2.289
REMARK  3 active torsions:
REMARK  status: ('A' for Active; 'I' for Inactive)
REMARK    1  A    between atoms: C_3  and  N_4 
REMARK       I    between atoms: N_4  and  C_5 
REMARK    2  A    between atoms: C_5  and  C_6 
REMARK    3  A    between atoms: C_17  and  O_18 
ROOT
HETATM    1  C   UNL     1      25.418  45.535  50.123  1.00  0.00     0.153 A 
HETATM    2  N   UNL     1      26.071  44.639  49.347  1.00  0.00    -0.168 NA
HETATM    3  N   UNL     1      27.064  44.178  50.138  1.00  0.00    -0.276 N 
HETATM    4  H   UNL     1      27.709  43.497  49.754  1.00  0.00     0.189 HD
HETATM    5  C   UNL     1      27.053  44.708  51.391  1.00  0.00     0.069 A 
HETATM    6  C   UNL     1      26.002  45.598  51.413  1.00  0.00     0.007 A 
HETATM    7  C   UNL     1      25.639  46.348  52.646  1.00  0.00     0.048 C 
HETATM    8  C   UNL     1      26.854  46.492  53.594  1.00  0.00     0.044 C 
HETATM    9  C   UNL     1      27.784  45.285  53.644  1.00  0.00    -0.043 A 
HETATM   10  C   UNL     1      27.924  44.437  52.521  1.00  0.00    -0.001 A 
HETATM   11  C   UNL     1      28.585  45.066  54.772  1.00  0.00     0.044 A 
HETATM   12  C   UNL     1      29.503  44.013  54.806  1.00  0.00     0.068 A 
HETATM   13  C   UNL     1      29.629  43.177  53.695  1.00  0.00     0.037 A 
HETATM   14  C   UNL     1      28.843  43.387  52.554  1.00  0.00     0.017 A 
ENDROOT
BRANCH   1  15
HETATM   15  C   UNL     1      24.245  46.282  49.622  1.00  0.00     0.277 C 
HETATM   16  N   UNL     1      24.507  47.637  49.523  1.00  0.00    -0.321 N 
HETATM   17  H   UNL     1      25.465  47.867  49.771  1.00  0.00     0.169 HD
HETATM   18  O   UNL     1      23.203  45.716  49.316  1.00  0.00    -0.266 OA
BRANCH  16  19
HETATM   19  C   UNL     1      23.649  48.668  49.090  1.00  0.00     0.043 A 
HETATM   20  C   UNL     1      24.199  49.774  48.404  1.00  0.00    -0.035 A 
HETATM   21  C   UNL     1      25.669  49.890  48.092  1.00  0.00     0.050 C 
HETATM   22  C   UNL     1      23.358  50.831  48.006  1.00  0.00     0.012 A 
HETATM   23  C   UNL     1      21.990  50.786  48.262  1.00  0.00     0.043 A 
HETATM   24  C   UNL     1      21.462  49.689  48.922  1.00  0.00     0.118 A 
HETATM   25  C   UNL     1      22.272  48.637  49.334  1.00  0.00     0.072 A 
HETATM   26  F   UNL     1      20.147  49.650  49.178  1.00  0.00    -0.206 F 
ENDBRANCH  16  19
ENDBRANCH   1  15
BRANCH  12  27
HETATM   27  O   UNL     1      30.211  43.913  55.972  1.00  0.00    -0.356 OA
HETATM   28  C   UNL     1      30.442  45.118  56.691  1.00  0.00     0.210 C 
ENDBRANCH  12  27
TORSDOF 3
ENDMDL
MODEL 6
REMARK VINA RESULT:      -9.3      1.947      2.312
REMARK  3 active torsions:
REMARK  status: ('A' for Active; 'I' for Inactive)
REMARK    1  A    between atoms: C_3  and  N_4 
REMARK       I    between atoms: N_4  and  C_5 
REMARK    2  A    between atoms: C_5  and  C_6 
REMARK    3  A    between atoms: C_17  and  O_18 
ROOT
HETATM    1  C   UNL     1      26.154  44.047  51.685  1.00  0.00     0.153 A 
HETATM    2  N   UNL     1      26.927  43.107  51.092  1.00  0.00    -0.168 NA
HETATM    3  N   UNL     1      28.013  43.020  51.890  1.00  0.00    -0.276 N 
HETATM    4  H   UNL     1      28.754  42.381  51.627  1.00  0.00     0.189 HD
HETATM    5  C   UNL     1      27.953  43.831  52.981  1.00  0.00     0.069 A 
HETATM    6  C   UNL     1      26.763  44.516  52.876  1.00  0.00     0.007 A 
HETATM    7  C   UNL     1      26.317  45.475  53.923  1.00  0.00     0.048 C 
HETATM    8  C   UNL     1      27.520  46.041  54.713  1.00  0.00     0.044 C 
HETATM    9  C   UNL     1      28.651  45.052  54.973  1.00  0.00    -0.043 A 
HETATM   10  C   UNL     1      28.898  43.989  54.073  1.00  0.00    -0.001 A 
HETATM   11  C   UNL     1      29.517  45.248  56.056  1.00  0.00     0.044 A 
HETATM   12  C   UNL     1      30.608  44.399  56.264  1.00  0.00     0.068 A 
HETATM   13  C   UNL     1      30.840  43.349  55.374  1.00  0.00     0.037 A 
HETATM   14  C   UNL     1      29.989  43.144  54.279  1.00  0.00     0.017 A 
ENDROOT
BRANCH   1  15
HETATM   15  C   UNL     1      24.850  44.447  51.115  1.00  0.00     0.277 C 
HETATM   16  N   UNL     1      24.985  44.938  49.829  1.00  0.00    -0.321 N 
HETATM   17  H   UNL     1      25.943  44.897  49.495  1.00  0.00     0.169 HD
HETATM   18  O   UNL     1      23.804  44.308  51.737  1.00  0.00    -0.266 OA
BRANCH  16  19
HETATM   19  C   UNL     1      23.982  45.416  48.962  1.00  0.00     0.043 A 
HETATM   20  C   UNL     1      23.583  46.769  49.055  1.00  0.00    -0.035 A 
HETATM   21  C   UNL     1      24.203  47.735  50.030  1.00  0.00     0.050 C 
HETATM   22  C   UNL     1      22.550  47.246  48.225  1.00  0.00     0.012 A 
HETATM   23  C   UNL     1      21.935  46.405  47.300  1.00  0.00     0.043 A 
HETATM   24  C   UNL     1      22.346  45.086  47.209  1.00  0.00     0.118 A 
HETATM   25  C   UNL     1      23.356  44.587  48.024  1.00  0.00     0.072 A 
HETATM   26  F   UNL     1      21.747  44.273  46.327  1.00  0.00    -0.206 F 
ENDBRANCH  16  19
ENDBRANCH   1  15
BRANCH  12  27
HETATM   27  O   UNL     1      31.363  44.704  57.363  1.00  0.00    -0.356 OA
HETATM   28  C   UNL     1      30.740  45.477  58.380  1.00  0.00     0.210 C 
ENDBRANCH  12  27
TORSDOF 3
ENDMDL
MODEL 7
REMARK VINA RESULT:      -9.1      3.708      4.491
REMARK  3 active torsions:
REMARK  status: ('A' for Active; 'I' for Inactive)
REMARK    1  A    between atoms: C_3  and  N_4 
REMARK       I    between atoms: N_4  and  C_5 
REMARK    2  A    between atoms: C_5  and  C_6 
REMARK    3  A    between atoms: C_17  and  O_18 
ROOT
HETATM    1  C   UNL     1      27.494  41.521  51.572  1.00  0.00     0.153 A 
HETATM    2  N   UNL     1      28.631  40.787  51.573  1.00  0.00    -0.168 NA
HETATM    3  N   UNL     1      29.420  41.401  52.481  1.00  0.00    -0.276 N 
HETATM    4  H   UNL     1      30.350  41.032  52.638  1.00  0.00     0.189 HD
HETATM    5  C   UNL     1      28.828  42.467  53.084  1.00  0.00     0.069 A 
HETATM    6  C   UNL     1      27.580  42.577  52.513  1.00  0.00     0.007 A 
HETATM    7  C   UNL     1      26.606  43.612  52.955  1.00  0.00     0.048 C 
HETATM    8  C   UNL     1      27.326  44.826  53.589  1.00  0.00     0.044 C 
HETATM    9  C   UNL     1      28.559  44.488  54.420  1.00  0.00    -0.043 A 
HETATM   10  C   UNL     1      29.336  43.345  54.124  1.00  0.00    -0.001 A 
HETATM   11  C   UNL     1      28.986  45.367  55.424  1.00  0.00     0.044 A 
HETATM   12  C   UNL     1      30.158  45.117  56.144  1.00  0.00     0.068 A 
HETATM   13  C   UNL     1      30.915  43.982  55.848  1.00  0.00     0.037 A 
HETATM   14  C   UNL     1      30.508  43.097  54.841  1.00  0.00     0.017 A 
ENDROOT
BRANCH   1  15
HETATM   15  C   UNL     1      26.353  41.178  50.697  1.00  0.00     0.277 C 
HETATM   16  N   UNL     1      25.952  42.260  49.934  1.00  0.00    -0.321 N 
HETATM   17  H   UNL     1      26.536  43.078  50.082  1.00  0.00     0.169 HD
HETATM   18  O   UNL     1      25.880  40.048  50.666  1.00  0.00    -0.266 OA
BRANCH  16  19
HETATM   19  C   UNL     1      24.909  42.330  48.989  1.00  0.00     0.043 A 
HETATM   20  C   UNL     1      23.810  43.183  49.242  1.00  0.00    -0.035 A 
HETATM   21  C   UNL     1      23.716  44.044  50.475  1.00  0.00     0.050 C 
HETATM   22  C   UNL     1      22.742  43.227  48.326  1.00  0.00     0.012 A 
HETATM   23  C   UNL     1      22.766  42.457  47.167  1.00  0.00     0.043 A 
HETATM   24  C   UNL     1      23.855  41.637  46.923  1.00  0.00     0.118 A 
HETATM   25  C   UNL     1      24.919  41.567  47.816  1.00  0.00     0.072 A 
HETATM   26  F   UNL     1      23.875  40.887  45.813  1.00  0.00    -0.206 F 
ENDBRANCH  16  19
ENDBRANCH   1  15
BRANCH  12  27
HETATM   27  O   UNL     1      30.450  46.053  57.098  1.00  0.00    -0.356 OA
HETATM   28  C   UNL     1      30.538  45.598  58.442  1.00  0.00     0.210 C 
ENDBRANCH  12  27
TORSDOF 3
ENDMDL
MODEL 8
REMARK VINA RESULT:      -9.1      5.801     11.418
REMARK  3 active torsions:
REMARK  status: ('A' for Active; 'I' for Inactive)
REMARK    1  A    between atoms: C_3  and  N_4 
REMARK       I    between atoms: N_4  and  C_5 
REMARK    2  A    between atoms: C_5  and  C_6 
REMARK    3  A    between atoms: C_17  and  O_18 
ROOT
HETATM    1  C   UNL     1      20.546  48.221  48.428  1.00  0.00     0.153 A 
HETATM    2  N   UNL     1      19.548  47.321  48.267  1.00  0.00    -0.168 NA
HETATM    3  N   UNL     1      18.421  48.040  48.456  1.00  0.00    -0.276 N 
HETATM    4  H   UNL     1      17.529  47.561  48.403  1.00  0.00     0.189 HD
HETATM    5  C   UNL     1      18.650  49.360  48.694  1.00  0.00     0.069 A 
HETATM    6  C   UNL     1      20.019  49.511  48.689  1.00  0.00     0.007 A 
HETATM    7  C   UNL     1      20.660  50.841  48.870  1.00  0.00     0.048 C 
HETATM    8  C   UNL     1      19.732  51.811  49.640  1.00  0.00     0.044 C 
HETATM    9  C   UNL     1      18.247  51.682  49.319  1.00  0.00    -0.043 A 
HETATM   10  C   UNL     1      17.705  50.442  48.907  1.00  0.00    -0.001 A 
HETATM   11  C   UNL     1      17.390  52.770  49.526  1.00  0.00     0.044 A 
HETATM   12  C   UNL     1      16.014  52.648  49.315  1.00  0.00     0.068 A 
HETATM   13  C   UNL     1      15.489  51.422  48.902  1.00  0.00     0.037 A 
HETATM   14  C   UNL     1      16.330  50.320  48.698  1.00  0.00     0.017 A 
ENDROOT
BRANCH   1  15
HETATM   15  C   UNL     1      21.966  47.831  48.302  1.00  0.00     0.277 C 
HETATM   16  N   UNL     1      22.713  48.270  49.381  1.00  0.00    -0.321 N 
HETATM   17  H   UNL     1      22.147  48.741  50.080  1.00  0.00     0.169 HD
HETATM   18  O   UNL     1      22.373  47.171  47.354  1.00  0.00    -0.266 OA
BRANCH  16  19
HETATM   19  C   UNL     1      24.090  48.097  49.624  1.00  0.00     0.043 A 
HETATM   20  C   UNL     1      25.012  48.966  48.995  1.00  0.00    -0.035 A 
HETATM   21  C   UNL     1      24.581  50.090  48.089  1.00  0.00     0.050 C 
HETATM   22  C   UNL     1      26.392  48.775  49.195  1.00  0.00     0.012 A 
HETATM   23  C   UNL     1      26.857  47.755  50.021  1.00  0.00     0.043 A 
HETATM   24  C   UNL     1      25.943  46.920  50.644  1.00  0.00     0.118 A 
HETATM   25  C   UNL     1      24.575  47.081  50.455  1.00  0.00     0.072 A 
HETATM   26  F   UNL     1      26.390  45.932  51.431  1.00  0.00    -0.206 F 
ENDBRANCH  16  19
ENDBRANCH   1  15
BRANCH  12  27
HETATM   27  O   UNL     1      15.300  53.792  49.548  1.00  0.00    -0.356 OA
HETATM   28  C   UNL     1      14.066  53.651  50.241  1.00  0.00     0.210 C 
ENDBRANCH  12  27
TORSDOF 3
ENDMDL
MODEL 9
REMARK VINA RESULT:      -9.1      3.434      8.688
REMARK  3 active torsions:
REMARK  status: ('A' for Active; 'I' for Inactive)
REMARK    1  A    between atoms: C_3  and  N_4 
REMARK       I    between atoms: N_4  and  C_5 
REMARK    2  A    between atoms: C_5  and  C_6 
REMARK    3  A    between atoms: C_17  and  O_18 
ROOT
HETATM    1  C   UNL     1      26.443  44.046  51.530  1.00  0.00     0.153 A 
HETATM    2  N   UNL     1      25.688  42.931  51.391  1.00  0.00    -0.168 NA
HETATM    3  N   UNL     1      24.606  43.348  50.699  1.00  0.00    -0.276 N 
HETATM    4  H   UNL     1      23.878  42.674  50.492  1.00  0.00     0.189 HD
HETATM    5  C   UNL     1      24.652  44.664  50.358  1.00  0.00     0.069 A 
HETATM    6  C   UNL     1      25.827  45.149  50.887  1.00  0.00     0.007 A 
HETATM    7  C   UNL     1      26.255  46.559  50.680  1.00  0.00     0.048 C 
HETATM    8  C   UNL     1      25.043  47.478  50.400  1.00  0.00     0.044 C 
HETATM    9  C   UNL     1      23.934  46.853  49.561  1.00  0.00    -0.043 A 
HETATM   10  C   UNL     1      23.706  45.458  49.593  1.00  0.00    -0.001 A 
HETATM   11  C   UNL     1      23.066  47.672  48.827  1.00  0.00     0.044 A 
HETATM   12  C   UNL     1      21.994  47.125  48.116  1.00  0.00     0.068 A 
HETATM   13  C   UNL     1      21.782  45.746  48.148  1.00  0.00     0.037 A 
HETATM   14  C   UNL     1      22.634  44.912  48.885  1.00  0.00     0.017 A 
ENDROOT
BRANCH   1  15
HETATM   15  C   UNL     1      27.737  44.020  52.244  1.00  0.00     0.277 C 
HETATM   16  N   UNL     1      27.626  44.546  53.520  1.00  0.00    -0.321 N 
HETATM   17  H   UNL     1      26.673  44.814  53.748  1.00  0.00     0.169 HD
HETATM   18  O   UNL     1      28.746  43.549  51.735  1.00  0.00    -0.266 OA
BRANCH  16  19
HETATM   19  C   UNL     1      28.628  44.692  54.499  1.00  0.00     0.043 A 
HETATM   20  C   UNL     1      28.741  45.923  55.186  1.00  0.00    -0.035 A 
HETATM   21  C   UNL     1      27.815  47.083  54.932  1.00  0.00     0.050 C 
HETATM   22  C   UNL     1      29.767  46.095  56.135  1.00  0.00     0.012 A 
HETATM   23  C   UNL     1      30.656  45.062  56.417  1.00  0.00     0.043 A 
HETATM   24  C   UNL     1      30.526  43.856  55.748  1.00  0.00     0.118 A 
HETATM   25  C   UNL     1      29.527  43.663  54.799  1.00  0.00     0.072 A 
HETATM   26  F   UNL     1      31.387  42.864  56.012  1.00  0.00    -0.206 F 
ENDBRANCH  16  19
ENDBRANCH   1  15
BRANCH  12  27
HETATM   27  O   UNL     1      21.235  48.040  47.439  1.00  0.00    -0.356 OA
HETATM   28  C   UNL     1      21.317  49.392  47.872  1.00  0.00     0.210 C 
ENDBRANCH  12  27
TORSDOF 3
ENDMDL
MODEL 10
REMARK VINA RESULT:      -8.9      4.657      5.739
REMARK  3 active torsions:
REMARK  status: ('A' for Active; 'I' for Inactive)
REMARK    1  A    between atoms: C_3  and  N_4 
REMARK       I    between atoms: N_4  and  C_5 
REMARK    2  A    between atoms: C_5  and  C_6 
REMARK    3  A    between atoms: C_17  and  O_18 
ROOT
HETATM    1  C   UNL     1      27.261  42.607  51.533  1.00  0.00     0.153 A 
HETATM    2  N   UNL     1      26.161  43.382  51.678  1.00  0.00    -0.168 NA
HETATM    3  N   UNL     1      26.436  44.150  52.753  1.00  0.00    -0.276 N 
HETATM    4  H   UNL     1      25.732  44.808  53.069  1.00  0.00     0.189 HD
HETATM    5  C   UNL     1      27.671  43.930  53.278  1.00  0.00     0.069 A 
HETATM    6  C   UNL     1      28.231  42.930  52.515  1.00  0.00     0.007 A 
HETATM    7  C   UNL     1      29.616  42.442  52.758  1.00  0.00     0.048 C 
HETATM    8  C   UNL     1      30.052  42.697  54.220  1.00  0.00     0.044 C 
HETATM    9  C   UNL     1      29.551  44.002  54.829  1.00  0.00    -0.043 A 
HETATM   10  C   UNL     1      28.334  44.577  54.397  1.00  0.00    -0.001 A 
HETATM   11  C   UNL     1      30.246  44.588  55.894  1.00  0.00     0.044 A 
HETATM   12  C   UNL     1      29.760  45.740  56.520  1.00  0.00     0.068 A 
HETATM   13  C   UNL     1      28.561  46.304  56.082  1.00  0.00     0.037 A 
HETATM   14  C   UNL     1      27.847  45.725  55.024  1.00  0.00     0.017 A 
ENDROOT
BRANCH   1  15
HETATM   15  C   UNL     1      27.365  41.606  50.451  1.00  0.00     0.277 C 
HETATM   16  N   UNL     1      26.786  42.060  49.279  1.00  0.00    -0.321 N 
HETATM   17  H   UNL     1      26.433  43.009  49.362  1.00  0.00     0.169 HD
HETATM   18  O   UNL     1      27.934  40.534  50.615  1.00  0.00    -0.266 OA
BRANCH  16  19
HETATM   19  C   UNL     1      26.685  41.402  48.037  1.00  0.00     0.043 A 
HETATM   20  C   UNL     1      25.422  40.933  47.610  1.00  0.00    -0.035 A 
HETATM   21  C   UNL     1      24.166  41.128  48.419  1.00  0.00     0.050 C 
HETATM   22  C   UNL     1      25.317  40.235  46.392  1.00  0.00     0.012 A 
HETATM   23  C   UNL     1      26.439  40.021  45.596  1.00  0.00     0.043 A 
HETATM   24  C   UNL     1      27.668  40.498  46.018  1.00  0.00     0.118 A 
HETATM   25  C   UNL     1      27.801  41.183  47.221  1.00  0.00     0.072 A 
HETATM   26  F   UNL     1      28.751  40.284  45.257  1.00  0.00    -0.206 F 
ENDBRANCH  16  19
ENDBRANCH   1  15
BRANCH  12  27
HETATM   27  O   UNL     1      30.545  46.207  57.539  1.00  0.00    -0.356 OA
HETATM   28  C   UNL     1      31.015  45.252  58.481  1.00  0.00     0.210 C 
ENDBRANCH  12  27
TORSDOF 3
ENDMDL
