MODEL 1
REMARK VINA RESULT:      -9.1      0.000      0.000
REMARK  4 active torsions:
REMARK  status: ('A' for Active; 'I' for Inactive)
REMARK    1  A    between atoms: C_8  and  N_9 
REMARK       I    between atoms: N_9  and  C_10 
REMARK       I    between atoms: C_10  and  N_11 
REMARK    2  A    between atoms: N_11  and  C_12 
REMARK    3  A    between atoms: C_15  and  C_16 
REMARK       I    between atoms: C_16  and  N_17 
REMARK    4  A    between atoms: N_17  and  C_18 
ROOT
HETATM    1  C   UNL     1      25.892  46.812  50.608  1.00  0.00     0.036 A 
HETATM    2  C   UNL     1      26.514  47.882  49.961  1.00  0.00     0.030 A 
HETATM    3  C   UNL     1      25.766  48.783  49.194  1.00  0.00     0.019 A 
HETATM    4  C   UNL     1      24.386  48.610  49.053  1.00  0.00     0.032 A 
HETATM    5  C   UNL     1      23.752  47.568  49.736  1.00  0.00     0.019 A 
HETATM    6  C   UNL     1      24.502  46.673  50.506  1.00  0.00     0.030 A 
ENDROOT
BRANCH   1   7
HETATM    7  N   UNL     1      26.591  45.812  51.315  1.00  0.00    -0.309 N 
HETATM    8  C   UNL     1      27.052  44.598  50.827  1.00  0.00     0.325 C 
HETATM    9  N   UNL     1      27.377  43.761  51.881  1.00  0.00    -0.305 N 
HETATM   10  O   UNL     1      27.121  44.299  49.643  1.00  0.00    -0.247 OA
HETATM   11  H   UNL     1      26.933  43.971  52.761  1.00  0.00     0.171 HD
HETATM   12  H   UNL     1      26.864  46.037  52.259  1.00  0.00     0.170 HD
BRANCH   9  13
HETATM   13  C   UNL     1      27.926  42.492  51.781  1.00  0.00     0.086 A 
HETATM   14  C   UNL     1      29.156  42.182  52.331  1.00  0.00     0.052 A 
HETATM   15  C   UNL     1      30.133  42.976  53.111  1.00  0.00     0.072 C 
HETATM   16  N   UNL     1      29.363  40.861  52.056  1.00  0.00    -0.280 N 
HETATM   17  H   UNL     1      30.152  40.281  52.321  1.00  0.00     0.189 HD
HETATM   18  N   UNL     1      28.386  40.298  51.340  1.00  0.00    -0.177 NA
HETATM   19  C   UNL     1      27.496  41.284  51.157  1.00  0.00     0.079 A 
HETATM   20  C   UNL     1      26.288  40.999  50.342  1.00  0.00     0.075 C 
ENDBRANCH   9  13
ENDBRANCH   1   7
BRANCH   4  21
HETATM   21  C   UNL     1      23.565  49.485  48.173  1.00  0.00     0.252 C 
HETATM   22  N   UNL     1      22.206  49.470  48.415  1.00  0.00    -0.352 N 
HETATM   23  H   UNL     1      21.851  48.936  49.195  1.00  0.00     0.163 HD
HETATM   24  O   UNL     1      24.101  50.203  47.338  1.00  0.00    -0.268 OA
BRANCH  22  25
HETATM   25  C   UNL     1      21.275  50.327  47.689  1.00  0.00     0.084 C 
HETATM   26  C   UNL     1      20.014  49.560  47.267  1.00  0.00     0.025 C 
HETATM   27  C   UNL     1      19.111  49.220  48.451  1.00  0.00     0.002 C 
HETATM   28  C   UNL     1      18.754  50.461  49.261  1.00  0.00     0.000 C 
HETATM   29  C   UNL     1      19.998  51.221  49.710  1.00  0.00     0.002 C 
HETATM   30  C   UNL     1      20.910  51.559  48.531  1.00  0.00     0.025 C 
ENDBRANCH  22  25
ENDBRANCH   4  21
TORSDOF 4
ENDMDL
MODEL 2
REMARK VINA RESULT:      -8.5      0.759      1.995
REMARK  4 active torsions:
REMARK  status: ('A' for Active; 'I' for Inactive)
REMARK    1  A    between atoms: C_8  and  N_9 
REMARK       I    between atoms: N_9  and  C_10 
REMARK       I    between atoms: C_10  and  N_11 
REMARK    2  A    between atoms: N_11  and  C_12 
REMARK    3  A    between atoms: C_15  and  C_16 
REMARK       I    between atoms: C_16  and  N_17 
REMARK    4  A    between atoms: N_17  and  C_18 
ROOT
HETATM    1  C   UNL     1      24.864  46.158  50.213  1.00  0.00     0.036 A 
HETATM    2  C   UNL     1      23.703  45.853  49.498  1.00  0.00     0.030 A 
HETATM    3  C   UNL     1      23.054  46.835  48.741  1.00  0.00     0.019 A 
HETATM    4  C   UNL     1      23.553  48.140  48.707  1.00  0.00     0.032 A 
HETATM    5  C   UNL     1      24.740  48.439  49.382  1.00  0.00     0.019 A 
HETATM    6  C   UNL     1      25.389  47.453  50.133  1.00  0.00     0.030 A 
ENDROOT
BRANCH   1   7
HETATM    7  N   UNL     1      25.515  45.249  51.071  1.00  0.00    -0.309 N 
HETATM    8  C   UNL     1      26.439  44.273  50.725  1.00  0.00     0.325 C 
HETATM    9  N   UNL     1      26.589  43.376  51.769  1.00  0.00    -0.305 N 
HETATM   10  O   UNL     1      27.003  44.196  49.643  1.00  0.00    -0.247 OA
HETATM   11  H   UNL     1      25.822  43.330  52.421  1.00  0.00     0.171 HD
HETATM   12  H   UNL     1      25.362  45.375  52.060  1.00  0.00     0.170 HD
BRANCH   9  13
HETATM   13  C   UNL     1      27.468  42.306  51.810  1.00  0.00     0.086 A 
HETATM   14  C   UNL     1      27.154  41.081  51.252  1.00  0.00     0.052 A 
HETATM   15  C   UNL     1      25.965  40.590  50.517  1.00  0.00     0.072 C 
HETATM   16  N   UNL     1      28.244  40.286  51.463  1.00  0.00    -0.280 N 
HETATM   17  H   UNL     1      28.384  39.324  51.173  1.00  0.00     0.189 HD
HETATM   18  N   UNL     1      29.225  40.883  52.145  1.00  0.00    -0.177 NA
HETATM   19  C   UNL     1      28.766  42.123  52.371  1.00  0.00     0.079 A 
HETATM   20  C   UNL     1      29.611  43.051  53.166  1.00  0.00     0.075 C 
ENDBRANCH   9  13
ENDBRANCH   1   7
BRANCH   4  21
HETATM   21  C   UNL     1      22.846  49.239  47.994  1.00  0.00     0.252 C 
HETATM   22  N   UNL     1      21.508  49.387  48.298  1.00  0.00    -0.352 N 
HETATM   23  H   UNL     1      21.100  48.805  49.017  1.00  0.00     0.163 HD
HETATM   24  O   UNL     1      23.460  49.982  47.238  1.00  0.00    -0.268 OA
BRANCH  22  25
HETATM   25  C   UNL     1      20.696  50.462  47.741  1.00  0.00     0.084 C 
HETATM   26  C   UNL     1      19.310  49.960  47.314  1.00  0.00     0.025 C 
HETATM   27  C   UNL     1      18.419  49.615  48.506  1.00  0.00     0.002 C 
HETATM   28  C   UNL     1      18.303  50.784  49.479  1.00  0.00     0.000 C 
HETATM   29  C   UNL     1      19.673  51.279  49.933  1.00  0.00     0.002 C 
HETATM   30  C   UNL     1      20.573  51.619  48.745  1.00  0.00     0.025 C 
ENDBRANCH  22  25
ENDBRANCH   4  21
TORSDOF 4
ENDMDL
MODEL 3
REMARK VINA RESULT:      -8.1      4.039      7.433
REMARK  4 active torsions:
REMARK  status: ('A' for Active; 'I' for Inactive)
REMARK    1  A    between atoms: C_8  and  N_9 
REMARK       I    between atoms: N_9  and  C_10 
REMARK       I    between atoms: C_10  and  N_11 
REMARK    2  A    between atoms: N_11  and  C_12 
REMARK    3  A    between atoms: C_15  and  C_16 
REMARK       I    between atoms: C_16  and  N_17 
REMARK    4  A    between atoms: N_17  and  C_18 
ROOT
HETATM    1  C   UNL     1      20.185  50.347  49.399  1.00  0.00     0.036 A 
HETATM    2  C   UNL     1      20.232  51.388  48.469  1.00  0.00     0.030 A 
HETATM    3  C   UNL     1      19.102  52.177  48.226  1.00  0.00     0.019 A 
HETATM    4  C   UNL     1      17.906  51.919  48.901  1.00  0.00     0.032 A 
HETATM    5  C   UNL     1      17.867  50.910  49.867  1.00  0.00     0.019 A 
HETATM    6  C   UNL     1      19.000  50.127  50.112  1.00  0.00     0.030 A 
ENDROOT
BRANCH   1   7
HETATM    7  N   UNL     1      21.250  49.452  49.626  1.00  0.00    -0.309 N 
HETATM    8  C   UNL     1      22.609  49.733  49.607  1.00  0.00     0.325 C 
HETATM    9  N   UNL     1      23.332  48.554  49.537  1.00  0.00    -0.305 N 
HETATM   10  O   UNL     1      23.092  50.856  49.610  1.00  0.00    -0.247 OA
HETATM   11  H   UNL     1      22.837  47.758  49.167  1.00  0.00     0.171 HD
HETATM   12  H   UNL     1      21.000  48.521  49.922  1.00  0.00     0.170 HD
BRANCH   9  13
HETATM   13  C   UNL     1      24.712  48.436  49.559  1.00  0.00     0.086 A 
HETATM   14  C   UNL     1      25.359  47.575  50.425  1.00  0.00     0.052 A 
HETATM   15  C   UNL     1      24.863  46.620  51.444  1.00  0.00     0.072 C 
HETATM   16  N   UNL     1      26.691  47.710  50.158  1.00  0.00    -0.280 N 
HETATM   17  H   UNL     1      27.469  47.219  50.586  1.00  0.00     0.189 HD
HETATM   18  N   UNL     1      26.964  48.616  49.216  1.00  0.00    -0.177 NA
HETATM   19  C   UNL     1      25.763  49.076  48.838  1.00  0.00     0.079 A 
HETATM   20  C   UNL     1      25.712  50.154  47.817  1.00  0.00     0.075 C 
ENDBRANCH   9  13
ENDBRANCH   1   7
BRANCH   4  21
HETATM   21  C   UNL     1      16.654  52.669  48.607  1.00  0.00     0.252 C 
HETATM   22  N   UNL     1      16.303  53.633  49.531  1.00  0.00    -0.352 N 
HETATM   23  H   UNL     1      16.926  53.824  50.302  1.00  0.00     0.163 HD
HETATM   24  O   UNL     1      16.034  52.458  47.572  1.00  0.00    -0.268 OA
BRANCH  22  25
HETATM   25  C   UNL     1      15.146  54.502  49.349  1.00  0.00     0.084 C 
HETATM   26  C   UNL     1      13.846  53.807  49.775  1.00  0.00     0.025 C 
HETATM   27  C   UNL     1      13.744  53.631  51.289  1.00  0.00     0.002 C 
HETATM   28  C   UNL     1      13.925  54.954  52.024  1.00  0.00     0.000 C 
HETATM   29  C   UNL     1      15.226  55.646  51.631  1.00  0.00     0.002 C 
HETATM   30  C   UNL     1      15.339  55.819  50.116  1.00  0.00     0.025 C 
ENDBRANCH  22  25
ENDBRANCH   4  21
TORSDOF 4
ENDMDL
MODEL 4
REMARK VINA RESULT:      -8.0      3.852      6.674
REMARK  4 active torsions:
REMARK  status: ('A' for Active; 'I' for Inactive)
REMARK    1  A    between atoms: C_8  and  N_9 
REMARK       I    between atoms: N_9  and  C_10 
REMARK       I    between atoms: C_10  and  N_11 
REMARK    2  A    between atoms: N_11  and  C_12 
REMARK    3  A    between atoms: C_15  and  C_16 
REMARK       I    between atoms: C_16  and  N_17 
REMARK    4  A    between atoms: N_17  and  C_18 
ROOT
HETATM    1  C   UNL     1      20.796  50.572  49.630  1.00  0.00     0.036 A 
HETATM    2  C   UNL     1      20.777  51.517  48.602  1.00  0.00     0.030 A 
HETATM    3  C   UNL     1      19.591  52.180  48.264  1.00  0.00     0.019 A 
HETATM    4  C   UNL     1      18.405  51.888  48.944  1.00  0.00     0.032 A 
HETATM    5  C   UNL     1      18.428  50.979  50.005  1.00  0.00     0.019 A 
HETATM    6  C   UNL     1      19.616  50.323  50.343  1.00  0.00     0.030 A 
ENDROOT
BRANCH   1   7
HETATM    7  N   UNL     1      21.926  49.797  49.960  1.00  0.00    -0.309 N 
HETATM    8  C   UNL     1      22.425  48.697  49.278  1.00  0.00     0.325 C 
HETATM    9  N   UNL     1      23.322  48.013  50.082  1.00  0.00    -0.305 N 
HETATM   10  O   UNL     1      22.088  48.360  48.152  1.00  0.00    -0.247 OA
HETATM   11  H   UNL     1      23.224  48.162  51.073  1.00  0.00     0.171 HD
HETATM   12  H   UNL     1      22.489  50.128  50.729  1.00  0.00     0.170 HD
BRANCH   9  13
HETATM   13  C   UNL     1      24.063  46.900  49.719  1.00  0.00     0.086 A 
HETATM   14  C   UNL     1      25.445  46.903  49.740  1.00  0.00     0.052 A 
HETATM   15  C   UNL     1      26.438  47.933  50.122  1.00  0.00     0.072 C 
HETATM   16  N   UNL     1      25.826  45.653  49.344  1.00  0.00    -0.280 N 
HETATM   17  H   UNL     1      26.766  45.281  49.259  1.00  0.00     0.189 HD
HETATM   18  N   UNL     1      24.805  44.851  49.031  1.00  0.00    -0.177 NA
HETATM   19  C   UNL     1      23.714  45.599  49.251  1.00  0.00     0.079 A 
HETATM   20  C   UNL     1      22.384  45.010  48.948  1.00  0.00     0.075 C 
ENDBRANCH   9  13
ENDBRANCH   1   7
BRANCH   4  21
HETATM   21  C   UNL     1      17.102  52.496  48.559  1.00  0.00     0.252 C 
HETATM   22  N   UNL     1      16.600  53.439  49.433  1.00  0.00    -0.352 N 
HETATM   23  H   UNL     1      17.154  53.712  50.232  1.00  0.00     0.163 HD
HETATM   24  O   UNL     1      16.569  52.198  47.497  1.00  0.00    -0.268 OA
BRANCH  22  25
HETATM   25  C   UNL     1      15.373  54.179  49.162  1.00  0.00     0.084 C 
HETATM   26  C   UNL     1      14.128  53.368  49.548  1.00  0.00     0.025 C 
HETATM   27  C   UNL     1      13.964  53.230  51.060  1.00  0.00     0.002 C 
HETATM   28  C   UNL     1      13.971  54.589  51.753  1.00  0.00     0.000 C 
HETATM   29  C   UNL     1      15.215  55.397  51.399  1.00  0.00     0.002 C 
HETATM   30  C   UNL     1      15.390  55.533  49.887  1.00  0.00     0.025 C 
ENDBRANCH  22  25
ENDBRANCH   4  21
TORSDOF 4
ENDMDL
MODEL 5
REMARK VINA RESULT:      -8.0     11.445     14.702
REMARK  4 active torsions:
REMARK  status: ('A' for Active; 'I' for Inactive)
REMARK    1  A    between atoms: C_8  and  N_9 
REMARK       I    between atoms: N_9  and  C_10 
REMARK       I    between atoms: C_10  and  N_11 
REMARK    2  A    between atoms: N_11  and  C_12 
REMARK    3  A    between atoms: C_15  and  C_16 
REMARK       I    between atoms: C_16  and  N_17 
REMARK    4  A    between atoms: N_17  and  C_18 
ROOT
HETATM    1  C   UNL     1      32.845  50.518  42.808  1.00  0.00     0.036 A 
HETATM    2  C   UNL     1      33.866  50.111  41.946  1.00  0.00     0.030 A 
HETATM    3  C   UNL     1      35.141  50.683  42.031  1.00  0.00     0.019 A 
HETATM    4  C   UNL     1      35.401  51.682  42.972  1.00  0.00     0.032 A 
HETATM    5  C   UNL     1      34.397  52.059  43.869  1.00  0.00     0.019 A 
HETATM    6  C   UNL     1      33.126  51.482  43.784  1.00  0.00     0.030 A 
ENDROOT
BRANCH   1   7
HETATM    7  N   UNL     1      31.515  50.060  42.718  1.00  0.00    -0.309 N 
HETATM    8  C   UNL     1      30.640  50.210  41.651  1.00  0.00     0.325 C 
HETATM    9  N   UNL     1      29.346  49.935  42.062  1.00  0.00    -0.305 N 
HETATM   10  O   UNL     1      30.960  50.573  40.528  1.00  0.00    -0.247 OA
HETATM   11  H   UNL     1      29.173  50.022  43.051  1.00  0.00     0.171 HD
HETATM   12  H   UNL     1      31.186  49.481  43.475  1.00  0.00     0.170 HD
BRANCH   9  13
HETATM   13  C   UNL     1      28.217  49.923  41.260  1.00  0.00     0.086 A 
HETATM   14  C   UNL     1      27.532  51.082  40.946  1.00  0.00     0.052 A 
HETATM   15  C   UNL     1      27.760  52.505  41.290  1.00  0.00     0.072 C 
HETATM   16  N   UNL     1      26.501  50.697  40.137  1.00  0.00    -0.280 N 
HETATM   17  H   UNL     1      25.799  51.280  39.695  1.00  0.00     0.189 HD
HETATM   18  N   UNL     1      26.438  49.379  39.933  1.00  0.00    -0.177 NA
HETATM   19  C   UNL     1      27.481  48.885  40.617  1.00  0.00     0.079 A 
HETATM   20  C   UNL     1      27.675  47.413  40.638  1.00  0.00     0.075 C 
ENDBRANCH   9  13
ENDBRANCH   1   7
BRANCH   4  21
HETATM   21  C   UNL     1      36.712  52.385  43.038  1.00  0.00     0.252 C 
HETATM   22  N   UNL     1      37.222  52.582  44.305  1.00  0.00    -0.352 N 
HETATM   23  H   UNL     1      36.731  52.195  45.099  1.00  0.00     0.163 HD
HETATM   24  O   UNL     1      37.299  52.699  42.010  1.00  0.00    -0.268 OA
BRANCH  22  25
HETATM   25  C   UNL     1      38.528  53.188  44.534  1.00  0.00     0.084 C 
HETATM   26  C   UNL     1      38.442  54.720  44.570  1.00  0.00     0.025 C 
HETATM   27  C   UNL     1      37.743  55.239  45.826  1.00  0.00     0.002 C 
HETATM   28  C   UNL     1      38.391  54.696  47.095  1.00  0.00     0.000 C 
HETATM   29  C   UNL     1      38.462  53.172  47.086  1.00  0.00     0.002 C 
HETATM   30  C   UNL     1      39.153  52.646  45.828  1.00  0.00     0.025 C 
ENDBRANCH  22  25
ENDBRANCH   4  21
TORSDOF 4
ENDMDL
MODEL 6
REMARK VINA RESULT:      -8.0      1.953      2.425
REMARK  4 active torsions:
REMARK  status: ('A' for Active; 'I' for Inactive)
REMARK    1  A    between atoms: C_8  and  N_9 
REMARK       I    between atoms: N_9  and  C_10 
REMARK       I    between atoms: C_10  and  N_11 
REMARK    2  A    between atoms: N_11  and  C_12 
REMARK    3  A    between atoms: C_15  and  C_16 
REMARK       I    between atoms: C_16  and  N_17 
REMARK    4  A    between atoms: N_17  and  C_18 
ROOT
HETATM    1  C   UNL     1      24.969  45.865  49.816  1.00  0.00     0.036 A 
HETATM    2  C   UNL     1      24.711  47.226  49.988  1.00  0.00     0.030 A 
HETATM    3  C   UNL     1      23.586  47.818  49.403  1.00  0.00     0.019 A 
HETATM    4  C   UNL     1      22.714  47.052  48.623  1.00  0.00     0.032 A 
HETATM    5  C   UNL     1      22.942  45.680  48.487  1.00  0.00     0.019 A 
HETATM    6  C   UNL     1      24.065  45.091  49.078  1.00  0.00     0.030 A 
ENDROOT
BRANCH   1   7
HETATM    7  N   UNL     1      26.130  45.222  50.292  1.00  0.00    -0.309 N 
HETATM    8  C   UNL     1      26.297  44.569  51.506  1.00  0.00     0.325 C 
HETATM    9  N   UNL     1      27.646  44.371  51.750  1.00  0.00    -0.305 N 
HETATM   10  O   UNL     1      25.390  44.256  52.263  1.00  0.00    -0.247 OA
HETATM   11  H   UNL     1      28.275  44.988  51.262  1.00  0.00     0.171 HD
HETATM   12  H   UNL     1      26.901  45.149  49.646  1.00  0.00     0.170 HD
BRANCH   9  13
HETATM   13  C   UNL     1      28.192  43.701  52.833  1.00  0.00     0.086 A 
HETATM   14  C   UNL     1      28.424  44.332  54.041  1.00  0.00     0.052 A 
HETATM   15  C   UNL     1      28.182  45.715  54.511  1.00  0.00     0.072 C 
HETATM   16  N   UNL     1      28.944  43.375  54.866  1.00  0.00    -0.280 N 
HETATM   17  H   UNL     1      29.218  43.467  55.838  1.00  0.00     0.189 HD
HETATM   18  N   UNL     1      29.102  42.185  54.281  1.00  0.00    -0.177 NA
HETATM   19  C   UNL     1      28.650  42.365  53.031  1.00  0.00     0.079 A 
HETATM   20  C   UNL     1      28.731  41.225  52.082  1.00  0.00     0.075 C 
ENDBRANCH   9  13
ENDBRANCH   1   7
BRANCH   4  21
HETATM   21  C   UNL     1      21.559  47.655  47.904  1.00  0.00     0.252 C 
HETATM   22  N   UNL     1      20.771  48.510  48.648  1.00  0.00    -0.352 N 
HETATM   23  H   UNL     1      21.045  48.732  49.595  1.00  0.00     0.163 HD
HETATM   24  O   UNL     1      21.384  47.429  46.713  1.00  0.00    -0.268 OA
BRANCH  22  25
HETATM   25  C   UNL     1      19.647  49.236  48.070  1.00  0.00     0.084 C 
HETATM   26  C   UNL     1      18.503  49.403  49.079  1.00  0.00     0.025 C 
HETATM   27  C   UNL     1      18.843  50.391  50.193  1.00  0.00     0.002 C 
HETATM   28  C   UNL     1      19.283  51.740  49.635  1.00  0.00     0.000 C 
HETATM   29  C   UNL     1      20.437  51.594  48.648  1.00  0.00     0.002 C 
HETATM   30  C   UNL     1      20.106  50.601  47.534  1.00  0.00     0.025 C 
ENDBRANCH  22  25
ENDBRANCH   4  21
TORSDOF 4
ENDMDL
MODEL 7
REMARK VINA RESULT:      -7.9      2.152      2.974
REMARK  4 active torsions:
REMARK  status: ('A' for Active; 'I' for Inactive)
REMARK    1  A    between atoms: C_8  and  N_9 
REMARK       I    between atoms: N_9  and  C_10 
REMARK       I    between atoms: C_10  and  N_11 
REMARK    2  A    between atoms: N_11  and  C_12 
REMARK    3  A    between atoms: C_15  and  C_16 
REMARK       I    between atoms: C_16  and  N_17 
REMARK    4  A    between atoms: N_17  and  C_18 
ROOT
HETATM    1  C   UNL     1      23.873  45.470  49.158  1.00  0.00     0.036 A 
HETATM    2  C   UNL     1      23.802  46.851  49.356  1.00  0.00     0.030 A 
HETATM    3  C   UNL     1      22.707  47.584  48.882  1.00  0.00     0.019 A 
HETATM    4  C   UNL     1      21.679  46.941  48.187  1.00  0.00     0.032 A 
HETATM    5  C   UNL     1      21.722  45.553  48.028  1.00  0.00     0.019 A 
HETATM    6  C   UNL     1      22.815  44.823  48.508  1.00  0.00     0.030 A 
ENDROOT
BRANCH   1   7
HETATM    7  N   UNL     1      24.985  44.684  49.521  1.00  0.00    -0.309 N 
HETATM    8  C   UNL     1      25.134  43.904  50.659  1.00  0.00     0.325 C 
HETATM    9  N   UNL     1      26.466  43.564  50.825  1.00  0.00    -0.305 N 
HETATM   10  O   UNL     1      24.228  43.599  51.421  1.00  0.00    -0.247 OA
HETATM   11  H   UNL     1      27.132  44.168  50.371  1.00  0.00     0.171 HD
HETATM   12  H   UNL     1      25.724  44.608  48.838  1.00  0.00     0.170 HD
BRANCH   9  13
HETATM   13  C   UNL     1      26.985  42.746  51.815  1.00  0.00     0.086 A 
HETATM   14  C   UNL     1      27.005  41.369  51.689  1.00  0.00     0.052 A 
HETATM   15  C   UNL     1      26.567  40.455  50.608  1.00  0.00     0.072 C 
HETATM   16  N   UNL     1      27.594  40.900  52.828  1.00  0.00    -0.280 N 
HETATM   17  H   UNL     1      27.797  39.939  53.080  1.00  0.00     0.189 HD
HETATM   18  N   UNL     1      27.923  41.858  53.700  1.00  0.00    -0.177 NA
HETATM   19  C   UNL     1      27.554  42.997  53.098  1.00  0.00     0.079 A 
HETATM   20  C   UNL     1      27.740  44.274  53.834  1.00  0.00     0.075 C 
ENDBRANCH   9  13
ENDBRANCH   1   7
BRANCH   4  21
HETATM   21  C   UNL     1      20.544  47.690  47.583  1.00  0.00     0.252 C 
HETATM   22  N   UNL     1      19.980  48.666  48.378  1.00  0.00    -0.352 N 
HETATM   23  H   UNL     1      20.393  48.867  49.278  1.00  0.00     0.163 HD
HETATM   24  O   UNL     1      20.199  47.467  46.429  1.00  0.00    -0.268 OA
BRANCH  22  25
HETATM   25  C   UNL     1      18.909  49.536  47.904  1.00  0.00     0.084 C 
HETATM   26  C   UNL     1      17.847  49.767  48.989  1.00  0.00     0.025 C 
HETATM   27  C   UNL     1      18.354  50.652  50.126  1.00  0.00     0.002 C 
HETATM   28  C   UNL     1      18.904  51.976  49.606  1.00  0.00     0.000 C 
HETATM   29  C   UNL     1      19.979  51.763  48.545  1.00  0.00     0.002 C 
HETATM   30  C   UNL     1      19.482  50.872  47.407  1.00  0.00     0.025 C 
ENDBRANCH  22  25
ENDBRANCH   4  21
TORSDOF 4
ENDMDL
MODEL 8
REMARK VINA RESULT:      -7.8      2.220      9.926
REMARK  4 active torsions:
REMARK  status: ('A' for Active; 'I' for Inactive)
REMARK    1  A    between atoms: C_8  and  N_9 
REMARK       I    between atoms: N_9  and  C_10 
REMARK       I    between atoms: C_10  and  N_11 
REMARK    2  A    between atoms: N_11  and  C_12 
REMARK    3  A    between atoms: C_15  and  C_16 
REMARK       I    between atoms: C_16  and  N_17 
REMARK    4  A    between atoms: N_17  and  C_18 
ROOT
HETATM    1  C   UNL     1      23.567  44.969  49.342  1.00  0.00     0.036 A 
HETATM    2  C   UNL     1      24.950  45.106  49.198  1.00  0.00     0.030 A 
HETATM    3  C   UNL     1      25.820  44.150  49.735  1.00  0.00     0.019 A 
HETATM    4  C   UNL     1      25.314  43.053  50.438  1.00  0.00     0.032 A 
HETATM    5  C   UNL     1      23.930  42.886  50.544  1.00  0.00     0.019 A 
HETATM    6  C   UNL     1      23.063  43.841  50.002  1.00  0.00     0.030 A 
ENDROOT
BRANCH   1   7
HETATM    7  N   UNL     1      22.636  45.936  48.915  1.00  0.00    -0.309 N 
HETATM    8  C   UNL     1      22.611  47.286  49.239  1.00  0.00     0.325 C 
HETATM    9  N   UNL     1      21.378  47.824  48.913  1.00  0.00    -0.305 N 
HETATM   10  O   UNL     1      23.528  47.895  49.770  1.00  0.00    -0.247 OA
HETATM   11  H   UNL     1      20.617  47.167  48.845  1.00  0.00     0.171 HD
HETATM   12  H   UNL     1      21.961  45.638  48.228  1.00  0.00     0.170 HD
BRANCH   9  13
HETATM   13  C   UNL     1      21.005  49.153  49.037  1.00  0.00     0.086 A 
HETATM   14  C   UNL     1      19.893  49.536  49.764  1.00  0.00     0.052 A 
HETATM   15  C   UNL     1      18.898  48.770  50.550  1.00  0.00     0.072 C 
HETATM   16  N   UNL     1      19.847  50.898  49.682  1.00  0.00    -0.280 N 
HETATM   17  H   UNL     1      19.178  51.529  50.109  1.00  0.00     0.189 HD
HETATM   18  N   UNL     1      20.815  51.428  48.930  1.00  0.00    -0.177 NA
HETATM   19  C   UNL     1      21.535  50.373  48.522  1.00  0.00     0.079 A 
HETATM   20  C   UNL     1      22.682  50.614  47.610  1.00  0.00     0.075 C 
ENDBRANCH   9  13
ENDBRANCH   1   7
BRANCH   4  21
HETATM   21  C   UNL     1      26.201  42.063  51.106  1.00  0.00     0.252 C 
HETATM   22  N   UNL     1      26.947  42.545  52.163  1.00  0.00    -0.352 N 
HETATM   23  H   UNL     1      26.811  43.499  52.466  1.00  0.00     0.163 HD
HETATM   24  O   UNL     1      26.199  40.890  50.752  1.00  0.00    -0.268 OA
BRANCH  22  25
HETATM   25  C   UNL     1      27.808  41.684  52.966  1.00  0.00     0.084 C 
HETATM   26  C   UNL     1      29.252  41.688  52.448  1.00  0.00     0.025 C 
HETATM   27  C   UNL     1      29.967  43.012  52.714  1.00  0.00     0.002 C 
HETATM   28  C   UNL     1      29.911  43.395  54.189  1.00  0.00     0.000 C 
HETATM   29  C   UNL     1      28.479  43.421  54.713  1.00  0.00     0.002 C 
HETATM   30  C   UNL     1      27.755  42.101  54.444  1.00  0.00     0.025 C 
ENDBRANCH  22  25
ENDBRANCH   4  21
TORSDOF 4
ENDMDL
MODEL 9
REMARK VINA RESULT:      -7.7     12.295     13.911
REMARK  4 active torsions:
REMARK  status: ('A' for Active; 'I' for Inactive)
REMARK    1  A    between atoms: C_8  and  N_9 
REMARK       I    between atoms: N_9  and  C_10 
REMARK       I    between atoms: C_10  and  N_11 
REMARK    2  A    between atoms: N_11  and  C_12 
REMARK    3  A    between atoms: C_15  and  C_16 
REMARK       I    between atoms: C_16  and  N_17 
REMARK    4  A    between atoms: N_17  and  C_18 
ROOT
HETATM    1  C   UNL     1      34.756  52.095  43.785  1.00  0.00     0.036 A 
HETATM    2  C   UNL     1      33.609  52.118  44.582  1.00  0.00     0.030 A 
HETATM    3  C   UNL     1      32.478  51.374  44.225  1.00  0.00     0.019 A 
HETATM    4  C   UNL     1      32.479  50.612  43.054  1.00  0.00     0.032 A 
HETATM    5  C   UNL     1      33.640  50.547  42.278  1.00  0.00     0.019 A 
HETATM    6  C   UNL     1      34.770  51.287  42.641  1.00  0.00     0.030 A 
ENDROOT
BRANCH   1   7
HETATM    7  N   UNL     1      35.894  52.891  44.028  1.00  0.00    -0.309 N 
HETATM    8  C   UNL     1      37.109  52.487  44.563  1.00  0.00     0.325 C 
HETATM    9  N   UNL     1      37.840  53.595  44.958  1.00  0.00    -0.305 N 
HETATM   10  O   UNL     1      37.460  51.324  44.703  1.00  0.00    -0.247 OA
HETATM   11  H   UNL     1      37.306  54.431  45.138  1.00  0.00     0.171 HD
HETATM   12  H   UNL     1      35.856  53.842  43.696  1.00  0.00     0.170 HD
BRANCH   9  13
HETATM   13  C   UNL     1      39.123  53.586  45.480  1.00  0.00     0.086 A 
HETATM   14  C   UNL     1      39.360  53.689  46.838  1.00  0.00     0.052 A 
HETATM   15  C   UNL     1      38.457  53.802  48.007  1.00  0.00     0.072 C 
HETATM   16  N   UNL     1      40.716  53.629  46.984  1.00  0.00    -0.280 N 
HETATM   17  H   UNL     1      41.256  53.653  47.843  1.00  0.00     0.189 HD
HETATM   18  N   UNL     1      41.381  53.533  45.830  1.00  0.00    -0.177 NA
HETATM   19  C   UNL     1      40.421  53.509  44.894  1.00  0.00     0.079 A 
HETATM   20  C   UNL     1      40.830  53.456  43.467  1.00  0.00     0.075 C 
ENDBRANCH   9  13
ENDBRANCH   1   7
BRANCH   4  21
HETATM   21  C   UNL     1      31.271  49.880  42.585  1.00  0.00     0.252 C 
HETATM   22  N   UNL     1      30.398  50.607  41.801  1.00  0.00    -0.352 N 
HETATM   23  H   UNL     1      30.645  51.550  41.535  1.00  0.00     0.163 HD
HETATM   24  O   UNL     1      31.124  48.693  42.848  1.00  0.00    -0.268 OA
BRANCH  22  25
HETATM   25  C   UNL     1      29.208  50.014  41.202  1.00  0.00     0.084 C 
HETATM   26  C   UNL     1      27.980  50.920  41.370  1.00  0.00     0.025 C 
HETATM   27  C   UNL     1      28.054  52.174  40.500  1.00  0.00     0.002 C 
HETATM   28  C   UNL     1      28.285  51.828  39.033  1.00  0.00     0.000 C 
HETATM   29  C   UNL     1      29.516  50.948  38.846  1.00  0.00     0.002 C 
HETATM   30  C   UNL     1      29.454  49.695  39.720  1.00  0.00     0.025 C 
ENDBRANCH  22  25
ENDBRANCH   4  21
TORSDOF 4
ENDMDL
MODEL 10
REMARK VINA RESULT:      -7.7      5.648      9.563
REMARK  4 active torsions:
REMARK  status: ('A' for Active; 'I' for Inactive)
REMARK    1  A    between atoms: C_8  and  N_9 
REMARK       I    between atoms: N_9  and  C_10 
REMARK       I    between atoms: C_10  and  N_11 
REMARK    2  A    between atoms: N_11  and  C_12 
REMARK    3  A    between atoms: C_15  and  C_16 
REMARK       I    between atoms: C_16  and  N_17 
REMARK    4  A    between atoms: N_17  and  C_18 
ROOT
HETATM    1  C   UNL     1      17.715  51.292  48.660  1.00  0.00     0.036 A 
HETATM    2  C   UNL     1      16.386  50.877  48.545  1.00  0.00     0.030 A 
HETATM    3  C   UNL     1      15.358  51.603  49.158  1.00  0.00     0.019 A 
HETATM    4  C   UNL     1      15.653  52.744  49.908  1.00  0.00     0.032 A 
HETATM    5  C   UNL     1      16.975  53.191  49.986  1.00  0.00     0.019 A 
HETATM    6  C   UNL     1      18.000  52.466  49.368  1.00  0.00     0.030 A 
ENDROOT
BRANCH   1   7
HETATM    7  N   UNL     1      18.809  50.562  48.154  1.00  0.00    -0.309 N 
HETATM    8  C   UNL     1      19.707  49.781  48.868  1.00  0.00     0.325 C 
HETATM    9  N   UNL     1      20.818  49.510  48.088  1.00  0.00    -0.305 N 
HETATM   10  O   UNL     1      19.555  49.424  50.028  1.00  0.00    -0.247 OA
HETATM   11  H   UNL     1      20.989  50.151  47.330  1.00  0.00     0.171 HD
HETATM   12  H   UNL     1      18.903  50.529  47.150  1.00  0.00     0.170 HD
BRANCH   9  13
HETATM   13  C   UNL     1      21.893  48.712  48.443  1.00  0.00     0.086 A 
HETATM   14  C   UNL     1      23.136  49.245  48.729  1.00  0.00     0.052 A 
HETATM   15  C   UNL     1      23.645  50.636  48.768  1.00  0.00     0.072 C 
HETATM   16  N   UNL     1      23.932  48.182  49.050  1.00  0.00    -0.280 N 
HETATM   17  H   UNL     1      24.905  48.191  49.335  1.00  0.00     0.189 HD
HETATM   18  N   UNL     1      23.317  47.000  48.959  1.00  0.00    -0.177 NA
HETATM   19  C   UNL     1      22.066  47.303  48.584  1.00  0.00     0.079 A 
HETATM   20  C   UNL     1      21.115  46.188  48.341  1.00  0.00     0.075 C 
ENDBRANCH   9  13
ENDBRANCH   1   7
BRANCH   4  21
HETATM   21  C   UNL     1      14.606  53.493  50.654  1.00  0.00     0.252 C 
HETATM   22  N   UNL     1      14.840  54.843  50.822  1.00  0.00    -0.352 N 
HETATM   23  H   UNL     1      15.652  55.259  50.387  1.00  0.00     0.163 HD
HETATM   24  O   UNL     1      13.586  52.927  51.028  1.00  0.00    -0.268 OA
BRANCH  22  25
HETATM   25  C   UNL     1      13.877  55.728  51.466  1.00  0.00     0.084 C 
HETATM   26  C   UNL     1      14.074  55.766  52.988  1.00  0.00     0.025 C 
HETATM   27  C   UNL     1      15.347  56.505  53.395  1.00  0.00     0.002 C 
HETATM   28  C   UNL     1      15.399  57.908  52.800  1.00  0.00     0.000 C 
HETATM   29  C   UNL     1      15.229  57.885  51.284  1.00  0.00     0.002 C 
HETATM   30  C   UNL     1      13.961  57.140  50.868  1.00  0.00     0.025 C 
ENDBRANCH  22  25
ENDBRANCH   4  21
TORSDOF 4
ENDMDL
