MODEL 1
REMARK VINA RESULT:      -9.8      0.000      0.000
REMARK  8 active torsions:
REMARK  status: ('A' for Active; 'I' for Inactive)
REMARK    1  A    between atoms: C_2  and  C_3 
REMARK    2  A    between atoms: C_3  and  C_4 
REMARK    3  A    between atoms: C_7  and  N_8 
REMARK       I    between atoms: N_8  and  C_9 
REMARK    4  A    between atoms: C_9  and  C_10 
REMARK    5  A    between atoms: C_13  and  N_14 
REMARK       I    between atoms: N_14  and  C_15 
REMARK    6  A    between atoms: C_15  and  C_16 
REMARK    7  A    between atoms: C_16  and  C_17 
REMARK    8  A    between atoms: C_19  and  N_20 
ROOT
HETATM    1  C   UNL     1      25.470  44.614  50.934  1.00  0.00     0.032 A 
HETATM    2  C   UNL     1      24.541  43.573  50.838  1.00  0.00     0.019 A 
HETATM    3  C   UNL     1      23.321  43.769  50.176  1.00  0.00     0.030 A 
HETATM    4  C   UNL     1      23.014  44.996  49.583  1.00  0.00     0.034 A 
HETATM    5  C   UNL     1      23.957  46.028  49.653  1.00  0.00     0.030 A 
HETATM    6  C   UNL     1      25.172  45.840  50.324  1.00  0.00     0.019 A 
ENDROOT
BRANCH   4   7
HETATM    7  N   UNL     1      21.810  45.263  48.894  1.00  0.00    -0.327 N 
HETATM    8  C   UNL     1      21.591  45.170  47.530  1.00  0.00     0.223 C 
HETATM    9  O   UNL     1      22.417  44.833  46.690  1.00  0.00    -0.273 OA
HETATM   10  H   UNL     1      21.017  45.509  49.473  1.00  0.00     0.169 HD
BRANCH   8  11
HETATM   11  C   UNL     1      20.185  45.592  47.134  1.00  0.00     0.128 C 
BRANCH  11  12
HETATM   12  C   UNL     1      19.545  46.440  48.227  1.00  0.00     0.158 C 
HETATM   13  S   UNL     1      19.821  48.220  47.968  1.00  0.00    -0.077 SA
HETATM   14  C   UNL     1      18.184  48.550  48.518  1.00  0.00     0.168 C 
HETATM   15  N   UNL     1      17.413  47.517  48.620  1.00  0.00    -0.189 NA
HETATM   16  C   UNL     1      18.032  46.340  48.261  1.00  0.00     0.260 C 
HETATM   17  O   UNL     1      17.428  45.297  48.046  1.00  0.00    -0.270 OA
BRANCH  14  18
HETATM   18  N   UNL     1      17.840  49.837  48.862  1.00  0.00    -0.360 N 
HETATM   19  C   UNL     1      18.407  50.544  50.014  1.00  0.00     0.125 C 
HETATM   20  C   UNL     1      19.504  51.499  49.537  1.00  0.00     0.020 C 
HETATM   21  C   UNL     1      18.983  52.456  48.466  1.00  0.00     0.003 C 
HETATM   22  C   UNL     1      18.324  51.688  47.322  1.00  0.00     0.020 C 
HETATM   23  C   UNL     1      17.261  50.730  47.852  1.00  0.00     0.125 C 
ENDBRANCH  14  18
ENDBRANCH  11  12
ENDBRANCH   8  11
ENDBRANCH   4   7
BRANCH   1  24
HETATM   24  C   UNL     1      26.789  44.471  51.630  1.00  0.00     0.256 C 
HETATM   25  N   UNL     1      26.753  44.538  53.012  1.00  0.00    -0.323 N 
HETATM   26  H   UNL     1      25.865  44.745  53.447  1.00  0.00     0.169 HD
HETATM   27  O   UNL     1      27.790  44.334  50.936  1.00  0.00    -0.267 OA
BRANCH  25  28
HETATM   28  C   UNL     1      27.840  44.426  53.907  1.00  0.00     0.035 A 
HETATM   29  C   UNL     1      28.653  43.299  54.017  1.00  0.00     0.030 A 
HETATM   30  C   UNL     1      29.724  43.275  54.922  1.00  0.00     0.010 A 
HETATM   31  C   UNL     1      30.010  44.381  55.732  1.00  0.00    -0.054 A 
HETATM   32  C   UNL     1      29.176  45.503  55.634  1.00  0.00     0.010 A 
HETATM   33  C   UNL     1      28.106  45.526  54.731  1.00  0.00     0.030 A 
BRANCH  31  34
HETATM   34  C   UNL     1      31.166  44.389  56.722  1.00  0.00     0.014 C 
HETATM   35  C   UNL     1      31.893  43.039  56.778  1.00  0.00     0.015 C 
BRANCH  34  36
HETATM   36  C   UNL     1      30.671  44.850  58.106  1.00  0.00     0.004 C 
HETATM   37  C   UNL     1      30.916  46.329  58.374  1.00  0.00     0.006 C 
ENDBRANCH  34  36
ENDBRANCH  31  34
ENDBRANCH  25  28
ENDBRANCH   1  24
TORSDOF 8
ENDMDL
MODEL 2
REMARK VINA RESULT:      -9.5      3.023     12.033
REMARK  8 active torsions:
REMARK  status: ('A' for Active; 'I' for Inactive)
REMARK    1  A    between atoms: C_2  and  C_3 
REMARK    2  A    between atoms: C_3  and  C_4 
REMARK    3  A    between atoms: C_7  and  N_8 
REMARK       I    between atoms: N_8  and  C_9 
REMARK    4  A    between atoms: C_9  and  C_10 
REMARK    5  A    between atoms: C_13  and  N_14 
REMARK       I    between atoms: N_14  and  C_15 
REMARK    6  A    between atoms: C_15  and  C_16 
REMARK    7  A    between atoms: C_16  and  C_17 
REMARK    8  A    between atoms: C_19  and  N_20 
ROOT
HETATM    1  C   UNL     1      23.466  46.182  49.233  1.00  0.00     0.032 A 
HETATM    2  C   UNL     1      23.378  44.857  48.794  1.00  0.00     0.019 A 
HETATM    3  C   UNL     1      24.147  43.855  49.402  1.00  0.00     0.030 A 
HETATM    4  C   UNL     1      25.000  44.152  50.469  1.00  0.00     0.034 A 
HETATM    5  C   UNL     1      25.064  45.472  50.927  1.00  0.00     0.030 A 
HETATM    6  C   UNL     1      24.307  46.479  50.314  1.00  0.00     0.019 A 
ENDROOT
BRANCH   4   7
HETATM    7  N   UNL     1      25.797  43.194  51.134  1.00  0.00    -0.327 N 
HETATM    8  C   UNL     1      27.171  43.224  51.302  1.00  0.00     0.223 C 
HETATM    9  O   UNL     1      27.927  44.101  50.898  1.00  0.00    -0.273 OA
HETATM   10  H   UNL     1      25.296  42.428  51.566  1.00  0.00     0.169 HD
BRANCH   8  11
HETATM   11  C   UNL     1      27.699  41.992  52.020  1.00  0.00     0.128 C 
BRANCH  11  12
HETATM   12  C   UNL     1      28.118  42.332  53.444  1.00  0.00     0.158 C 
HETATM   13  S   UNL     1      29.809  43.002  53.524  1.00  0.00    -0.077 SA
HETATM   14  C   UNL     1      29.294  44.145  54.756  1.00  0.00     0.168 C 
HETATM   15  N   UNL     1      28.015  44.251  54.918  1.00  0.00    -0.189 NA
HETATM   16  C   UNL     1      27.293  43.440  54.070  1.00  0.00     0.260 C 
HETATM   17  O   UNL     1      26.089  43.562  53.881  1.00  0.00    -0.270 OA
BRANCH  14  18
HETATM   18  N   UNL     1      30.246  44.798  55.504  1.00  0.00    -0.360 N 
HETATM   19  C   UNL     1      29.988  46.043  56.232  1.00  0.00     0.125 C 
HETATM   20  C   UNL     1      29.758  45.732  57.713  1.00  0.00     0.020 C 
HETATM   21  C   UNL     1      30.928  44.946  58.304  1.00  0.00     0.003 C 
HETATM   22  C   UNL     1      31.223  43.699  57.472  1.00  0.00     0.020 C 
HETATM   23  C   UNL     1      31.413  44.060  56.001  1.00  0.00     0.125 C 
ENDBRANCH  14  18
ENDBRANCH  11  12
ENDBRANCH   8  11
ENDBRANCH   4   7
BRANCH   1  24
HETATM   24  C   UNL     1      22.675  47.300  48.624  1.00  0.00     0.256 C 
HETATM   25  N   UNL     1      21.988  48.108  49.513  1.00  0.00    -0.323 N 
HETATM   26  H   UNL     1      22.010  47.852  50.490  1.00  0.00     0.169 HD
HETATM   27  O   UNL     1      22.673  47.399  47.402  1.00  0.00    -0.267 OA
BRANCH  25  28
HETATM   28  C   UNL     1      21.180  49.227  49.210  1.00  0.00     0.035 A 
HETATM   29  C   UNL     1      21.675  50.465  48.805  1.00  0.00     0.030 A 
HETATM   30  C   UNL     1      20.802  51.521  48.507  1.00  0.00     0.010 A 
HETATM   31  C   UNL     1      19.414  51.360  48.603  1.00  0.00    -0.054 A 
HETATM   32  C   UNL     1      18.923  50.121  49.034  1.00  0.00     0.010 A 
HETATM   33  C   UNL     1      19.795  49.067  49.331  1.00  0.00     0.030 A 
BRANCH  31  34
HETATM   34  C   UNL     1      18.440  52.486  48.285  1.00  0.00     0.014 C 
HETATM   35  C   UNL     1      17.524  52.815  49.471  1.00  0.00     0.015 C 
BRANCH  34  36
HETATM   36  C   UNL     1      17.650  52.153  47.005  1.00  0.00     0.004 C 
HETATM   37  C   UNL     1      16.152  52.009  47.238  1.00  0.00     0.006 C 
ENDBRANCH  34  36
ENDBRANCH  31  34
ENDBRANCH  25  28
ENDBRANCH   1  24
TORSDOF 8
ENDMDL
MODEL 3
REMARK VINA RESULT:      -9.2      1.746      2.526
REMARK  8 active torsions:
REMARK  status: ('A' for Active; 'I' for Inactive)
REMARK    1  A    between atoms: C_2  and  C_3 
REMARK    2  A    between atoms: C_3  and  C_4 
REMARK    3  A    between atoms: C_7  and  N_8 
REMARK       I    between atoms: N_8  and  C_9 
REMARK    4  A    between atoms: C_9  and  C_10 
REMARK    5  A    between atoms: C_13  and  N_14 
REMARK       I    between atoms: N_14  and  C_15 
REMARK    6  A    between atoms: C_15  and  C_16 
REMARK    7  A    between atoms: C_16  and  C_17 
REMARK    8  A    between atoms: C_19  and  N_20 
ROOT
HETATM    1  C   UNL     1      24.425  46.668  50.030  1.00  0.00     0.032 A 
HETATM    2  C   UNL     1      23.669  47.753  49.574  1.00  0.00     0.019 A 
HETATM    3  C   UNL     1      22.547  47.545  48.759  1.00  0.00     0.030 A 
HETATM    4  C   UNL     1      22.148  46.254  48.402  1.00  0.00     0.034 A 
HETATM    5  C   UNL     1      22.887  45.168  48.884  1.00  0.00     0.030 A 
HETATM    6  C   UNL     1      24.016  45.372  49.687  1.00  0.00     0.019 A 
ENDROOT
BRANCH   4   7
HETATM    7  N   UNL     1      21.027  45.968  47.592  1.00  0.00    -0.327 N 
HETATM    8  C   UNL     1      19.866  45.318  47.975  1.00  0.00     0.223 C 
HETATM    9  O   UNL     1      19.620  44.882  49.095  1.00  0.00    -0.273 OA
HETATM   10  H   UNL     1      21.069  46.317  46.643  1.00  0.00     0.169 HD
BRANCH   8  11
HETATM   11  C   UNL     1      18.893  45.132  46.822  1.00  0.00     0.128 C 
BRANCH  11  12
HETATM   12  C   UNL     1      18.208  46.447  46.472  1.00  0.00     0.158 C 
HETATM   13  S   UNL     1      17.795  47.423  47.952  1.00  0.00    -0.077 SA
HETATM   14  C   UNL     1      18.242  48.895  47.100  1.00  0.00     0.168 C 
HETATM   15  N   UNL     1      18.875  48.724  45.986  1.00  0.00    -0.189 NA
HETATM   16  C   UNL     1      19.089  47.397  45.683  1.00  0.00     0.260 C 
HETATM   17  O   UNL     1      19.873  47.019  44.822  1.00  0.00    -0.270 OA
BRANCH  14  18
HETATM   18  N   UNL     1      17.850  50.111  47.613  1.00  0.00    -0.360 N 
HETATM   19  C   UNL     1      17.095  50.256  48.860  1.00  0.00     0.125 C 
HETATM   20  C   UNL     1      18.047  50.650  49.992  1.00  0.00     0.020 C 
HETATM   21  C   UNL     1      18.836  51.910  49.641  1.00  0.00     0.003 C 
HETATM   22  C   UNL     1      19.543  51.755  48.295  1.00  0.00     0.020 C 
HETATM   23  C   UNL     1      18.556  51.332  47.210  1.00  0.00     0.125 C 
ENDBRANCH  14  18
ENDBRANCH  11  12
ENDBRANCH   8  11
ENDBRANCH   4   7
BRANCH   1  24
HETATM   24  C   UNL     1      25.635  46.823  50.899  1.00  0.00     0.256 C 
HETATM   25  N   UNL     1      25.643  46.073  52.062  1.00  0.00    -0.323 N 
HETATM   26  H   UNL     1      24.816  45.536  52.278  1.00  0.00     0.169 HD
HETATM   27  O   UNL     1      26.504  47.608  50.535  1.00  0.00    -0.267 OA
BRANCH  25  28
HETATM   28  C   UNL     1      26.656  46.024  53.047  1.00  0.00     0.035 A 
HETATM   29  C   UNL     1      26.919  47.049  53.953  1.00  0.00     0.030 A 
HETATM   30  C   UNL     1      27.934  46.913  54.910  1.00  0.00     0.010 A 
HETATM   31  C   UNL     1      28.705  45.746  54.987  1.00  0.00    -0.054 A 
HETATM   32  C   UNL     1      28.452  44.728  54.057  1.00  0.00     0.010 A 
HETATM   33  C   UNL     1      27.438  44.865  53.102  1.00  0.00     0.030 A 
BRANCH  31  34
HETATM   34  C   UNL     1      29.813  45.566  56.015  1.00  0.00     0.014 C 
HETATM   35  C   UNL     1      30.461  44.178  55.936  1.00  0.00     0.015 C 
BRANCH  34  36
HETATM   36  C   UNL     1      29.280  45.889  57.424  1.00  0.00     0.004 C 
HETATM   37  C   UNL     1      30.327  45.727  58.518  1.00  0.00     0.006 C 
ENDBRANCH  34  36
ENDBRANCH  31  34
ENDBRANCH  25  28
ENDBRANCH   1  24
TORSDOF 8
ENDMDL
MODEL 4
REMARK VINA RESULT:      -9.1      6.149      8.595
REMARK  8 active torsions:
REMARK  status: ('A' for Active; 'I' for Inactive)
REMARK    1  A    between atoms: C_2  and  C_3 
REMARK    2  A    between atoms: C_3  and  C_4 
REMARK    3  A    between atoms: C_7  and  N_8 
REMARK       I    between atoms: N_8  and  C_9 
REMARK    4  A    between atoms: C_9  and  C_10 
REMARK    5  A    between atoms: C_13  and  N_14 
REMARK       I    between atoms: N_14  and  C_15 
REMARK    6  A    between atoms: C_15  and  C_16 
REMARK    7  A    between atoms: C_16  and  C_17 
REMARK    8  A    between atoms: C_19  and  N_20 
ROOT
HETATM    1  C   UNL     1      25.830  42.467  50.034  1.00  0.00     0.032 A 
HETATM    2  C   UNL     1      24.453  42.609  50.232  1.00  0.00     0.019 A 
HETATM    3  C   UNL     1      23.543  41.930  49.409  1.00  0.00     0.030 A 
HETATM    4  C   UNL     1      23.989  41.083  48.390  1.00  0.00     0.034 A 
HETATM    5  C   UNL     1      25.367  40.918  48.213  1.00  0.00     0.030 A 
HETATM    6  C   UNL     1      26.279  41.605  49.024  1.00  0.00     0.019 A 
ENDROOT
BRANCH   4   7
HETATM    7  N   UNL     1      23.132  40.362  47.530  1.00  0.00    -0.327 N 
HETATM    8  C   UNL     1      22.024  40.848  46.856  1.00  0.00     0.223 C 
HETATM    9  O   UNL     1      21.604  41.999  46.897  1.00  0.00    -0.273 OA
HETATM   10  H   UNL     1      23.389  39.397  47.361  1.00  0.00     0.169 HD
BRANCH   8  11
HETATM   11  C   UNL     1      21.303  39.769  46.064  1.00  0.00     0.128 C 
BRANCH  11  12
HETATM   12  C   UNL     1      20.719  38.712  46.993  1.00  0.00     0.158 C 
HETATM   13  S   UNL     1      19.035  38.222  46.506  1.00  0.00    -0.077 SA
HETATM   14  C   UNL     1      19.407  36.553  46.916  1.00  0.00     0.168 C 
HETATM   15  N   UNL     1      20.658  36.295  47.118  1.00  0.00    -0.189 NA
HETATM   16  C   UNL     1      21.471  37.395  46.959  1.00  0.00     0.260 C 
HETATM   17  O   UNL     1      22.689  37.326  46.857  1.00  0.00    -0.270 OA
BRANCH  14  18
HETATM   18  N   UNL     1      18.376  35.653  47.061  1.00  0.00    -0.360 N 
HETATM   19  C   UNL     1      18.045  34.637  46.058  1.00  0.00     0.125 C 
HETATM   20  C   UNL     1      18.619  33.286  46.491  1.00  0.00     0.020 C 
HETATM   21  C   UNL     1      18.140  32.900  47.890  1.00  0.00     0.003 C 
HETATM   22  C   UNL     1      18.426  34.017  48.892  1.00  0.00     0.020 C 
HETATM   23  C   UNL     1      17.860  35.347  48.400  1.00  0.00     0.125 C 
ENDBRANCH  14  18
ENDBRANCH  11  12
ENDBRANCH   8  11
ENDBRANCH   4   7
BRANCH   1  24
HETATM   24  C   UNL     1      26.854  43.167  50.874  1.00  0.00     0.256 C 
HETATM   25  N   UNL     1      27.236  42.511  52.031  1.00  0.00    -0.323 N 
HETATM   26  H   UNL     1      26.757  41.652  52.262  1.00  0.00     0.169 HD
HETATM   27  O   UNL     1      27.251  44.263  50.496  1.00  0.00    -0.267 OA
BRANCH  25  28
HETATM   28  C   UNL     1      28.182  42.940  52.990  1.00  0.00     0.035 A 
HETATM   29  C   UNL     1      29.495  42.480  53.057  1.00  0.00     0.030 A 
HETATM   30  C   UNL     1      30.376  42.970  54.032  1.00  0.00     0.010 A 
HETATM   31  C   UNL     1      29.963  43.936  54.958  1.00  0.00    -0.054 A 
HETATM   32  C   UNL     1      28.634  44.377  54.902  1.00  0.00     0.010 A 
HETATM   33  C   UNL     1      27.756  43.887  53.928  1.00  0.00     0.030 A 
BRANCH  31  34
HETATM   34  C   UNL     1      30.894  44.490  56.028  1.00  0.00     0.014 C 
HETATM   35  C   UNL     1      31.470  43.388  56.926  1.00  0.00     0.015 C 
BRANCH  34  36
HETATM   36  C   UNL     1      30.176  45.591  56.832  1.00  0.00     0.004 C 
HETATM   37  C   UNL     1      30.488  45.553  58.321  1.00  0.00     0.006 C 
ENDBRANCH  34  36
ENDBRANCH  31  34
ENDBRANCH  25  28
ENDBRANCH   1  24
TORSDOF 8
ENDMDL
MODEL 5
REMARK VINA RESULT:      -9.0      3.636     13.433
REMARK  8 active torsions:
REMARK  status: ('A' for Active; 'I' for Inactive)
REMARK    1  A    between atoms: C_2  and  C_3 
REMARK    2  A    between atoms: C_3  and  C_4 
REMARK    3  A    between atoms: C_7  and  N_8 
REMARK       I    between atoms: N_8  and  C_9 
REMARK    4  A    between atoms: C_9  and  C_10 
REMARK    5  A    between atoms: C_13  and  N_14 
REMARK       I    between atoms: N_14  and  C_15 
REMARK    6  A    between atoms: C_15  and  C_16 
REMARK    7  A    between atoms: C_16  and  C_17 
REMARK    8  A    between atoms: C_19  and  N_20 
ROOT
HETATM    1  C   UNL     1      19.773  50.402  48.779  1.00  0.00     0.032 A 
HETATM    2  C   UNL     1      19.337  49.106  49.071  1.00  0.00     0.019 A 
HETATM    3  C   UNL     1      20.254  48.047  49.139  1.00  0.00     0.030 A 
HETATM    4  C   UNL     1      21.619  48.265  48.939  1.00  0.00     0.034 A 
HETATM    5  C   UNL     1      22.058  49.568  48.678  1.00  0.00     0.030 A 
HETATM    6  C   UNL     1      21.144  50.626  48.595  1.00  0.00     0.019 A 
ENDROOT
BRANCH   4   7
HETATM    7  N   UNL     1      22.600  47.250  49.001  1.00  0.00    -0.327 N 
HETATM    8  C   UNL     1      23.784  47.276  49.717  1.00  0.00     0.223 C 
HETATM    9  O   UNL     1      24.177  48.197  50.426  1.00  0.00    -0.273 OA
HETATM   10  H   UNL     1      22.385  46.399  48.496  1.00  0.00     0.169 HD
BRANCH   8  11
HETATM   11  C   UNL     1      24.626  46.030  49.501  1.00  0.00     0.128 C 
BRANCH  11  12
HETATM   12  C   UNL     1      25.639  45.857  50.625  1.00  0.00     0.158 C 
HETATM   13  S   UNL     1      25.208  44.480  51.735  1.00  0.00    -0.077 SA
HETATM   14  C   UNL     1      26.908  44.047  51.851  1.00  0.00     0.168 C 
HETATM   15  N   UNL     1      27.689  44.622  50.996  1.00  0.00    -0.189 NA
HETATM   16  C   UNL     1      27.023  45.469  50.138  1.00  0.00     0.260 C 
HETATM   17  O   UNL     1      27.516  45.915  49.110  1.00  0.00    -0.270 OA
BRANCH  14  18
HETATM   18  N   UNL     1      27.316  43.197  52.854  1.00  0.00    -0.360 N 
HETATM   19  C   UNL     1      28.179  42.035  52.626  1.00  0.00     0.125 C 
HETATM   20  C   UNL     1      29.618  42.381  53.018  1.00  0.00     0.020 C 
HETATM   21  C   UNL     1      29.694  42.888  54.458  1.00  0.00     0.003 C 
HETATM   22  C   UNL     1      28.721  44.045  54.681  1.00  0.00     0.020 C 
HETATM   23  C   UNL     1      27.310  43.659  54.246  1.00  0.00     0.125 C 
ENDBRANCH  14  18
ENDBRANCH  11  12
ENDBRANCH   8  11
ENDBRANCH   4   7
BRANCH   1  24
HETATM   24  C   UNL     1      18.845  51.575  48.687  1.00  0.00     0.256 C 
HETATM   25  N   UNL     1      17.521  51.324  49.000  1.00  0.00    -0.323 N 
HETATM   26  H   UNL     1      17.260  50.368  49.198  1.00  0.00     0.169 HD
HETATM   27  O   UNL     1      19.314  52.648  48.323  1.00  0.00    -0.267 OA
BRANCH  25  28
HETATM   28  C   UNL     1      16.449  52.244  49.003  1.00  0.00     0.035 A 
HETATM   29  C   UNL     1      16.032  52.960  50.124  1.00  0.00     0.030 A 
HETATM   30  C   UNL     1      14.967  53.867  50.038  1.00  0.00     0.010 A 
HETATM   31  C   UNL     1      14.298  54.084  48.826  1.00  0.00    -0.054 A 
HETATM   32  C   UNL     1      14.705  53.344  47.708  1.00  0.00     0.010 A 
HETATM   33  C   UNL     1      15.769  52.438  47.795  1.00  0.00     0.030 A 
BRANCH  31  34
HETATM   34  C   UNL     1      13.140  55.064  48.699  1.00  0.00     0.014 C 
HETATM   35  C   UNL     1      13.093  55.732  47.319  1.00  0.00     0.015 C 
BRANCH  34  36
HETATM   36  C   UNL     1      13.187  56.087  49.849  1.00  0.00     0.004 C 
HETATM   37  C   UNL     1      13.995  57.335  49.516  1.00  0.00     0.006 C 
ENDBRANCH  34  36
ENDBRANCH  31  34
ENDBRANCH  25  28
ENDBRANCH   1  24
TORSDOF 8
ENDMDL
MODEL 6
REMARK VINA RESULT:      -8.8      3.945     12.574
REMARK  8 active torsions:
REMARK  status: ('A' for Active; 'I' for Inactive)
REMARK    1  A    between atoms: C_2  and  C_3 
REMARK    2  A    between atoms: C_3  and  C_4 
REMARK    3  A    between atoms: C_7  and  N_8 
REMARK       I    between atoms: N_8  and  C_9 
REMARK    4  A    between atoms: C_9  and  C_10 
REMARK    5  A    between atoms: C_13  and  N_14 
REMARK       I    between atoms: N_14  and  C_15 
REMARK    6  A    between atoms: C_15  and  C_16 
REMARK    7  A    between atoms: C_16  and  C_17 
REMARK    8  A    between atoms: C_19  and  N_20 
ROOT
HETATM    1  C   UNL     1      23.175  47.659  49.115  1.00  0.00     0.032 A 
HETATM    2  C   UNL     1      23.072  46.273  48.956  1.00  0.00     0.019 A 
HETATM    3  C   UNL     1      24.079  45.426  49.440  1.00  0.00     0.030 A 
HETATM    4  C   UNL     1      25.193  45.942  50.107  1.00  0.00     0.034 A 
HETATM    5  C   UNL     1      25.280  47.326  50.293  1.00  0.00     0.030 A 
HETATM    6  C   UNL     1      24.283  48.177  49.800  1.00  0.00     0.019 A 
ENDROOT
BRANCH   4   7
HETATM    7  N   UNL     1      26.240  45.150  50.629  1.00  0.00    -0.327 N 
HETATM    8  C   UNL     1      26.358  44.669  51.921  1.00  0.00     0.223 C 
HETATM    9  O   UNL     1      25.560  44.853  52.834  1.00  0.00    -0.273 OA
HETATM   10  H   UNL     1      26.955  44.875  49.967  1.00  0.00     0.169 HD
BRANCH   8  11
HETATM   11  C   UNL     1      27.650  43.899  52.142  1.00  0.00     0.128 C 
BRANCH  11  12
HETATM   12  C   UNL     1      27.423  42.401  51.981  1.00  0.00     0.158 C 
HETATM   13  S   UNL     1      27.499  41.876  50.240  1.00  0.00    -0.077 SA
HETATM   14  C   UNL     1      28.341  40.410  50.723  1.00  0.00     0.168 C 
HETATM   15  N   UNL     1      28.777  40.393  51.940  1.00  0.00    -0.189 NA
HETATM   16  C   UNL     1      28.501  41.553  52.630  1.00  0.00     0.260 C 
HETATM   17  O   UNL     1      29.029  41.848  53.695  1.00  0.00    -0.270 OA
BRANCH  14  18
HETATM   18  N   UNL     1      28.432  39.365  49.832  1.00  0.00    -0.360 N 
HETATM   19  C   UNL     1      29.485  38.348  49.886  1.00  0.00     0.125 C 
HETATM   20  C   UNL     1      28.936  37.080  50.546  1.00  0.00     0.020 C 
HETATM   21  C   UNL     1      27.681  36.580  49.832  1.00  0.00     0.003 C 
HETATM   22  C   UNL     1      26.638  37.692  49.719  1.00  0.00     0.020 C 
HETATM   23  C   UNL     1      27.244  38.941  49.084  1.00  0.00     0.125 C 
ENDBRANCH  14  18
ENDBRANCH  11  12
ENDBRANCH   8  11
ENDBRANCH   4   7
BRANCH   1  24
HETATM   24  C   UNL     1      22.137  48.618  48.617  1.00  0.00     0.256 C 
HETATM   25  N   UNL     1      21.307  49.163  49.582  1.00  0.00    -0.323 N 
HETATM   26  H   UNL     1      21.410  48.830  50.530  1.00  0.00     0.169 HD
HETATM   27  O   UNL     1      22.084  48.828  47.411  1.00  0.00    -0.267 OA
BRANCH  25  28
HETATM   28  C   UNL     1      20.260  50.092  49.389  1.00  0.00     0.035 A 
HETATM   29  C   UNL     1      20.424  51.351  48.813  1.00  0.00     0.030 A 
HETATM   30  C   UNL     1      19.327  52.207  48.644  1.00  0.00     0.010 A 
HETATM   31  C   UNL     1      18.041  51.822  49.041  1.00  0.00    -0.054 A 
HETATM   32  C   UNL     1      17.886  50.566  49.642  1.00  0.00     0.010 A 
HETATM   33  C   UNL     1      18.981  49.711  49.811  1.00  0.00     0.030 A 
BRANCH  31  34
HETATM   34  C   UNL     1      16.829  52.728  48.869  1.00  0.00     0.014 C 
HETATM   35  C   UNL     1      16.169  53.077  50.209  1.00  0.00     0.015 C 
BRANCH  34  36
HETATM   36  C   UNL     1      15.839  52.099  47.871  1.00  0.00     0.004 C 
HETATM   37  C   UNL     1      14.919  53.115  47.210  1.00  0.00     0.006 C 
ENDBRANCH  34  36
ENDBRANCH  31  34
ENDBRANCH  25  28
ENDBRANCH   1  24
TORSDOF 8
ENDMDL
MODEL 7
REMARK VINA RESULT:      -8.4      4.447      5.960
REMARK  8 active torsions:
REMARK  status: ('A' for Active; 'I' for Inactive)
REMARK    1  A    between atoms: C_2  and  C_3 
REMARK    2  A    between atoms: C_3  and  C_4 
REMARK    3  A    between atoms: C_7  and  N_8 
REMARK       I    between atoms: N_8  and  C_9 
REMARK    4  A    between atoms: C_9  and  C_10 
REMARK    5  A    between atoms: C_13  and  N_14 
REMARK       I    between atoms: N_14  and  C_15 
REMARK    6  A    between atoms: C_15  and  C_16 
REMARK    7  A    between atoms: C_16  and  C_17 
REMARK    8  A    between atoms: C_19  and  N_20 
ROOT
HETATM    1  C   UNL     1      24.568  45.066  49.594  1.00  0.00     0.032 A 
HETATM    2  C   UNL     1      25.267  46.063  50.281  1.00  0.00     0.019 A 
HETATM    3  C   UNL     1      24.824  47.393  50.249  1.00  0.00     0.030 A 
HETATM    4  C   UNL     1      23.668  47.748  49.549  1.00  0.00     0.034 A 
HETATM    5  C   UNL     1      22.952  46.745  48.887  1.00  0.00     0.030 A 
HETATM    6  C   UNL     1      23.398  45.417  48.906  1.00  0.00     0.019 A 
ENDROOT
BRANCH   4   7
HETATM    7  N   UNL     1      23.158  49.063  49.479  1.00  0.00    -0.327 N 
HETATM    8  C   UNL     1      23.360  49.983  48.464  1.00  0.00     0.223 C 
HETATM    9  O   UNL     1      24.020  49.800  47.447  1.00  0.00    -0.273 OA
HETATM   10  H   UNL     1      22.547  49.340  50.237  1.00  0.00     0.169 HD
BRANCH   8  11
HETATM   11  C   UNL     1      22.707  51.325  48.753  1.00  0.00     0.128 C 
BRANCH  11  12
HETATM   12  C   UNL     1      21.196  51.243  48.573  1.00  0.00     0.158 C 
HETATM   13  S   UNL     1      20.724  50.130  47.212  1.00  0.00    -0.077 SA
HETATM   14  C   UNL     1      19.366  49.549  48.164  1.00  0.00     0.168 C 
HETATM   15  N   UNL     1      19.377  49.883  49.413  1.00  0.00    -0.189 NA
HETATM   16  C   UNL     1      20.476  50.636  49.762  1.00  0.00     0.260 C 
HETATM   17  O   UNL     1      20.812  50.845  50.922  1.00  0.00    -0.270 OA
BRANCH  14  18
HETATM   18  N   UNL     1      18.361  48.846  47.539  1.00  0.00    -0.360 N 
HETATM   19  C   UNL     1      17.951  47.497  47.937  1.00  0.00     0.125 C 
HETATM   20  C   UNL     1      16.680  47.579  48.788  1.00  0.00     0.020 C 
HETATM   21  C   UNL     1      15.570  48.332  48.056  1.00  0.00     0.003 C 
HETATM   22  C   UNL     1      16.059  49.700  47.582  1.00  0.00     0.020 C 
HETATM   23  C   UNL     1      17.342  49.565  46.767  1.00  0.00     0.125 C 
ENDBRANCH  14  18
ENDBRANCH  11  12
ENDBRANCH   8  11
ENDBRANCH   4   7
BRANCH   1  24
HETATM   24  C   UNL     1      24.990  43.629  49.585  1.00  0.00     0.256 C 
HETATM   25  N   UNL     1      26.248  43.372  49.067  1.00  0.00    -0.323 N 
HETATM   26  H   UNL     1      26.758  44.149  48.673  1.00  0.00     0.169 HD
HETATM   27  O   UNL     1      24.195  42.796  50.006  1.00  0.00    -0.267 OA
BRANCH  25  28
HETATM   28  C   UNL     1      26.889  42.119  48.949  1.00  0.00     0.035 A 
HETATM   29  C   UNL     1      26.918  41.358  47.782  1.00  0.00     0.030 A 
HETATM   30  C   UNL     1      27.592  40.130  47.746  1.00  0.00     0.010 A 
HETATM   31  C   UNL     1      28.259  39.637  48.875  1.00  0.00    -0.054 A 
HETATM   32  C   UNL     1      28.206  40.393  50.053  1.00  0.00     0.010 A 
HETATM   33  C   UNL     1      27.533  41.621  50.088  1.00  0.00     0.030 A 
BRANCH  31  34
HETATM   34  C   UNL     1      29.001  38.308  48.868  1.00  0.00     0.014 C 
HETATM   35  C   UNL     1      28.986  37.640  47.487  1.00  0.00     0.015 C 
BRANCH  34  36
HETATM   36  C   UNL     1      28.447  37.390  49.973  1.00  0.00     0.004 C 
HETATM   37  C   UNL     1      27.076  36.812  49.650  1.00  0.00     0.006 C 
ENDBRANCH  34  36
ENDBRANCH  31  34
ENDBRANCH  25  28
ENDBRANCH   1  24
TORSDOF 8
ENDMDL
MODEL 8
REMARK VINA RESULT:      -8.3      3.513     13.678
REMARK  8 active torsions:
REMARK  status: ('A' for Active; 'I' for Inactive)
REMARK    1  A    between atoms: C_2  and  C_3 
REMARK    2  A    between atoms: C_3  and  C_4 
REMARK    3  A    between atoms: C_7  and  N_8 
REMARK       I    between atoms: N_8  and  C_9 
REMARK    4  A    between atoms: C_9  and  C_10 
REMARK    5  A    between atoms: C_13  and  N_14 
REMARK       I    between atoms: N_14  and  C_15 
REMARK    6  A    between atoms: C_15  and  C_16 
REMARK    7  A    between atoms: C_16  and  C_17 
REMARK    8  A    between atoms: C_19  and  N_20 
ROOT
HETATM    1  C   UNL     1      20.540  50.587  48.463  1.00  0.00     0.032 A 
HETATM    2  C   UNL     1      21.741  51.302  48.473  1.00  0.00     0.019 A 
HETATM    3  C   UNL     1      22.943  50.667  48.814  1.00  0.00     0.030 A 
HETATM    4  C   UNL     1      22.972  49.306  49.131  1.00  0.00     0.034 A 
HETATM    5  C   UNL     1      21.775  48.585  49.091  1.00  0.00     0.030 A 
HETATM    6  C   UNL     1      20.569  49.218  48.763  1.00  0.00     0.019 A 
ENDROOT
BRANCH   4   7
HETATM    7  N   UNL     1      24.145  48.599  49.476  1.00  0.00    -0.327 N 
HETATM    8  C   UNL     1      24.333  47.228  49.444  1.00  0.00     0.223 C 
HETATM    9  O   UNL     1      23.500  46.395  49.103  1.00  0.00    -0.273 OA
HETATM   10  H   UNL     1      24.943  49.168  49.734  1.00  0.00     0.169 HD
BRANCH   8  11
HETATM   11  C   UNL     1      25.708  46.815  49.941  1.00  0.00     0.128 C 
BRANCH  11  12
HETATM   12  C   UNL     1      25.594  45.804  51.075  1.00  0.00     0.158 C 
HETATM   13  S   UNL     1      26.903  44.540  51.006  1.00  0.00    -0.077 SA
HETATM   14  C   UNL     1      27.033  44.585  52.759  1.00  0.00     0.168 C 
HETATM   15  N   UNL     1      26.426  45.569  53.338  1.00  0.00    -0.189 NA
HETATM   16  C   UNL     1      25.793  46.412  52.451  1.00  0.00     0.260 C 
HETATM   17  O   UNL     1      25.378  47.524  52.754  1.00  0.00    -0.270 OA
BRANCH  14  18
HETATM   18  N   UNL     1      27.696  43.568  53.408  1.00  0.00    -0.360 N 
HETATM   19  C   UNL     1      28.482  42.545  52.713  1.00  0.00     0.125 C 
HETATM   20  C   UNL     1      29.969  42.896  52.800  1.00  0.00     0.020 C 
HETATM   21  C   UNL     1      30.412  43.084  54.251  1.00  0.00     0.003 C 
HETATM   22  C   UNL     1      29.519  44.095  54.967  1.00  0.00     0.020 C 
HETATM   23  C   UNL     1      28.047  43.717  54.824  1.00  0.00     0.125 C 
ENDBRANCH  14  18
ENDBRANCH  11  12
ENDBRANCH   8  11
ENDBRANCH   4   7
BRANCH   1  24
HETATM   24  C   UNL     1      19.222  51.207  48.112  1.00  0.00     0.256 C 
HETATM   25  N   UNL     1      18.673  50.814  46.903  1.00  0.00    -0.323 N 
HETATM   26  H   UNL     1      19.221  50.200  46.318  1.00  0.00     0.169 HD
HETATM   27  O   UNL     1      18.746  52.021  48.894  1.00  0.00    -0.267 OA
BRANCH  25  28
HETATM   28  C   UNL     1      17.447  51.233  46.339  1.00  0.00     0.035 A 
HETATM   29  C   UNL     1      17.270  52.428  45.645  1.00  0.00     0.030 A 
HETATM   30  C   UNL     1      16.022  52.763  45.102  1.00  0.00     0.010 A 
HETATM   31  C   UNL     1      14.923  51.905  45.236  1.00  0.00    -0.054 A 
HETATM   32  C   UNL     1      15.099  50.716  45.956  1.00  0.00     0.010 A 
HETATM   33  C   UNL     1      16.347  50.383  46.498  1.00  0.00     0.030 A 
BRANCH  31  34
HETATM   34  C   UNL     1      13.555  52.237  44.657  1.00  0.00     0.014 C 
HETATM   35  C   UNL     1      12.710  50.982  44.403  1.00  0.00     0.015 C 
BRANCH  34  36
HETATM   36  C   UNL     1      13.714  53.106  43.395  1.00  0.00     0.004 C 
HETATM   37  C   UNL     1      13.955  52.296  42.129  1.00  0.00     0.006 C 
ENDBRANCH  34  36
ENDBRANCH  31  34
ENDBRANCH  25  28
ENDBRANCH   1  24
TORSDOF 8
ENDMDL
MODEL 9
REMARK VINA RESULT:      -8.0     13.433     14.414
REMARK  8 active torsions:
REMARK  status: ('A' for Active; 'I' for Inactive)
REMARK    1  A    between atoms: C_2  and  C_3 
REMARK    2  A    between atoms: C_3  and  C_4 
REMARK    3  A    between atoms: C_7  and  N_8 
REMARK       I    between atoms: N_8  and  C_9 
REMARK    4  A    between atoms: C_9  and  C_10 
REMARK    5  A    between atoms: C_13  and  N_14 
REMARK       I    between atoms: N_14  and  C_15 
REMARK    6  A    between atoms: C_15  and  C_16 
REMARK    7  A    between atoms: C_16  and  C_17 
REMARK    8  A    between atoms: C_19  and  N_20 
ROOT
HETATM    1  C   UNL     1      35.133  52.055  43.562  1.00  0.00     0.032 A 
HETATM    2  C   UNL     1      34.883  51.449  42.327  1.00  0.00     0.019 A 
HETATM    3  C   UNL     1      33.640  50.856  42.065  1.00  0.00     0.030 A 
HETATM    4  C   UNL     1      32.620  50.875  43.020  1.00  0.00     0.034 A 
HETATM    5  C   UNL     1      32.860  51.508  44.244  1.00  0.00     0.030 A 
HETATM    6  C   UNL     1      34.105  52.090  44.514  1.00  0.00     0.019 A 
ENDROOT
BRANCH   4   7
HETATM    7  N   UNL     1      31.342  50.306  42.823  1.00  0.00    -0.327 N 
HETATM    8  C   UNL     1      31.057  49.048  42.321  1.00  0.00     0.223 C 
HETATM    9  O   UNL     1      31.880  48.212  41.964  1.00  0.00    -0.273 OA
HETATM   10  H   UNL     1      30.557  50.872  43.123  1.00  0.00     0.169 HD
BRANCH   8  11
HETATM   11  C   UNL     1      29.564  48.795  42.192  1.00  0.00     0.128 C 
BRANCH  11  12
HETATM   12  C   UNL     1      29.030  49.355  40.880  1.00  0.00     0.158 C 
HETATM   13  S   UNL     1      27.777  48.270  40.127  1.00  0.00    -0.077 SA
HETATM   14  C   UNL     1      26.853  49.683  39.637  1.00  0.00     0.168 C 
HETATM   15  N   UNL     1      27.222  50.802  40.169  1.00  0.00    -0.189 NA
HETATM   16  C   UNL     1      28.280  50.664  41.041  1.00  0.00     0.260 C 
HETATM   17  O   UNL     1      28.622  51.534  41.832  1.00  0.00    -0.270 OA
BRANCH  14  18
HETATM   18  N   UNL     1      25.860  49.541  38.694  1.00  0.00    -0.360 N 
HETATM   19  C   UNL     1      26.124  49.271  37.278  1.00  0.00     0.125 C 
HETATM   20  C   UNL     1      25.916  47.781  36.994  1.00  0.00     0.020 C 
HETATM   21  C   UNL     1      24.522  47.323  37.424  1.00  0.00     0.003 C 
HETATM   22  C   UNL     1      24.250  47.696  38.880  1.00  0.00     0.020 C 
HETATM   23  C   UNL     1      24.502  49.183  39.116  1.00  0.00     0.125 C 
ENDBRANCH  14  18
ENDBRANCH  11  12
ENDBRANCH   8  11
ENDBRANCH   4   7
BRANCH   1  24
HETATM   24  C   UNL     1      36.440  52.702  43.906  1.00  0.00     0.256 C 
HETATM   25  N   UNL     1      37.037  52.269  45.078  1.00  0.00    -0.323 N 
HETATM   26  H   UNL     1      36.527  51.609  45.647  1.00  0.00     0.169 HD
HETATM   27  O   UNL     1      36.864  53.570  43.152  1.00  0.00    -0.267 OA
BRANCH  25  28
HETATM   28  C   UNL     1      38.265  52.702  45.627  1.00  0.00     0.035 A 
HETATM   29  C   UNL     1      39.517  52.326  45.144  1.00  0.00     0.030 A 
HETATM   30  C   UNL     1      40.689  52.815  45.738  1.00  0.00     0.010 A 
HETATM   31  C   UNL     1      40.635  53.697  46.825  1.00  0.00    -0.054 A 
HETATM   32  C   UNL     1      39.374  54.053  47.322  1.00  0.00     0.010 A 
HETATM   33  C   UNL     1      38.204  53.564  46.728  1.00  0.00     0.030 A 
BRANCH  31  34
HETATM   34  C   UNL     1      41.888  54.247  47.491  1.00  0.00     0.014 C 
HETATM   35  C   UNL     1      41.910  55.781  47.513  1.00  0.00     0.015 C 
BRANCH  34  36
HETATM   36  C   UNL     1      43.143  53.649  46.827  1.00  0.00     0.004 C 
HETATM   37  C   UNL     1      44.072  52.948  47.809  1.00  0.00     0.006 C 
ENDBRANCH  34  36
ENDBRANCH  31  34
ENDBRANCH  25  28
ENDBRANCH   1  24
TORSDOF 8
ENDMDL
MODEL 10
REMARK VINA RESULT:      -8.0      3.103      4.454
REMARK  8 active torsions:
REMARK  status: ('A' for Active; 'I' for Inactive)
REMARK    1  A    between atoms: C_2  and  C_3 
REMARK    2  A    between atoms: C_3  and  C_4 
REMARK    3  A    between atoms: C_7  and  N_8 
REMARK       I    between atoms: N_8  and  C_9 
REMARK    4  A    between atoms: C_9  and  C_10 
REMARK    5  A    between atoms: C_13  and  N_14 
REMARK       I    between atoms: N_14  and  C_15 
REMARK    6  A    between atoms: C_15  and  C_16 
REMARK    7  A    between atoms: C_16  and  C_17 
REMARK    8  A    between atoms: C_19  and  N_20 
ROOT
HETATM    1  C   UNL     1      23.574  46.657  49.221  1.00  0.00     0.032 A 
HETATM    2  C   UNL     1      22.748  45.728  48.580  1.00  0.00     0.019 A 
HETATM    3  C   UNL     1      21.620  46.155  47.865  1.00  0.00     0.030 A 
HETATM    4  C   UNL     1      21.308  47.513  47.759  1.00  0.00     0.034 A 
HETATM    5  C   UNL     1      22.152  48.444  48.376  1.00  0.00     0.030 A 
HETATM    6  C   UNL     1      23.273  48.020  49.102  1.00  0.00     0.019 A 
ENDROOT
BRANCH   4   7
HETATM    7  N   UNL     1      20.195  48.017  47.050  1.00  0.00    -0.327 N 
HETATM    8  C   UNL     1      18.993  48.452  47.583  1.00  0.00     0.223 C 
HETATM    9  O   UNL     1      18.699  48.473  48.773  1.00  0.00    -0.273 OA
HETATM   10  H   UNL     1      20.314  48.103  46.048  1.00  0.00     0.169 HD
BRANCH   8  11
HETATM   11  C   UNL     1      17.998  48.872  46.514  1.00  0.00     0.128 C 
BRANCH  11  12
HETATM   12  C   UNL     1      17.175  50.066  46.978  1.00  0.00     0.158 C 
HETATM   13  S   UNL     1      17.492  51.553  45.977  1.00  0.00    -0.077 SA
HETATM   14  C   UNL     1      15.783  51.961  46.048  1.00  0.00     0.168 C 
HETATM   15  N   UNL     1      15.006  51.027  46.490  1.00  0.00    -0.189 NA
HETATM   16  C   UNL     1      15.679  49.870  46.815  1.00  0.00     0.260 C 
HETATM   17  O   UNL     1      15.123  48.797  47.010  1.00  0.00    -0.270 OA
BRANCH  14  18
HETATM   18  N   UNL     1      15.383  53.232  45.704  1.00  0.00    -0.360 N 
HETATM   19  C   UNL     1      15.642  53.832  44.392  1.00  0.00     0.125 C 
HETATM   20  C   UNL     1      14.380  53.741  43.530  1.00  0.00     0.020 C 
HETATM   21  C   UNL     1      13.180  54.374  44.232  1.00  0.00     0.003 C 
HETATM   22  C   UNL     1      12.991  53.784  45.629  1.00  0.00     0.020 C 
HETATM   23  C   UNL     1      14.284  53.872  46.435  1.00  0.00     0.125 C 
ENDBRANCH  14  18
ENDBRANCH  11  12
ENDBRANCH   8  11
ENDBRANCH   4   7
BRANCH   1  24
HETATM   24  C   UNL     1      24.790  46.266  50.003  1.00  0.00     0.256 C 
HETATM   25  N   UNL     1      24.690  46.393  51.378  1.00  0.00    -0.323 N 
HETATM   26  H   UNL     1      23.844  46.800  51.750  1.00  0.00     0.169 HD
HETATM   27  O   UNL     1      25.777  45.893  49.379  1.00  0.00    -0.267 OA
BRANCH  25  28
HETATM   28  C   UNL     1      25.676  46.089  52.343  1.00  0.00     0.035 A 
HETATM   29  C   UNL     1      26.314  47.038  53.140  1.00  0.00     0.030 A 
HETATM   30  C   UNL     1      27.272  46.649  54.087  1.00  0.00     0.010 A 
HETATM   31  C   UNL     1      27.609  45.301  54.263  1.00  0.00    -0.054 A 
HETATM   32  C   UNL     1      26.983  44.353  53.443  1.00  0.00     0.010 A 
HETATM   33  C   UNL     1      26.026  44.743  52.497  1.00  0.00     0.030 A 
BRANCH  31  34
HETATM   34  C   UNL     1      28.643  44.846  55.283  1.00  0.00     0.014 C 
HETATM   35  C   UNL     1      29.344  46.026  55.967  1.00  0.00     0.015 C 
BRANCH  34  36
HETATM   36  C   UNL     1      29.636  43.870  54.626  1.00  0.00     0.004 C 
HETATM   37  C   UNL     1      30.685  43.333  55.590  1.00  0.00     0.006 C 
ENDBRANCH  34  36
ENDBRANCH  31  34
ENDBRANCH  25  28
ENDBRANCH   1  24
TORSDOF 8
ENDMDL
