MODEL 1
REMARK VINA RESULT:      -8.6      0.000      0.000
REMARK  5 active torsions:
REMARK  status: ('A' for Active; 'I' for Inactive)
REMARK    1  A    between atoms: C_2  and  O_3 
REMARK    2  A    between atoms: O_3  and  C_4 
REMARK    3  A    between atoms: C_6  and  C_7 
REMARK    4  A    between atoms: C_7  and  N_8 
REMARK       I    between atoms: N_8  and  C_9 
REMARK       I    between atoms: C_9  and  N_10 
REMARK    5  A    between atoms: N_10  and  C_11 
ROOT
HETATM    1  N   UNL     1      26.383  45.548  52.449  1.00  0.00    -0.335 N 
HETATM    2  C   UNL     1      25.894  46.688  51.887  1.00  0.00     0.321 C 
HETATM    3  N   UNL     1      26.008  46.789  50.530  1.00  0.00    -0.307 N 
HETATM    4  O   UNL     1      25.412  47.528  52.641  1.00  0.00    -0.247 OA
HETATM    5  H   UNL     1      26.345  45.594  53.459  1.00  0.00     0.165 HD
HETATM    6  H   UNL     1      26.793  46.287  50.152  1.00  0.00     0.170 HD
ENDROOT
BRANCH   1   7
HETATM    7  C   UNL     1      27.112  44.421  51.876  1.00  0.00     0.115 C 
HETATM    8  C   UNL     1      26.120  43.296  51.566  1.00  0.00     0.037 C 
BRANCH   7   9
HETATM    9  C   UNL     1      28.258  44.042  52.803  1.00  0.00    -0.033 A 
HETATM   10  C   UNL     1      28.376  44.697  54.043  1.00  0.00     0.046 A 
HETATM   11  C   UNL     1      29.372  44.359  54.964  1.00  0.00     0.069 A 
HETATM   12  C   UNL     1      30.300  43.377  54.639  1.00  0.00     0.037 A 
HETATM   13  C   UNL     1      30.207  42.717  53.414  1.00  0.00     0.003 A 
HETATM   14  C   UNL     1      29.191  43.038  52.508  1.00  0.00     0.009 A 
BRANCH  11  15
HETATM   15  O   UNL     1      29.337  45.072  56.130  1.00  0.00    -0.352 OA
BRANCH  15  16
HETATM   16  C   UNL     1      30.563  45.154  56.855  1.00  0.00     0.171 C 
HETATM   17  C   UNL     1      30.285  45.898  58.149  1.00  0.00     0.034 C 
ENDBRANCH  15  16
ENDBRANCH  11  15
ENDBRANCH   7   9
ENDBRANCH   1   7
BRANCH   3  18
HETATM   18  C   UNL     1      25.560  47.868  49.728  1.00  0.00     0.059 A 
HETATM   19  C   UNL     1      26.365  48.824  49.094  1.00  0.00    -0.032 A 
HETATM   20  C   UNL     1      27.858  48.920  49.239  1.00  0.00     0.050 C 
HETATM   21  C   UNL     1      25.739  49.789  48.285  1.00  0.00     0.028 A 
HETATM   22  C   UNL     1      24.357  49.814  48.190  1.00  0.00     0.117 A 
HETATM   23  N   UNL     1      23.553  48.958  48.844  1.00  0.00    -0.271 NA
HETATM   24  C   UNL     1      24.173  48.016  49.592  1.00  0.00     0.146 A 
ENDBRANCH   3  18
TORSDOF 5
ENDMDL
MODEL 2
REMARK VINA RESULT:      -8.3      2.014      3.170
REMARK  5 active torsions:
REMARK  status: ('A' for Active; 'I' for Inactive)
REMARK    1  A    between atoms: C_2  and  O_3 
REMARK    2  A    between atoms: O_3  and  C_4 
REMARK    3  A    between atoms: C_6  and  C_7 
REMARK    4  A    between atoms: C_7  and  N_8 
REMARK       I    between atoms: N_8  and  C_9 
REMARK       I    between atoms: C_9  and  N_10 
REMARK    5  A    between atoms: N_10  and  C_11 
ROOT
HETATM    1  N   UNL     1      26.590  43.105  53.557  1.00  0.00    -0.335 N 
HETATM    2  C   UNL     1      25.709  43.957  52.963  1.00  0.00     0.321 C 
HETATM    3  N   UNL     1      26.155  44.606  51.846  1.00  0.00    -0.307 N 
HETATM    4  O   UNL     1      24.605  44.082  53.484  1.00  0.00    -0.247 OA
HETATM    5  H   UNL     1      26.216  42.740  54.423  1.00  0.00     0.165 HD
HETATM    6  H   UNL     1      27.149  44.753  51.836  1.00  0.00     0.170 HD
ENDROOT
BRANCH   1   7
HETATM    7  C   UNL     1      27.992  42.813  53.279  1.00  0.00     0.115 C 
HETATM    8  C   UNL     1      28.192  41.295  53.283  1.00  0.00     0.037 C 
BRANCH   7   9
HETATM    9  C   UNL     1      28.868  43.588  54.252  1.00  0.00    -0.033 A 
HETATM   10  C   UNL     1      28.443  44.857  54.689  1.00  0.00     0.046 A 
HETATM   11  C   UNL     1      29.172  45.598  55.624  1.00  0.00     0.069 A 
HETATM   12  C   UNL     1      30.373  45.093  56.111  1.00  0.00     0.037 A 
HETATM   13  C   UNL     1      30.818  43.841  55.688  1.00  0.00     0.003 A 
HETATM   14  C   UNL     1      30.070  43.090  54.776  1.00  0.00     0.009 A 
BRANCH  11  15
HETATM   15  O   UNL     1      28.613  46.799  55.961  1.00  0.00    -0.352 OA
BRANCH  15  16
HETATM   16  C   UNL     1      27.910  47.480  54.924  1.00  0.00     0.171 C 
HETATM   17  C   UNL     1      26.681  48.122  55.543  1.00  0.00     0.034 C 
ENDBRANCH  15  16
ENDBRANCH  11  15
ENDBRANCH   7   9
ENDBRANCH   1   7
BRANCH   3  18
HETATM   18  C   UNL     1      25.416  45.521  51.057  1.00  0.00     0.059 A 
HETATM   19  C   UNL     1      24.533  45.201  50.017  1.00  0.00    -0.032 A 
HETATM   20  C   UNL     1      24.289  43.813  49.497  1.00  0.00     0.050 C 
HETATM   21  C   UNL     1      23.840  46.251  49.387  1.00  0.00     0.028 A 
HETATM   22  C   UNL     1      24.095  47.561  49.755  1.00  0.00     0.117 A 
HETATM   23  N   UNL     1      24.991  47.907  50.696  1.00  0.00    -0.271 NA
HETATM   24  C   UNL     1      25.624  46.883  51.316  1.00  0.00     0.146 A 
ENDBRANCH   3  18
TORSDOF 5
ENDMDL
MODEL 3
REMARK VINA RESULT:      -7.6      2.412      8.149
REMARK  5 active torsions:
REMARK  status: ('A' for Active; 'I' for Inactive)
REMARK    1  A    between atoms: C_2  and  O_3 
REMARK    2  A    between atoms: O_3  and  C_4 
REMARK    3  A    between atoms: C_6  and  C_7 
REMARK    4  A    between atoms: C_7  and  N_8 
REMARK       I    between atoms: N_8  and  C_9 
REMARK       I    between atoms: C_9  and  N_10 
REMARK    5  A    between atoms: N_10  and  C_11 
ROOT
HETATM    1  N   UNL     1      26.295  45.174  53.795  1.00  0.00    -0.335 N 
HETATM    2  C   UNL     1      27.203  44.554  54.599  1.00  0.00     0.321 C 
HETATM    3  N   UNL     1      28.341  45.256  54.878  1.00  0.00    -0.307 N 
HETATM    4  O   UNL     1      26.932  43.422  54.989  1.00  0.00    -0.247 OA
HETATM    5  H   UNL     1      25.529  44.554  53.564  1.00  0.00     0.165 HD
HETATM    6  H   UNL     1      28.604  45.903  54.154  1.00  0.00     0.170 HD
ENDROOT
BRANCH   1   7
HETATM    7  C   UNL     1      26.345  46.442  53.076  1.00  0.00     0.115 C 
HETATM    8  C   UNL     1      25.971  47.573  54.038  1.00  0.00     0.037 C 
BRANCH   7   9
HETATM    9  C   UNL     1      25.486  46.342  51.823  1.00  0.00    -0.033 A 
HETATM   10  C   UNL     1      24.981  47.523  51.248  1.00  0.00     0.046 A 
HETATM   11  C   UNL     1      24.232  47.508  50.068  1.00  0.00     0.069 A 
HETATM   12  C   UNL     1      23.939  46.292  49.459  1.00  0.00     0.037 A 
HETATM   13  C   UNL     1      24.425  45.108  50.013  1.00  0.00     0.003 A 
HETATM   14  C   UNL     1      25.199  45.131  51.178  1.00  0.00     0.009 A 
BRANCH  11  15
HETATM   15  O   UNL     1      23.834  48.739  49.628  1.00  0.00    -0.352 OA
BRANCH  15  16
HETATM   16  C   UNL     1      24.652  49.345  48.628  1.00  0.00     0.171 C 
HETATM   17  C   UNL     1      23.841  50.448  47.973  1.00  0.00     0.034 C 
ENDBRANCH  15  16
ENDBRANCH  11  15
ENDBRANCH   7   9
ENDBRANCH   1   7
BRANCH   3  18
HETATM   18  C   UNL     1      29.413  44.824  55.698  1.00  0.00     0.059 A 
HETATM   19  C   UNL     1      30.350  43.829  55.388  1.00  0.00    -0.032 A 
HETATM   20  C   UNL     1      30.315  42.974  54.152  1.00  0.00     0.050 C 
HETATM   21  C   UNL     1      31.386  43.581  56.307  1.00  0.00     0.028 A 
HETATM   22  C   UNL     1      31.415  44.268  57.510  1.00  0.00     0.117 A 
HETATM   23  N   UNL     1      30.490  45.175  57.870  1.00  0.00    -0.271 NA
HETATM   24  C   UNL     1      29.520  45.425  56.960  1.00  0.00     0.146 A 
ENDBRANCH   3  18
TORSDOF 5
ENDMDL
MODEL 4
REMARK VINA RESULT:      -7.6      2.199      2.745
REMARK  5 active torsions:
REMARK  status: ('A' for Active; 'I' for Inactive)
REMARK    1  A    between atoms: C_2  and  O_3 
REMARK    2  A    between atoms: O_3  and  C_4 
REMARK    3  A    between atoms: C_6  and  C_7 
REMARK    4  A    between atoms: C_7  and  N_8 
REMARK       I    between atoms: N_8  and  C_9 
REMARK       I    between atoms: C_9  and  N_10 
REMARK    5  A    between atoms: N_10  and  C_11 
ROOT
HETATM    1  N   UNL     1      26.302  42.479  51.693  1.00  0.00    -0.335 N 
HETATM    2  C   UNL     1      25.331  43.380  51.377  1.00  0.00     0.321 C 
HETATM    3  N   UNL     1      25.704  44.406  50.556  1.00  0.00    -0.307 N 
HETATM    4  O   UNL     1      24.218  43.205  51.863  1.00  0.00    -0.247 OA
HETATM    5  H   UNL     1      25.969  41.808  52.375  1.00  0.00     0.165 HD
HETATM    6  H   UNL     1      26.675  44.655  50.636  1.00  0.00     0.170 HD
ENDROOT
BRANCH   1   7
HETATM    7  C   UNL     1      27.730  42.447  51.393  1.00  0.00     0.115 C 
HETATM    8  C   UNL     1      28.102  41.044  50.907  1.00  0.00     0.037 C 
BRANCH   7   9
HETATM    9  C   UNL     1      28.507  42.946  52.602  1.00  0.00    -0.033 A 
HETATM   10  C   UNL     1      27.953  43.969  53.394  1.00  0.00     0.046 A 
HETATM   11  C   UNL     1      28.588  44.435  54.549  1.00  0.00     0.069 A 
HETATM   12  C   UNL     1      29.822  43.906  54.912  1.00  0.00     0.037 A 
HETATM   13  C   UNL     1      30.394  42.894  54.141  1.00  0.00     0.003 A 
HETATM   14  C   UNL     1      29.740  42.411  53.003  1.00  0.00     0.009 A 
BRANCH  11  15
HETATM   15  O   UNL     1      27.910  45.415  55.218  1.00  0.00    -0.352 OA
BRANCH  15  16
HETATM   16  C   UNL     1      28.519  46.705  55.231  1.00  0.00     0.171 C 
HETATM   17  C   UNL     1      27.434  47.731  54.955  1.00  0.00     0.034 C 
ENDBRANCH  15  16
ENDBRANCH  11  15
ENDBRANCH   7   9
ENDBRANCH   1   7
BRANCH   3  18
HETATM   18  C   UNL     1      24.868  45.447  50.082  1.00  0.00     0.059 A 
HETATM   19  C   UNL     1      24.874  46.781  50.514  1.00  0.00    -0.032 A 
HETATM   20  C   UNL     1      25.718  47.315  51.636  1.00  0.00     0.050 C 
HETATM   21  C   UNL     1      24.008  47.689  49.877  1.00  0.00     0.028 A 
HETATM   22  C   UNL     1      23.134  47.236  48.902  1.00  0.00     0.117 A 
HETATM   23  N   UNL     1      23.051  45.950  48.519  1.00  0.00    -0.271 NA
HETATM   24  C   UNL     1      23.914  45.097  49.117  1.00  0.00     0.146 A 
ENDBRANCH   3  18
TORSDOF 5
ENDMDL
MODEL 5
REMARK VINA RESULT:      -7.6      2.026      3.469
REMARK  5 active torsions:
REMARK  status: ('A' for Active; 'I' for Inactive)
REMARK    1  A    between atoms: C_2  and  O_3 
REMARK    2  A    between atoms: O_3  and  C_4 
REMARK    3  A    between atoms: C_6  and  C_7 
REMARK    4  A    between atoms: C_7  and  N_8 
REMARK       I    between atoms: N_8  and  C_9 
REMARK       I    between atoms: C_9  and  N_10 
REMARK    5  A    between atoms: N_10  and  C_11 
ROOT
HETATM    1  N   UNL     1      25.852  45.543  52.162  1.00  0.00    -0.335 N 
HETATM    2  C   UNL     1      25.601  46.778  51.646  1.00  0.00     0.321 C 
HETATM    3  N   UNL     1      25.495  46.854  50.286  1.00  0.00    -0.307 N 
HETATM    4  O   UNL     1      25.506  47.712  52.436  1.00  0.00    -0.247 OA
HETATM    5  H   UNL     1      26.007  45.590  53.161  1.00  0.00     0.165 HD
HETATM    6  H   UNL     1      26.034  46.158  49.800  1.00  0.00     0.170 HD
ENDROOT
BRANCH   1   7
HETATM    7  C   UNL     1      26.133  44.263  51.520  1.00  0.00     0.115 C 
HETATM    8  C   UNL     1      24.836  43.453  51.441  1.00  0.00     0.037 C 
BRANCH   7   9
HETATM    9  C   UNL     1      27.284  43.581  52.245  1.00  0.00    -0.033 A 
HETATM   10  C   UNL     1      27.656  42.279  51.858  1.00  0.00     0.046 A 
HETATM   11  C   UNL     1      28.738  41.616  52.444  1.00  0.00     0.069 A 
HETATM   12  C   UNL     1      29.449  42.236  53.466  1.00  0.00     0.037 A 
HETATM   13  C   UNL     1      29.096  43.524  53.870  1.00  0.00     0.003 A 
HETATM   14  C   UNL     1      28.031  44.194  53.260  1.00  0.00     0.009 A 
BRANCH  11  15
HETATM   15  O   UNL     1      28.984  40.369  51.942  1.00  0.00    -0.352 OA
BRANCH  15  16
HETATM   16  C   UNL     1      28.432  40.088  50.656  1.00  0.00     0.171 C 
HETATM   17  C   UNL     1      28.980  38.746  50.202  1.00  0.00     0.034 C 
ENDBRANCH  15  16
ENDBRANCH  11  15
ENDBRANCH   7   9
ENDBRANCH   1   7
BRANCH   3  18
HETATM   18  C   UNL     1      25.224  48.021  49.529  1.00  0.00     0.059 A 
HETATM   19  C   UNL     1      26.171  48.902  48.990  1.00  0.00    -0.032 A 
HETATM   20  C   UNL     1      27.655  48.804  49.208  1.00  0.00     0.050 C 
HETATM   21  C   UNL     1      25.709  49.978  48.210  1.00  0.00     0.028 A 
HETATM   22  C   UNL     1      24.348  50.178  48.054  1.00  0.00     0.117 A 
HETATM   23  N   UNL     1      23.412  49.395  48.620  1.00  0.00    -0.271 NA
HETATM   24  C   UNL     1      23.874  48.345  49.339  1.00  0.00     0.146 A 
ENDBRANCH   3  18
TORSDOF 5
ENDMDL
MODEL 6
REMARK VINA RESULT:      -7.5      5.470     10.659
REMARK  5 active torsions:
REMARK  status: ('A' for Active; 'I' for Inactive)
REMARK    1  A    between atoms: C_2  and  O_3 
REMARK    2  A    between atoms: O_3  and  C_4 
REMARK    3  A    between atoms: C_6  and  C_7 
REMARK    4  A    between atoms: C_7  and  N_8 
REMARK       I    between atoms: N_8  and  C_9 
REMARK       I    between atoms: C_9  and  N_10 
REMARK    5  A    between atoms: N_10  and  C_11 
ROOT
HETATM    1  N   UNL     1      20.459  48.307  48.667  1.00  0.00    -0.335 N 
HETATM    2  C   UNL     1      21.790  48.109  48.458  1.00  0.00     0.321 C 
HETATM    3  N   UNL     1      22.616  48.403  49.505  1.00  0.00    -0.307 N 
HETATM    4  O   UNL     1      22.135  47.702  47.352  1.00  0.00    -0.247 OA
HETATM    5  H   UNL     1      19.930  48.156  47.817  1.00  0.00     0.165 HD
HETATM    6  H   UNL     1      22.259  49.122  50.111  1.00  0.00     0.170 HD
ENDROOT
BRANCH   1   7
HETATM    7  C   UNL     1      19.730  48.879  49.793  1.00  0.00     0.115 C 
HETATM    8  C   UNL     1      18.667  47.878  50.254  1.00  0.00     0.037 C 
BRANCH   7   9
HETATM    9  C   UNL     1      19.206  50.254  49.406  1.00  0.00    -0.033 A 
HETATM   10  C   UNL     1      17.930  50.648  49.852  1.00  0.00     0.046 A 
HETATM   11  C   UNL     1      17.411  51.916  49.578  1.00  0.00     0.069 A 
HETATM   12  C   UNL     1      18.152  52.808  48.811  1.00  0.00     0.037 A 
HETATM   13  C   UNL     1      19.417  52.439  48.352  1.00  0.00     0.003 A 
HETATM   14  C   UNL     1      19.944  51.180  48.654  1.00  0.00     0.009 A 
BRANCH  11  15
HETATM   15  O   UNL     1      16.170  52.150  50.101  1.00  0.00    -0.352 OA
BRANCH  15  16
HETATM   16  C   UNL     1      15.492  53.309  49.618  1.00  0.00     0.171 C 
HETATM   17  C   UNL     1      15.136  54.169  50.818  1.00  0.00     0.034 C 
ENDBRANCH  15  16
ENDBRANCH  11  15
ENDBRANCH   7   9
ENDBRANCH   1   7
BRANCH   3  18
HETATM   18  C   UNL     1      24.026  48.263  49.527  1.00  0.00     0.059 A 
HETATM   19  C   UNL     1      24.956  49.105  48.903  1.00  0.00    -0.032 A 
HETATM   20  C   UNL     1      24.602  50.263  48.013  1.00  0.00     0.050 C 
HETATM   21  C   UNL     1      26.325  48.839  49.091  1.00  0.00     0.028 A 
HETATM   22  C   UNL     1      26.715  47.727  49.820  1.00  0.00     0.117 A 
HETATM   23  N   UNL     1      25.848  46.858  50.368  1.00  0.00    -0.271 NA
HETATM   24  C   UNL     1      24.536  47.147  50.207  1.00  0.00     0.146 A 
ENDBRANCH   3  18
TORSDOF 5
ENDMDL
MODEL 7
REMARK VINA RESULT:      -7.4      5.551     10.820
REMARK  5 active torsions:
REMARK  status: ('A' for Active; 'I' for Inactive)
REMARK    1  A    between atoms: C_2  and  O_3 
REMARK    2  A    between atoms: O_3  and  C_4 
REMARK    3  A    between atoms: C_6  and  C_7 
REMARK    4  A    between atoms: C_7  and  N_8 
REMARK       I    between atoms: N_8  and  C_9 
REMARK       I    between atoms: C_9  and  N_10 
REMARK    5  A    between atoms: N_10  and  C_11 
ROOT
HETATM    1  N   UNL     1      20.449  48.104  49.277  1.00  0.00    -0.335 N 
HETATM    2  C   UNL     1      21.742  48.014  48.860  1.00  0.00     0.321 C 
HETATM    3  N   UNL     1      22.591  48.983  49.315  1.00  0.00    -0.307 N 
HETATM    4  O   UNL     1      22.031  47.090  48.106  1.00  0.00    -0.247 OA
HETATM    5  H   UNL     1      19.871  47.407  48.824  1.00  0.00     0.165 HD
HETATM    6  H   UNL     1      22.138  49.860  49.506  1.00  0.00     0.170 HD
ENDROOT
BRANCH   1   7
HETATM    7  C   UNL     1      19.752  49.116  50.063  1.00  0.00     0.115 C 
HETATM    8  C   UNL     1      18.699  48.427  50.936  1.00  0.00     0.037 C 
BRANCH   7   9
HETATM    9  C   UNL     1      19.221  50.196  49.132  1.00  0.00    -0.033 A 
HETATM   10  C   UNL     1      18.189  49.871  48.231  1.00  0.00     0.046 A 
HETATM   11  C   UNL     1      17.618  50.827  47.386  1.00  0.00     0.069 A 
HETATM   12  C   UNL     1      18.103  52.131  47.402  1.00  0.00     0.037 A 
HETATM   13  C   UNL     1      19.129  52.476  48.282  1.00  0.00     0.003 A 
HETATM   14  C   UNL     1      19.676  51.522  49.146  1.00  0.00     0.009 A 
BRANCH  11  15
HETATM   15  O   UNL     1      16.613  50.358  46.588  1.00  0.00    -0.352 OA
BRANCH  15  16
HETATM   16  C   UNL     1      15.396  50.012  47.247  1.00  0.00     0.171 C 
HETATM   17  C   UNL     1      14.789  48.834  46.507  1.00  0.00     0.034 C 
ENDBRANCH  15  16
ENDBRANCH  11  15
ENDBRANCH   7   9
ENDBRANCH   1   7
BRANCH   3  18
HETATM   18  C   UNL     1      23.975  49.087  49.029  1.00  0.00     0.059 A 
HETATM   19  C   UNL     1      25.006  48.348  49.625  1.00  0.00    -0.032 A 
HETATM   20  C   UNL     1      24.821  47.373  50.753  1.00  0.00     0.050 C 
HETATM   21  C   UNL     1      26.320  48.549  49.163  1.00  0.00     0.028 A 
HETATM   22  C   UNL     1      26.569  49.506  48.193  1.00  0.00     0.117 A 
HETATM   23  N   UNL     1      25.613  50.284  47.655  1.00  0.00    -0.271 NA
HETATM   24  C   UNL     1      24.350  50.055  48.087  1.00  0.00     0.146 A 
ENDBRANCH   3  18
TORSDOF 5
ENDMDL
MODEL 8
REMARK VINA RESULT:      -7.3      3.190      4.361
REMARK  5 active torsions:
REMARK  status: ('A' for Active; 'I' for Inactive)
REMARK    1  A    between atoms: C_2  and  O_3 
REMARK    2  A    between atoms: O_3  and  C_4 
REMARK    3  A    between atoms: C_6  and  C_7 
REMARK    4  A    between atoms: C_7  and  N_8 
REMARK       I    between atoms: N_8  and  C_9 
REMARK       I    between atoms: C_9  and  N_10 
REMARK    5  A    between atoms: N_10  and  C_11 
ROOT
HETATM    1  N   UNL     1      26.661  45.165  52.003  1.00  0.00    -0.335 N 
HETATM    2  C   UNL     1      26.153  44.563  50.892  1.00  0.00     0.321 C 
HETATM    3  N   UNL     1      25.253  43.558  51.109  1.00  0.00    -0.307 N 
HETATM    4  O   UNL     1      26.552  44.959  49.801  1.00  0.00    -0.247 OA
HETATM    5  H   UNL     1      27.385  45.830  51.758  1.00  0.00     0.165 HD
HETATM    6  H   UNL     1      25.392  43.073  51.979  1.00  0.00     0.170 HD
ENDROOT
BRANCH   1   7
HETATM    7  C   UNL     1      26.500  44.874  53.423  1.00  0.00     0.115 C 
HETATM    8  C   UNL     1      25.888  46.097  54.113  1.00  0.00     0.037 C 
BRANCH   7   9
HETATM    9  C   UNL     1      27.829  44.402  53.993  1.00  0.00    -0.033 A 
HETATM   10  C   UNL     1      28.558  45.268  54.830  1.00  0.00     0.046 A 
HETATM   11  C   UNL     1      29.758  44.878  55.430  1.00  0.00     0.069 A 
HETATM   12  C   UNL     1      30.275  43.614  55.168  1.00  0.00     0.037 A 
HETATM   13  C   UNL     1      29.574  42.739  54.338  1.00  0.00     0.003 A 
HETATM   14  C   UNL     1      28.358  43.124  53.764  1.00  0.00     0.009 A 
BRANCH  11  15
HETATM   15  O   UNL     1      30.331  45.826  56.231  1.00  0.00    -0.352 OA
BRANCH  15  16
HETATM   16  C   UNL     1      29.823  45.915  57.562  1.00  0.00     0.171 C 
HETATM   17  C   UNL     1      30.796  45.192  58.476  1.00  0.00     0.034 C 
ENDBRANCH  15  16
ENDBRANCH  11  15
ENDBRANCH   7   9
ENDBRANCH   1   7
BRANCH   3  18
HETATM   18  C   UNL     1      24.584  42.802  50.115  1.00  0.00     0.059 A 
HETATM   19  C   UNL     1      25.086  41.677  49.446  1.00  0.00    -0.032 A 
HETATM   20  C   UNL     1      26.477  41.133  49.609  1.00  0.00     0.050 C 
HETATM   21  C   UNL     1      24.245  41.018  48.531  1.00  0.00     0.028 A 
HETATM   22  C   UNL     1      22.986  41.530  48.263  1.00  0.00     0.117 A 
HETATM   23  N   UNL     1      22.504  42.649  48.831  1.00  0.00    -0.271 NA
HETATM   24  C   UNL     1      23.312  43.251  49.735  1.00  0.00     0.146 A 
ENDBRANCH   3  18
TORSDOF 5
ENDMDL
MODEL 9
REMARK VINA RESULT:      -7.3      3.442      5.053
REMARK  5 active torsions:
REMARK  status: ('A' for Active; 'I' for Inactive)
REMARK    1  A    between atoms: C_2  and  O_3 
REMARK    2  A    between atoms: O_3  and  C_4 
REMARK    3  A    between atoms: C_6  and  C_7 
REMARK    4  A    between atoms: C_7  and  N_8 
REMARK       I    between atoms: N_8  and  C_9 
REMARK       I    between atoms: C_9  and  N_10 
REMARK    5  A    between atoms: N_10  and  C_11 
ROOT
HETATM    1  N   UNL     1      26.902  44.843  51.773  1.00  0.00    -0.335 N 
HETATM    2  C   UNL     1      26.828  44.072  50.652  1.00  0.00     0.321 C 
HETATM    3  N   UNL     1      26.333  42.810  50.820  1.00  0.00    -0.307 N 
HETATM    4  O   UNL     1      27.223  44.565  49.600  1.00  0.00    -0.247 OA
HETATM    5  H   UNL     1      27.364  45.724  51.579  1.00  0.00     0.165 HD
HETATM    6  H   UNL     1      26.500  42.430  51.736  1.00  0.00     0.170 HD
ENDROOT
BRANCH   1   7
HETATM    7  C   UNL     1      26.636  44.543  53.175  1.00  0.00     0.115 C 
HETATM    8  C   UNL     1      25.840  45.699  53.786  1.00  0.00     0.037 C 
BRANCH   7   9
HETATM    9  C   UNL     1      27.947  44.214  53.875  1.00  0.00    -0.033 A 
HETATM   10  C   UNL     1      28.519  45.169  54.735  1.00  0.00     0.046 A 
HETATM   11  C   UNL     1      29.691  44.911  55.451  1.00  0.00     0.069 A 
HETATM   12  C   UNL     1      30.340  43.692  55.285  1.00  0.00     0.037 A 
HETATM   13  C   UNL     1      29.795  42.730  54.434  1.00  0.00     0.003 A 
HETATM   14  C   UNL     1      28.606  42.983  53.743  1.00  0.00     0.009 A 
BRANCH  11  15
HETATM   15  O   UNL     1      30.104  45.933  56.259  1.00  0.00    -0.352 OA
BRANCH  15  16
HETATM   16  C   UNL     1      29.528  45.976  57.564  1.00  0.00     0.171 C 
HETATM   17  C   UNL     1      30.529  45.368  58.531  1.00  0.00     0.034 C 
ENDBRANCH  15  16
ENDBRANCH  11  15
ENDBRANCH   7   9
ENDBRANCH   1   7
BRANCH   3  18
HETATM   18  C   UNL     1      26.149  41.839  49.805  1.00  0.00     0.059 A 
HETATM   19  C   UNL     1      24.967  41.592  49.094  1.00  0.00    -0.032 A 
HETATM   20  C   UNL     1      23.650  42.264  49.360  1.00  0.00     0.050 C 
HETATM   21  C   UNL     1      24.996  40.624  48.073  1.00  0.00     0.028 A 
HETATM   22  C   UNL     1      26.155  39.900  47.846  1.00  0.00     0.117 A 
HETATM   23  N   UNL     1      27.283  40.061  48.560  1.00  0.00    -0.271 NA
HETATM   24  C   UNL     1      27.248  41.019  49.515  1.00  0.00     0.146 A 
ENDBRANCH   3  18
TORSDOF 5
ENDMDL
MODEL 10
REMARK VINA RESULT:      -7.2      3.454      7.220
REMARK  5 active torsions:
REMARK  status: ('A' for Active; 'I' for Inactive)
REMARK    1  A    between atoms: C_2  and  O_3 
REMARK    2  A    between atoms: O_3  and  C_4 
REMARK    3  A    between atoms: C_6  and  C_7 
REMARK    4  A    between atoms: C_7  and  N_8 
REMARK       I    between atoms: N_8  and  C_9 
REMARK       I    between atoms: C_9  and  N_10 
REMARK    5  A    between atoms: N_10  and  C_11 
ROOT
HETATM    1  N   UNL     1      25.587  43.761  53.066  1.00  0.00    -0.335 N 
HETATM    2  C   UNL     1      26.425  43.847  54.136  1.00  0.00     0.321 C 
HETATM    3  N   UNL     1      27.582  44.547  53.941  1.00  0.00    -0.307 N 
HETATM    4  O   UNL     1      26.083  43.281  55.170  1.00  0.00    -0.247 OA
HETATM    5  H   UNL     1      24.803  43.152  53.266  1.00  0.00     0.165 HD
HETATM    6  H   UNL     1      27.909  44.529  52.990  1.00  0.00     0.170 HD
ENDROOT
BRANCH   1   7
HETATM    7  C   UNL     1      25.731  44.204  51.684  1.00  0.00     0.115 C 
HETATM    8  C   UNL     1      24.639  45.232  51.377  1.00  0.00     0.037 C 
BRANCH   7   9
HETATM    9  C   UNL     1      25.758  42.988  50.768  1.00  0.00    -0.033 A 
HETATM   10  C   UNL     1      26.923  42.200  50.718  1.00  0.00     0.046 A 
HETATM   11  C   UNL     1      26.996  41.040  49.941  1.00  0.00     0.069 A 
HETATM   12  C   UNL     1      25.906  40.668  49.161  1.00  0.00     0.037 A 
HETATM   13  C   UNL     1      24.742  41.437  49.191  1.00  0.00     0.003 A 
HETATM   14  C   UNL     1      24.664  42.580  49.993  1.00  0.00     0.009 A 
BRANCH  11  15
HETATM   15  O   UNL     1      28.188  40.375  50.018  1.00  0.00    -0.352 OA
BRANCH  15  16
HETATM   16  C   UNL     1      28.134  38.962  49.826  1.00  0.00     0.171 C 
HETATM   17  C   UNL     1      29.550  38.475  49.578  1.00  0.00     0.034 C 
ENDBRANCH  15  16
ENDBRANCH  11  15
ENDBRANCH   7   9
ENDBRANCH   1   7
BRANCH   3  18
HETATM   18  C   UNL     1      28.594  44.781  54.906  1.00  0.00     0.059 A 
HETATM   19  C   UNL     1      29.814  44.101  55.015  1.00  0.00    -0.032 A 
HETATM   20  C   UNL     1      30.218  42.925  54.171  1.00  0.00     0.050 C 
HETATM   21  C   UNL     1      30.722  44.520  56.005  1.00  0.00     0.028 A 
HETATM   22  C   UNL     1      30.366  45.534  56.879  1.00  0.00     0.117 A 
HETATM   23  N   UNL     1      29.175  46.156  56.848  1.00  0.00    -0.271 NA
HETATM   24  C   UNL     1      28.326  45.764  55.869  1.00  0.00     0.146 A 
ENDBRANCH   3  18
TORSDOF 5
ENDMDL
