MODEL 1
REMARK VINA RESULT:      -8.1      0.000      0.000
REMARK  4 active torsions:
REMARK  status: ('A' for Active; 'I' for Inactive)
REMARK    1  A    between atoms: C_5  and  C_6 
REMARK    2  A    between atoms: C_6  and  N_7 
REMARK    3  A    between atoms: C_6  and  C_18 
REMARK    4  A    between atoms: N_7  and  C_8 
ROOT
HETATM    1  C   UNL     1      26.874  45.627  52.541  1.00  0.00     0.288 C 
ENDROOT
BRANCH   1   2
HETATM    2  C   UNL     1      26.855  46.524  53.767  1.00  0.00    -0.003 A 
HETATM    3  C   UNL     1      25.840  47.463  53.938  1.00  0.00     0.126 A 
HETATM    4  N   UNL     1      25.727  48.278  55.009  1.00  0.00    -0.272 NA
HETATM    5  C   UNL     1      26.688  48.185  55.951  1.00  0.00     0.116 A 
HETATM    6  C   UNL     1      27.749  47.300  55.878  1.00  0.00     0.020 A 
HETATM    7  C   UNL     1      27.828  46.455  54.773  1.00  0.00     0.012 A 
ENDBRANCH   1   2
BRANCH   1   8
HETATM    8  N   UNL     1      25.552  45.672  51.870  1.00  0.00     0.101 N 
HETATM    9  H   UNL     1      25.081  46.519  52.177  1.00  0.00     0.317 HD
BRANCH   8  10
HETATM   10  C   UNL     1      25.567  45.505  50.412  1.00  0.00     0.225 C 
HETATM   11  C   UNL     1      26.746  46.191  49.687  1.00  0.00     0.069 C 
HETATM   12  C   UNL     1      26.607  47.701  49.717  1.00  0.00     0.190 C 
HETATM   13  N   UNL     1      25.299  48.078  49.076  1.00  0.00    -0.067 N 
HETATM   14  C   UNL     1      27.585  48.501  48.880  1.00  0.00     0.035 C 
HETATM   15  H   UNL     1      25.272  47.662  48.133  1.00  0.00     0.280 HD
HETATM   16  C   UNL     1      24.115  47.549  49.824  1.00  0.00     0.237 C 
HETATM   17  C   UNL     1      25.378  49.569  48.868  1.00  0.00     0.235 C 
HETATM   18  C   UNL     1      24.221  46.027  49.855  1.00  0.00     0.063 C 
HETATM   19  C   UNL     1      26.876  49.847  48.722  1.00  0.00     0.030 C 
ENDBRANCH   8  10
ENDBRANCH   1   8
BRANCH   1  20
HETATM   20  C   UNL     1      27.368  44.223  52.868  1.00  0.00    -0.021 A 
HETATM   21  C   UNL     1      28.439  43.678  52.134  1.00  0.00     0.012 A 
HETATM   22  C   UNL     1      28.921  42.400  52.420  1.00  0.00     0.043 A 
HETATM   23  C   UNL     1      28.345  41.662  53.444  1.00  0.00     0.116 A 
HETATM   24  F   UNL     1      28.806  40.435  53.715  1.00  0.00    -0.206 F 
HETATM   25  C   UNL     1      27.296  42.180  54.194  1.00  0.00     0.043 A 
HETATM   26  C   UNL     1      26.811  43.458  53.910  1.00  0.00     0.012 A 
ENDBRANCH   1  20
TORSDOF 4
ENDMDL
MODEL 2
REMARK VINA RESULT:      -7.8      2.391      5.825
REMARK  4 active torsions:
REMARK  status: ('A' for Active; 'I' for Inactive)
REMARK    1  A    between atoms: C_5  and  C_6 
REMARK    2  A    between atoms: C_6  and  N_7 
REMARK    3  A    between atoms: C_6  and  C_18 
REMARK    4  A    between atoms: N_7  and  C_8 
ROOT
HETATM    1  C   UNL     1      25.237  46.058  51.363  1.00  0.00     0.288 C 
ENDROOT
BRANCH   1   2
HETATM    2  C   UNL     1      25.363  47.244  50.424  1.00  0.00    -0.003 A 
HETATM    3  C   UNL     1      24.225  47.898  49.956  1.00  0.00     0.126 A 
HETATM    4  N   UNL     1      24.244  48.979  49.146  1.00  0.00    -0.272 NA
HETATM    5  C   UNL     1      25.454  49.420  48.745  1.00  0.00     0.116 A 
HETATM    6  C   UNL     1      26.648  48.840  49.134  1.00  0.00     0.020 A 
HETATM    7  C   UNL     1      26.600  47.741  49.989  1.00  0.00     0.012 A 
ENDBRANCH   1   2
BRANCH   1   8
HETATM    8  N   UNL     1      26.418  46.001  52.258  1.00  0.00     0.101 N 
HETATM    9  H   UNL     1      26.903  46.892  52.181  1.00  0.00     0.317 HD
BRANCH   8  10
HETATM   10  C   UNL     1      26.154  45.594  53.644  1.00  0.00     0.225 C 
HETATM   11  C   UNL     1      27.298  45.886  54.639  1.00  0.00     0.069 C 
HETATM   12  C   UNL     1      28.492  44.985  54.386  1.00  0.00     0.190 C 
HETATM   13  N   UNL     1      28.047  43.551  54.496  1.00  0.00    -0.067 N 
HETATM   14  C   UNL     1      29.613  45.022  55.405  1.00  0.00     0.035 C 
HETATM   15  H   UNL     1      27.599  43.424  55.415  1.00  0.00     0.280 HD
HETATM   16  C   UNL     1      27.034  43.180  53.458  1.00  0.00     0.237 C 
HETATM   17  C   UNL     1      29.320  42.747  54.541  1.00  0.00     0.235 C 
HETATM   18  C   UNL     1      25.818  44.084  53.644  1.00  0.00     0.063 C 
HETATM   19  C   UNL     1      30.345  43.703  55.153  1.00  0.00     0.030 C 
ENDBRANCH   8  10
ENDBRANCH   1   8
BRANCH   1  20
HETATM   20  C   UNL     1      24.953  44.763  50.611  1.00  0.00    -0.021 A 
HETATM   21  C   UNL     1      26.002  44.111  49.934  1.00  0.00     0.012 A 
HETATM   22  C   UNL     1      25.774  42.917  49.248  1.00  0.00     0.043 A 
HETATM   23  C   UNL     1      24.503  42.361  49.242  1.00  0.00     0.116 A 
HETATM   24  F   UNL     1      24.285  41.217  48.581  1.00  0.00    -0.206 F 
HETATM   25  C   UNL     1      23.453  42.974  49.913  1.00  0.00     0.043 A 
HETATM   26  C   UNL     1      23.677  44.170  50.600  1.00  0.00     0.012 A 
ENDBRANCH   1  20
TORSDOF 4
ENDMDL
MODEL 3
REMARK VINA RESULT:      -7.7      2.636      4.932
REMARK  4 active torsions:
REMARK  status: ('A' for Active; 'I' for Inactive)
REMARK    1  A    between atoms: C_5  and  C_6 
REMARK    2  A    between atoms: C_6  and  N_7 
REMARK    3  A    between atoms: C_6  and  C_18 
REMARK    4  A    between atoms: N_7  and  C_8 
ROOT
HETATM    1  C   UNL     1      27.842  43.946  54.160  1.00  0.00     0.288 C 
ENDROOT
BRANCH   1   2
HETATM    2  C   UNL     1      28.030  42.810  53.170  1.00  0.00    -0.003 A 
HETATM    3  C   UNL     1      28.017  43.061  51.799  1.00  0.00     0.126 A 
HETATM    4  N   UNL     1      28.208  42.120  50.849  1.00  0.00    -0.272 NA
HETATM    5  C   UNL     1      28.386  40.852  51.274  1.00  0.00     0.116 A 
HETATM    6  C   UNL     1      28.402  40.486  52.608  1.00  0.00     0.020 A 
HETATM    7  C   UNL     1      28.227  41.481  53.566  1.00  0.00     0.012 A 
ENDBRANCH   1   2
BRANCH   1   8
HETATM    8  N   UNL     1      27.490  45.190  53.433  1.00  0.00     0.101 N 
HETATM    9  H   UNL     1      27.704  45.041  52.450  1.00  0.00     0.317 HD
BRANCH   8  10
HETATM   10  C   UNL     1      26.136  45.707  53.666  1.00  0.00     0.225 C 
HETATM   11  C   UNL     1      25.001  44.887  53.014  1.00  0.00     0.069 C 
HETATM   12  C   UNL     1      25.016  45.028  51.504  1.00  0.00     0.190 C 
HETATM   13  N   UNL     1      24.883  46.486  51.155  1.00  0.00    -0.067 N 
HETATM   14  C   UNL     1      23.846  44.438  50.744  1.00  0.00     0.035 C 
HETATM   15  H   UNL     1      24.035  46.850  51.613  1.00  0.00     0.280 HD
HETATM   16  C   UNL     1      26.035  47.305  51.649  1.00  0.00     0.237 C 
HETATM   17  C   UNL     1      24.598  46.511  49.676  1.00  0.00     0.235 C 
HETATM   18  C   UNL     1      26.090  47.171  53.168  1.00  0.00     0.063 C 
HETATM   19  C   UNL     1      23.901  45.176  49.406  1.00  0.00     0.030 C 
ENDBRANCH   8  10
ENDBRANCH   1   8
BRANCH   1  20
HETATM   20  C   UNL     1      29.032  44.084  55.104  1.00  0.00    -0.021 A 
HETATM   21  C   UNL     1      29.120  45.209  55.946  1.00  0.00     0.012 A 
HETATM   22  C   UNL     1      30.191  45.355  56.829  1.00  0.00     0.043 A 
HETATM   23  C   UNL     1      31.174  44.377  56.884  1.00  0.00     0.116 A 
HETATM   24  F   UNL     1      32.202  44.519  57.730  1.00  0.00    -0.206 F 
HETATM   25  C   UNL     1      31.105  43.250  56.075  1.00  0.00     0.043 A 
HETATM   26  C   UNL     1      30.035  43.101  55.189  1.00  0.00     0.012 A 
ENDBRANCH   1  20
TORSDOF 4
ENDMDL
MODEL 4
REMARK VINA RESULT:      -7.5      2.658      5.894
REMARK  4 active torsions:
REMARK  status: ('A' for Active; 'I' for Inactive)
REMARK    1  A    between atoms: C_5  and  C_6 
REMARK    2  A    between atoms: C_6  and  N_7 
REMARK    3  A    between atoms: C_6  and  C_18 
REMARK    4  A    between atoms: N_7  and  C_8 
ROOT
HETATM    1  C   UNL     1      26.491  43.889  53.310  1.00  0.00     0.288 C 
ENDROOT
BRANCH   1   2
HETATM    2  C   UNL     1      26.255  45.055  52.365  1.00  0.00    -0.003 A 
HETATM    3  C   UNL     1      25.464  46.132  52.758  1.00  0.00     0.126 A 
HETATM    4  N   UNL     1      25.227  47.223  51.998  1.00  0.00    -0.272 NA
HETATM    5  C   UNL     1      25.773  47.237  50.764  1.00  0.00     0.116 A 
HETATM    6  C   UNL     1      26.561  46.217  50.264  1.00  0.00     0.020 A 
HETATM    7  C   UNL     1      26.809  45.115  51.079  1.00  0.00     0.012 A 
ENDBRANCH   1   2
BRANCH   1   8
HETATM    8  N   UNL     1      27.230  44.359  54.506  1.00  0.00     0.101 N 
HETATM    9  H   UNL     1      27.431  43.544  55.081  1.00  0.00     0.317 HD
BRANCH   8  10
HETATM   10  C   UNL     1      28.407  45.198  54.246  1.00  0.00     0.225 C 
HETATM   11  C   UNL     1      29.767  44.516  54.511  1.00  0.00     0.069 C 
HETATM   12  C   UNL     1      29.995  44.300  55.994  1.00  0.00     0.190 C 
HETATM   13  N   UNL     1      29.926  45.632  56.692  1.00  0.00    -0.067 N 
HETATM   14  C   UNL     1      31.369  43.820  56.419  1.00  0.00     0.035 C 
HETATM   15  H   UNL     1      30.600  46.267  56.241  1.00  0.00     0.280 HD
HETATM   16  C   UNL     1      28.577  46.272  56.581  1.00  0.00     0.237 C 
HETATM   17  C   UNL     1      30.460  45.378  58.078  1.00  0.00     0.235 C 
HETATM   18  C   UNL     1      28.278  46.482  55.099  1.00  0.00     0.063 C 
HETATM   19  C   UNL     1      31.421  44.201  57.899  1.00  0.00     0.030 C 
ENDBRANCH   8  10
ENDBRANCH   1   8
BRANCH   1  20
HETATM   20  C   UNL     1      27.129  42.700  52.601  1.00  0.00    -0.021 A 
HETATM   21  C   UNL     1      28.141  41.969  53.252  1.00  0.00     0.012 A 
HETATM   22  C   UNL     1      28.734  40.867  52.633  1.00  0.00     0.043 A 
HETATM   23  C   UNL     1      28.316  40.483  51.367  1.00  0.00     0.116 A 
HETATM   24  F   UNL     1      28.887  39.428  50.773  1.00  0.00    -0.206 F 
HETATM   25  C   UNL     1      27.310  41.178  50.707  1.00  0.00     0.043 A 
HETATM   26  C   UNL     1      26.714  42.281  51.324  1.00  0.00     0.012 A 
ENDBRANCH   1  20
TORSDOF 4
ENDMDL
MODEL 5
REMARK VINA RESULT:      -7.5      2.640      5.041
REMARK  4 active torsions:
REMARK  status: ('A' for Active; 'I' for Inactive)
REMARK    1  A    between atoms: C_5  and  C_6 
REMARK    2  A    between atoms: C_6  and  N_7 
REMARK    3  A    between atoms: C_6  and  C_18 
REMARK    4  A    between atoms: N_7  and  C_8 
ROOT
HETATM    1  C   UNL     1      27.113  43.521  52.255  1.00  0.00     0.288 C 
ENDROOT
BRANCH   1   2
HETATM    2  C   UNL     1      27.286  42.512  51.133  1.00  0.00    -0.003 A 
HETATM    3  C   UNL     1      27.130  42.903  49.804  1.00  0.00     0.126 A 
HETATM    4  N   UNL     1      27.297  42.083  48.743  1.00  0.00    -0.272 NA
HETATM    5  C   UNL     1      27.600  40.795  49.009  1.00  0.00     0.116 A 
HETATM    6  C   UNL     1      27.763  40.295  50.288  1.00  0.00     0.020 A 
HETATM    7  C   UNL     1      27.609  41.168  51.362  1.00  0.00     0.012 A 
ENDBRANCH   1   2
BRANCH   1   8
HETATM    8  N   UNL     1      26.763  44.845  51.687  1.00  0.00     0.101 N 
HETATM    9  H   UNL     1      26.826  44.770  50.675  1.00  0.00     0.317 HD
BRANCH   8  10
HETATM   10  C   UNL     1      25.501  45.432  52.155  1.00  0.00     0.225 C 
HETATM   11  C   UNL     1      24.245  44.572  51.894  1.00  0.00     0.069 C 
HETATM   12  C   UNL     1      23.910  44.522  50.415  1.00  0.00     0.190 C 
HETATM   13  N   UNL     1      23.703  45.927  49.919  1.00  0.00    -0.067 N 
HETATM   14  C   UNL     1      22.594  43.878  50.027  1.00  0.00     0.035 C 
HETATM   15  H   UNL     1      22.985  46.374  50.508  1.00  0.00     0.280 HD
HETATM   16  C   UNL     1      24.940  46.765  50.024  1.00  0.00     0.237 C 
HETATM   17  C   UNL     1      23.083  45.775  48.554  1.00  0.00     0.235 C 
HETATM   18  C   UNL     1      25.345  46.822  51.494  1.00  0.00     0.063 C 
HETATM   19  C   UNL     1      22.340  44.440  48.628  1.00  0.00     0.030 C 
ENDBRANCH   8  10
ENDBRANCH   1   8
BRANCH   1  20
HETATM   20  C   UNL     1      28.310  43.535  53.199  1.00  0.00    -0.021 A 
HETATM   21  C   UNL     1      28.225  44.246  54.412  1.00  0.00     0.012 A 
HETATM   22  C   UNL     1      29.300  44.267  55.301  1.00  0.00     0.043 A 
HETATM   23  C   UNL     1      30.461  43.572  54.992  1.00  0.00     0.116 A 
HETATM   24  F   UNL     1      31.493  43.595  55.844  1.00  0.00    -0.206 F 
HETATM   25  C   UNL     1      30.567  42.852  53.809  1.00  0.00     0.043 A 
HETATM   26  C   UNL     1      29.493  42.829  52.916  1.00  0.00     0.012 A 
ENDBRANCH   1  20
TORSDOF 4
ENDMDL
MODEL 6
REMARK VINA RESULT:      -7.5      3.081      6.195
REMARK  4 active torsions:
REMARK  status: ('A' for Active; 'I' for Inactive)
REMARK    1  A    between atoms: C_5  and  C_6 
REMARK    2  A    between atoms: C_6  and  N_7 
REMARK    3  A    between atoms: C_6  and  C_18 
REMARK    4  A    between atoms: N_7  and  C_8 
ROOT
HETATM    1  C   UNL     1      26.038  44.063  51.538  1.00  0.00     0.288 C 
ENDROOT
BRANCH   1   2
HETATM    2  C   UNL     1      26.365  45.383  50.862  1.00  0.00    -0.003 A 
HETATM    3  C   UNL     1      27.258  45.425  49.793  1.00  0.00     0.126 A 
HETATM    4  N   UNL     1      27.583  46.547  49.113  1.00  0.00    -0.272 NA
HETATM    5  C   UNL     1      27.021  47.699  49.533  1.00  0.00     0.116 A 
HETATM    6  C   UNL     1      26.134  47.777  50.592  1.00  0.00     0.020 A 
HETATM    7  C   UNL     1      25.799  46.602  51.259  1.00  0.00     0.012 A 
ENDBRANCH   1   2
BRANCH   1   8
HETATM    8  N   UNL     1      27.277  43.463  52.087  1.00  0.00     0.101 N 
HETATM    9  H   UNL     1      28.022  44.148  51.982  1.00  0.00     0.317 HD
BRANCH   8  10
HETATM   10  C   UNL     1      27.177  42.911  53.444  1.00  0.00     0.225 C 
HETATM   11  C   UNL     1      27.070  43.961  54.571  1.00  0.00     0.069 C 
HETATM   12  C   UNL     1      28.376  44.709  54.753  1.00  0.00     0.190 C 
HETATM   13  N   UNL     1      29.464  43.714  55.057  1.00  0.00    -0.067 N 
HETATM   14  C   UNL     1      28.482  45.633  55.949  1.00  0.00     0.035 C 
HETATM   15  H   UNL     1      29.170  43.157  55.873  1.00  0.00     0.280 HD
HETATM   16  C   UNL     1      29.700  42.755  53.933  1.00  0.00     0.237 C 
HETATM   17  C   UNL     1      30.635  44.541  55.522  1.00  0.00     0.235 C 
HETATM   18  C   UNL     1      28.401  41.995  53.681  1.00  0.00     0.063 C 
HETATM   19  C   UNL     1      29.993  45.793  56.123  1.00  0.00     0.030 C 
ENDBRANCH   8  10
ENDBRANCH   1   8
BRANCH   1  20
HETATM   20  C   UNL     1      25.239  43.138  50.627  1.00  0.00    -0.021 A 
HETATM   21  C   UNL     1      23.911  43.470  50.298  1.00  0.00     0.012 A 
HETATM   22  C   UNL     1      23.160  42.648  49.456  1.00  0.00     0.043 A 
HETATM   23  C   UNL     1      23.731  41.497  48.931  1.00  0.00     0.116 A 
HETATM   24  F   UNL     1      23.008  40.708  48.126  1.00  0.00    -0.206 F 
HETATM   25  C   UNL     1      25.043  41.153  49.228  1.00  0.00     0.043 A 
HETATM   26  C   UNL     1      25.798  41.972  50.070  1.00  0.00     0.012 A 
ENDBRANCH   1  20
TORSDOF 4
ENDMDL
MODEL 7
REMARK VINA RESULT:      -7.5     11.624     13.612
REMARK  4 active torsions:
REMARK  status: ('A' for Active; 'I' for Inactive)
REMARK    1  A    between atoms: C_5  and  C_6 
REMARK    2  A    between atoms: C_6  and  N_7 
REMARK    3  A    between atoms: C_6  and  C_18 
REMARK    4  A    between atoms: N_7  and  C_8 
ROOT
HETATM    1  C   UNL     1      29.352  49.401  40.556  1.00  0.00     0.288 C 
ENDROOT
BRANCH   1   2
HETATM    2  C   UNL     1      29.216  50.676  39.742  1.00  0.00    -0.003 A 
HETATM    3  C   UNL     1      29.254  50.630  38.349  1.00  0.00     0.126 A 
HETATM    4  N   UNL     1      29.110  51.707  37.546  1.00  0.00    -0.272 NA
HETATM    5  C   UNL     1      28.954  52.903  38.151  1.00  0.00     0.116 A 
HETATM    6  C   UNL     1      28.917  53.068  39.524  1.00  0.00     0.020 A 
HETATM    7  C   UNL     1      29.044  51.937  40.327  1.00  0.00     0.012 A 
ENDBRANCH   1   2
BRANCH   1   8
HETATM    8  N   UNL     1      30.722  48.855  40.403  1.00  0.00     0.101 N 
HETATM    9  H   UNL     1      31.294  49.579  39.977  1.00  0.00     0.317 HD
BRANCH   8  10
HETATM   10  C   UNL     1      31.318  48.270  41.611  1.00  0.00     0.225 C 
HETATM   11  C   UNL     1      31.252  49.163  42.870  1.00  0.00     0.069 C 
HETATM   12  C   UNL     1      32.175  50.359  42.746  1.00  0.00     0.190 C 
HETATM   13  N   UNL     1      33.579  49.864  42.520  1.00  0.00    -0.067 N 
HETATM   14  C   UNL     1      32.363  51.217  43.981  1.00  0.00     0.035 C 
HETATM   15  H   UNL     1      33.817  49.214  43.284  1.00  0.00     0.280 HD
HETATM   16  C   UNL     1      33.725  49.107  41.237  1.00  0.00     0.237 C 
HETATM   17  C   UNL     1      34.458  51.072  42.716  1.00  0.00     0.235 C 
HETATM   18  C   UNL     1      32.786  47.904  41.292  1.00  0.00     0.063 C 
HETATM   19  C   UNL     1      33.671  51.954  43.688  1.00  0.00     0.030 C 
ENDBRANCH   8  10
ENDBRANCH   1   8
BRANCH   1  20
HETATM   20  C   UNL     1      28.238  48.406  40.249  1.00  0.00    -0.021 A 
HETATM   21  C   UNL     1      26.943  48.643  40.748  1.00  0.00     0.012 A 
HETATM   22  C   UNL     1      25.901  47.756  40.472  1.00  0.00     0.043 A 
HETATM   23  C   UNL     1      26.142  46.635  39.691  1.00  0.00     0.116 A 
HETATM   24  F   UNL     1      25.142  45.783  39.429  1.00  0.00    -0.206 F 
HETATM   25  C   UNL     1      27.407  46.384  39.174  1.00  0.00     0.043 A 
HETATM   26  C   UNL     1      28.452  47.269  39.448  1.00  0.00     0.012 A 
ENDBRANCH   1  20
TORSDOF 4
ENDMDL
MODEL 8
REMARK VINA RESULT:      -7.4      3.198      6.087
REMARK  4 active torsions:
REMARK  status: ('A' for Active; 'I' for Inactive)
REMARK    1  A    between atoms: C_5  and  C_6 
REMARK    2  A    between atoms: C_6  and  N_7 
REMARK    3  A    between atoms: C_6  and  C_18 
REMARK    4  A    between atoms: N_7  and  C_8 
ROOT
HETATM    1  C   UNL     1      26.402  43.437  51.393  1.00  0.00     0.288 C 
ENDROOT
BRANCH   1   2
HETATM    2  C   UNL     1      26.309  44.893  50.971  1.00  0.00    -0.003 A 
HETATM    3  C   UNL     1      26.989  45.344  49.842  1.00  0.00     0.126 A 
HETATM    4  N   UNL     1      26.938  46.611  49.376  1.00  0.00    -0.272 NA
HETATM    5  C   UNL     1      26.201  47.492  50.083  1.00  0.00     0.116 A 
HETATM    6  C   UNL     1      25.497  47.159  51.226  1.00  0.00     0.020 A 
HETATM    7  C   UNL     1      25.548  45.840  51.671  1.00  0.00     0.012 A 
ENDBRANCH   1   2
BRANCH   1   8
HETATM    8  N   UNL     1      27.694  43.198  52.081  1.00  0.00     0.101 N 
HETATM    9  H   UNL     1      28.237  44.055  52.017  1.00  0.00     0.317 HD
BRANCH   8  10
HETATM   10  C   UNL     1      27.606  42.659  53.443  1.00  0.00     0.225 C 
HETATM   11  C   UNL     1      27.296  43.702  54.540  1.00  0.00     0.069 C 
HETATM   12  C   UNL     1      28.473  44.631  54.764  1.00  0.00     0.190 C 
HETATM   13  N   UNL     1      29.674  43.807  55.142  1.00  0.00    -0.067 N 
HETATM   14  C   UNL     1      28.388  45.580  55.943  1.00  0.00     0.035 C 
HETATM   15  H   UNL     1      29.423  43.227  55.956  1.00  0.00     0.280 HD
HETATM   16  C   UNL     1      30.099  42.873  54.052  1.00  0.00     0.237 C 
HETATM   17  C   UNL     1      30.692  44.800  55.641  1.00  0.00     0.235 C 
HETATM   18  C   UNL     1      28.934  41.932  53.758  1.00  0.00     0.063 C 
HETATM   19  C   UNL     1      29.850  45.957  56.183  1.00  0.00     0.030 C 
ENDBRANCH   8  10
ENDBRANCH   1   8
BRANCH   1  20
HETATM   20  C   UNL     1      26.119  42.487  50.235  1.00  0.00    -0.021 A 
HETATM   21  C   UNL     1      27.179  41.754  49.667  1.00  0.00     0.012 A 
HETATM   22  C   UNL     1      26.947  40.868  48.614  1.00  0.00     0.043 A 
HETATM   23  C   UNL     1      25.658  40.700  48.128  1.00  0.00     0.116 A 
HETATM   24  F   UNL     1      25.438  39.852  47.116  1.00  0.00    -0.206 F 
HETATM   25  C   UNL     1      24.592  41.400  48.678  1.00  0.00     0.043 A 
HETATM   26  C   UNL     1      24.820  42.288  49.732  1.00  0.00     0.012 A 
ENDBRANCH   1  20
TORSDOF 4
ENDMDL
MODEL 9
REMARK VINA RESULT:      -7.3      5.148      8.276
REMARK  4 active torsions:
REMARK  status: ('A' for Active; 'I' for Inactive)
REMARK    1  A    between atoms: C_5  and  C_6 
REMARK    2  A    between atoms: C_6  and  N_7 
REMARK    3  A    between atoms: C_6  and  C_18 
REMARK    4  A    between atoms: N_7  and  C_8 
ROOT
HETATM    1  C   UNL     1      22.697  48.389  49.023  1.00  0.00     0.288 C 
ENDROOT
BRANCH   1   2
HETATM    2  C   UNL     1      22.326  47.129  48.260  1.00  0.00    -0.003 A 
HETATM    3  C   UNL     1      22.741  45.880  48.718  1.00  0.00     0.126 A 
HETATM    4  N   UNL     1      22.432  44.708  48.123  1.00  0.00    -0.272 NA
HETATM    5  C   UNL     1      21.700  44.772  46.991  1.00  0.00     0.116 A 
HETATM    6  C   UNL     1      21.247  45.957  46.439  1.00  0.00     0.020 A 
HETATM    7  C   UNL     1      21.561  47.149  47.086  1.00  0.00     0.012 A 
ENDBRANCH   1   2
BRANCH   1   8
HETATM    8  N   UNL     1      21.873  49.524  48.542  1.00  0.00     0.101 N 
HETATM    9  H   UNL     1      21.450  49.244  47.660  1.00  0.00     0.317 HD
BRANCH   8  10
HETATM   10  C   UNL     1      20.910  50.073  49.505  1.00  0.00     0.225 C 
HETATM   11  C   UNL     1      19.764  49.117  49.900  1.00  0.00     0.069 C 
HETATM   12  C   UNL     1      18.800  48.906  48.748  1.00  0.00     0.190 C 
HETATM   13  N   UNL     1      18.253  50.244  48.326  1.00  0.00    -0.067 N 
HETATM   14  C   UNL     1      17.522  48.149  49.047  1.00  0.00     0.035 C 
HETATM   15  H   UNL     1      17.841  50.698  49.154  1.00  0.00     0.280 HD
HETATM   16  C   UNL     1      19.314  51.162  47.803  1.00  0.00     0.237 C 
HETATM   17  C   UNL     1      17.099  49.925  47.411  1.00  0.00     0.235 C 
HETATM   18  C   UNL     1      20.335  51.382  48.916  1.00  0.00     0.063 C 
HETATM   19  C   UNL     1      16.606  48.559  47.893  1.00  0.00     0.030 C 
ENDBRANCH   8  10
ENDBRANCH   1   8
BRANCH   1  20
HETATM   20  C   UNL     1      24.199  48.648  49.004  1.00  0.00    -0.021 A 
HETATM   21  C   UNL     1      24.712  49.683  48.199  1.00  0.00     0.012 A 
HETATM   22  C   UNL     1      26.082  49.951  48.172  1.00  0.00     0.043 A 
HETATM   23  C   UNL     1      26.945  49.195  48.952  1.00  0.00     0.116 A 
HETATM   24  F   UNL     1      28.259  49.451  48.923  1.00  0.00    -0.206 F 
HETATM   25  C   UNL     1      26.464  48.177  49.766  1.00  0.00     0.043 A 
HETATM   26  C   UNL     1      25.095  47.906  49.796  1.00  0.00     0.012 A 
ENDBRANCH   1  20
TORSDOF 4
ENDMDL
MODEL 10
REMARK VINA RESULT:      -7.2      4.170      6.621
REMARK  4 active torsions:
REMARK  status: ('A' for Active; 'I' for Inactive)
REMARK    1  A    between atoms: C_5  and  C_6 
REMARK    2  A    between atoms: C_6  and  N_7 
REMARK    3  A    between atoms: C_6  and  C_18 
REMARK    4  A    between atoms: N_7  and  C_8 
ROOT
HETATM    1  C   UNL     1      26.912  43.421  51.770  1.00  0.00     0.288 C 
ENDROOT
BRANCH   1   2
HETATM    2  C   UNL     1      28.093  43.401  52.724  1.00  0.00    -0.003 A 
HETATM    3  C   UNL     1      29.217  42.628  52.439  1.00  0.00     0.126 A 
HETATM    4  N   UNL     1      30.323  42.575  53.212  1.00  0.00    -0.272 NA
HETATM    5  C   UNL     1      30.307  43.300  54.350  1.00  0.00     0.116 A 
HETATM    6  C   UNL     1      29.241  44.090  54.740  1.00  0.00     0.020 A 
HETATM    7  C   UNL     1      28.123  44.144  53.912  1.00  0.00     0.012 A 
ENDBRANCH   1   2
BRANCH   1   8
HETATM    8  N   UNL     1      27.123  42.422  50.694  1.00  0.00     0.101 N 
HETATM    9  H   UNL     1      28.003  41.950  50.883  1.00  0.00     0.317 HD
BRANCH   8  10
HETATM   10  C   UNL     1      26.006  41.502  50.444  1.00  0.00     0.225 C 
HETATM   11  C   UNL     1      26.336  40.006  50.635  1.00  0.00     0.069 C 
HETATM   12  C   UNL     1      27.262  39.503  49.543  1.00  0.00     0.190 C 
HETATM   13  N   UNL     1      26.605  39.735  48.209  1.00  0.00    -0.067 N 
HETATM   14  C   UNL     1      27.517  38.010  49.488  1.00  0.00     0.035 C 
HETATM   15  H   UNL     1      25.677  39.288  48.226  1.00  0.00     0.280 HD
HETATM   16  C   UNL     1      26.388  41.187  47.917  1.00  0.00     0.237 C 
HETATM   17  C   UNL     1      27.427  38.945  47.223  1.00  0.00     0.235 C 
HETATM   18  C   UNL     1      25.487  41.757  49.009  1.00  0.00     0.063 C 
HETATM   19  C   UNL     1      28.012  37.802  48.056  1.00  0.00     0.030 C 
ENDBRANCH   8  10
ENDBRANCH   1   8
BRANCH   1  20
HETATM   20  C   UNL     1      26.603  44.828  51.272  1.00  0.00    -0.021 A 
HETATM   21  C   UNL     1      27.146  45.263  50.047  1.00  0.00     0.012 A 
HETATM   22  C   UNL     1      26.870  46.541  49.560  1.00  0.00     0.043 A 
HETATM   23  C   UNL     1      26.045  47.389  50.286  1.00  0.00     0.116 A 
HETATM   24  F   UNL     1      25.784  48.617  49.819  1.00  0.00    -0.206 F 
HETATM   25  C   UNL     1      25.486  46.982  51.490  1.00  0.00     0.043 A 
HETATM   26  C   UNL     1      25.760  45.703  51.981  1.00  0.00     0.012 A 
ENDBRANCH   1  20
TORSDOF 4
ENDMDL
