MODEL 1
REMARK VINA RESULT:     -11.0      0.000      0.000
REMARK  8 active torsions:
REMARK  status: ('A' for Active; 'I' for Inactive)
REMARK    1  A    between atoms: O_2  and  C_3 
REMARK    2  A    between atoms: C_4  and  C_5 
REMARK    3  A    between atoms: N_6  and  N_7 
REMARK    4  A    between atoms: C_18  and  C_19 
REMARK       I    between atoms: C_19  and  N_20 
REMARK    5  A    between atoms: N_20  and  C_21 
REMARK    6  A    between atoms: C_21  and  C_22 
REMARK    7  A    between atoms: C_22  and  C_23 
REMARK    8  A    between atoms: C_30  and  N_31 
ROOT
HETATM    1  N   UNL     1      27.706  42.263  53.016  1.00  0.00    -0.202 N 
HETATM    2  C   UNL     1      28.039  41.374  52.013  1.00  0.00     0.183 A 
HETATM    3  C   UNL     1      27.512  41.894  50.834  1.00  0.00     0.124 A 
HETATM    4  N   UNL     1      27.731  41.284  49.642  1.00  0.00    -0.242 NA
HETATM    5  C   UNL     1      28.423  40.140  49.710  1.00  0.00     0.086 A 
HETATM    6  C   UNL     1      28.941  39.624  50.927  1.00  0.00     0.088 A 
HETATM    7  N   UNL     1      28.791  40.251  52.109  1.00  0.00    -0.225 NA
HETATM    8  C   UNL     1      28.622  39.433  48.530  1.00  0.00     0.034 A 
HETATM    9  C   UNL     1      29.306  38.218  48.516  1.00  0.00     0.002 A 
HETATM   10  C   UNL     1      29.805  37.703  49.703  1.00  0.00     0.002 A 
HETATM   11  C   UNL     1      29.623  38.412  50.893  1.00  0.00     0.034 A 
HETATM   12  C   UNL     1      26.811  43.092  51.146  1.00  0.00     0.104 C 
HETATM   13  C   UNL     1      26.733  43.130  52.529  1.00  0.00     0.123 C 
ENDROOT
BRANCH  12  14
HETATM   14  C   UNL     1      26.357  44.114  50.212  1.00  0.00     0.257 C 
HETATM   15  N   UNL     1      25.036  44.481  50.363  1.00  0.00    -0.356 N 
HETATM   16  H   UNL     1      24.618  44.147  51.225  1.00  0.00     0.162 HD
HETATM   17  O   UNL     1      27.130  44.669  49.440  1.00  0.00    -0.267 OA
BRANCH  15  18
HETATM   18  C   UNL     1      24.469  45.701  49.820  1.00  0.00     0.127 C 
BRANCH  18  19
HETATM   19  C   UNL     1      24.781  47.015  50.549  1.00  0.00     0.053 C 
BRANCH  19  20
HETATM   20  C   UNL     1      25.566  48.039  49.758  1.00  0.00    -0.082 C 
HETATM   21  C   UNL     1      24.784  49.063  48.974  1.00  0.00     0.034 C 
HETATM   22  C   UNL     1      25.643  49.852  47.979  1.00  0.00     0.005 C 
HETATM   23  C   UNL     1      26.980  50.255  48.591  1.00  0.00     0.004 C 
HETATM   24  C   UNL     1      27.766  49.029  49.050  1.00  0.00     0.027 C 
HETATM   25  C   UNL     1      26.911  48.038  49.776  1.00  0.00    -0.024 C 
ENDBRANCH  19  20
ENDBRANCH  18  19
ENDBRANCH  15  18
ENDBRANCH  12  14
BRANCH  13  26
HETATM   26  N   UNL     1      26.064  43.966  53.391  1.00  0.00    -0.286 NA
HETATM   27  H   UNL     1      25.071  43.750  53.507  1.00  0.00     0.125 HD
HETATM   28  H   UNL     1      26.470  43.956  54.337  1.00  0.00     0.125 HD
ENDBRANCH  13  26
BRANCH   1  29
HETATM   29  N   UNL     1      28.283  42.498  54.239  1.00  0.00    -0.176 NA
HETATM   30  C   UNL     1      29.361  43.213  54.104  1.00  0.00     0.153 C 
BRANCH  30  31
HETATM   31  C   UNL     1      29.950  43.968  55.233  1.00  0.00     0.016 A 
HETATM   32  C   UNL     1      29.398  45.210  55.597  1.00  0.00     0.080 A 
HETATM   33  C   UNL     1      29.824  45.812  56.785  1.00  0.00     0.037 A 
HETATM   34  C   UNL     1      30.777  45.187  57.596  1.00  0.00     0.003 A 
HETATM   35  C   UNL     1      31.329  43.964  57.220  1.00  0.00     0.001 A 
HETATM   36  C   UNL     1      30.917  43.352  56.038  1.00  0.00     0.016 A 
BRANCH  32  37
HETATM   37  O   UNL     1      28.450  45.736  54.759  1.00  0.00    -0.355 OA
HETATM   38  C   UNL     1      27.929  47.023  55.067  1.00  0.00     0.210 C 
ENDBRANCH  32  37
ENDBRANCH  30  31
ENDBRANCH   1  29
TORSDOF 8
ENDMDL
MODEL 2
REMARK VINA RESULT:     -10.5      1.422      1.927
REMARK  8 active torsions:
REMARK  status: ('A' for Active; 'I' for Inactive)
REMARK    1  A    between atoms: O_2  and  C_3 
REMARK    2  A    between atoms: C_4  and  C_5 
REMARK    3  A    between atoms: N_6  and  N_7 
REMARK    4  A    between atoms: C_18  and  C_19 
REMARK       I    between atoms: C_19  and  N_20 
REMARK    5  A    between atoms: N_20  and  C_21 
REMARK    6  A    between atoms: C_21  and  C_22 
REMARK    7  A    between atoms: C_22  and  C_23 
REMARK    8  A    between atoms: C_30  and  N_31 
ROOT
HETATM    1  N   UNL     1      27.448  42.752  52.588  1.00  0.00    -0.202 N 
HETATM    2  C   UNL     1      27.643  41.943  51.486  1.00  0.00     0.183 A 
HETATM    3  C   UNL     1      27.171  42.655  50.386  1.00  0.00     0.124 A 
HETATM    4  N   UNL     1      27.288  42.159  49.130  1.00  0.00    -0.242 NA
HETATM    5  C   UNL     1      27.821  40.934  49.052  1.00  0.00     0.086 A 
HETATM    6  C   UNL     1      28.286  40.222  50.190  1.00  0.00     0.088 A 
HETATM    7  N   UNL     1      28.240  40.728  51.437  1.00  0.00    -0.225 NA
HETATM    8  C   UNL     1      27.905  40.342  47.798  1.00  0.00     0.034 A 
HETATM    9  C   UNL     1      28.422  39.057  47.631  1.00  0.00     0.002 A 
HETATM   10  C   UNL     1      28.867  38.353  48.740  1.00  0.00     0.002 A 
HETATM   11  C   UNL     1      28.800  38.943  50.005  1.00  0.00     0.034 A 
HETATM   12  C   UNL     1      26.640  43.893  50.847  1.00  0.00     0.104 C 
HETATM   13  C   UNL     1      26.591  43.787  52.228  1.00  0.00     0.123 C 
ENDROOT
BRANCH  12  14
HETATM   14  C   UNL     1      26.312  45.063  50.043  1.00  0.00     0.257 C 
HETATM   15  N   UNL     1      25.043  45.562  50.252  1.00  0.00    -0.356 N 
HETATM   16  H   UNL     1      24.587  45.181  51.074  1.00  0.00     0.162 HD
HETATM   17  O   UNL     1      27.146  45.610  49.332  1.00  0.00    -0.267 OA
BRANCH  15  18
HETATM   18  C   UNL     1      24.624  46.894  49.861  1.00  0.00     0.127 C 
BRANCH  18  19
HETATM   19  C   UNL     1      23.309  47.025  49.080  1.00  0.00     0.053 C 
BRANCH  19  20
HETATM   20  C   UNL     1      22.877  48.436  48.745  1.00  0.00    -0.082 C 
HETATM   21  C   UNL     1      21.418  48.778  48.918  1.00  0.00     0.034 C 
HETATM   22  C   UNL     1      21.028  50.114  48.275  1.00  0.00     0.005 C 
HETATM   23  C   UNL     1      22.074  51.191  48.542  1.00  0.00     0.004 C 
HETATM   24  C   UNL     1      23.441  50.772  48.006  1.00  0.00     0.027 C 
HETATM   25  C   UNL     1      23.774  49.349  48.330  1.00  0.00    -0.024 C 
ENDBRANCH  19  20
ENDBRANCH  18  19
ENDBRANCH  15  18
ENDBRANCH  12  14
BRANCH  13  26
HETATM   26  N   UNL     1      26.053  44.602  53.196  1.00  0.00    -0.286 NA
HETATM   27  H   UNL     1      26.598  45.444  53.393  1.00  0.00     0.125 HD
HETATM   28  H   UNL     1      25.107  44.925  52.950  1.00  0.00     0.125 HD
ENDBRANCH  13  26
BRANCH   1  29
HETATM   29  N   UNL     1      28.071  42.772  53.812  1.00  0.00    -0.176 NA
HETATM   30  C   UNL     1      29.191  43.429  53.741  1.00  0.00     0.153 C 
BRANCH  30  31
HETATM   31  C   UNL     1      29.858  43.976  54.944  1.00  0.00     0.016 A 
HETATM   32  C   UNL     1      29.408  45.191  55.492  1.00  0.00     0.080 A 
HETATM   33  C   UNL     1      29.904  45.590  56.738  1.00  0.00     0.037 A 
HETATM   34  C   UNL     1      30.825  44.793  57.424  1.00  0.00     0.003 A 
HETATM   35  C   UNL     1      31.276  43.598  56.867  1.00  0.00     0.001 A 
HETATM   36  C   UNL     1      30.795  43.187  55.625  1.00  0.00     0.016 A 
BRANCH  32  37
HETATM   37  O   UNL     1      28.484  45.894  54.766  1.00  0.00    -0.355 OA
HETATM   38  C   UNL     1      27.788  46.950  55.416  1.00  0.00     0.210 C 
ENDBRANCH  32  37
ENDBRANCH  30  31
ENDBRANCH   1  29
TORSDOF 8
ENDMDL
MODEL 3
REMARK VINA RESULT:     -10.0      2.937      5.088
REMARK  8 active torsions:
REMARK  status: ('A' for Active; 'I' for Inactive)
REMARK    1  A    between atoms: O_2  and  C_3 
REMARK    2  A    between atoms: C_4  and  C_5 
REMARK    3  A    between atoms: N_6  and  N_7 
REMARK    4  A    between atoms: C_18  and  C_19 
REMARK       I    between atoms: C_19  and  N_20 
REMARK    5  A    between atoms: N_20  and  C_21 
REMARK    6  A    between atoms: C_21  and  C_22 
REMARK    7  A    between atoms: C_22  and  C_23 
REMARK    8  A    between atoms: C_30  and  N_31 
ROOT
HETATM    1  N   UNL     1      25.253  45.251  52.187  1.00  0.00    -0.202 N 
HETATM    2  C   UNL     1      24.678  44.647  51.086  1.00  0.00     0.183 A 
HETATM    3  C   UNL     1      24.616  45.620  50.091  1.00  0.00     0.124 A 
HETATM    4  N   UNL     1      24.163  45.321  48.848  1.00  0.00    -0.242 NA
HETATM    5  C   UNL     1      23.734  44.063  48.689  1.00  0.00     0.086 A 
HETATM    6  C   UNL     1      23.797  43.091  49.722  1.00  0.00     0.088 A 
HETATM    7  N   UNL     1      24.306  43.353  50.942  1.00  0.00    -0.225 NA
HETATM    8  C   UNL     1      23.195  43.713  47.457  1.00  0.00     0.034 A 
HETATM    9  C   UNL     1      22.700  42.432  47.216  1.00  0.00     0.002 A 
HETATM   10  C   UNL     1      22.748  41.482  48.225  1.00  0.00     0.002 A 
HETATM   11  C   UNL     1      23.300  41.818  49.463  1.00  0.00     0.034 A 
HETATM   12  C   UNL     1      25.120  46.840  50.624  1.00  0.00     0.104 C 
HETATM   13  C   UNL     1      25.246  46.627  51.988  1.00  0.00     0.123 C 
ENDROOT
BRANCH  12  14
HETATM   14  C   UNL     1      25.516  48.028  49.879  1.00  0.00     0.257 C 
HETATM   15  N   UNL     1      24.537  48.534  49.050  1.00  0.00    -0.356 N 
HETATM   16  H   UNL     1      23.617  48.142  49.219  1.00  0.00     0.162 HD
HETATM   17  O   UNL     1      26.591  48.581  50.074  1.00  0.00    -0.267 OA
BRANCH  15  18
HETATM   18  C   UNL     1      24.556  49.878  48.503  1.00  0.00     0.127 C 
BRANCH  18  19
HETATM   19  C   UNL     1      23.336  50.330  47.689  1.00  0.00     0.053 C 
BRANCH  19  20
HETATM   20  C   UNL     1      22.104  50.691  48.491  1.00  0.00    -0.082 C 
HETATM   21  C   UNL     1      20.817  50.902  47.735  1.00  0.00     0.034 C 
HETATM   22  C   UNL     1      19.715  51.551  48.580  1.00  0.00     0.005 C 
HETATM   23  C   UNL     1      19.658  50.952  49.981  1.00  0.00     0.004 C 
HETATM   24  C   UNL     1      20.992  51.120  50.705  1.00  0.00     0.027 C 
HETATM   25  C   UNL     1      22.163  50.798  49.832  1.00  0.00    -0.024 C 
ENDBRANCH  19  20
ENDBRANCH  18  19
ENDBRANCH  15  18
ENDBRANCH  12  14
BRANCH  13  26
HETATM   26  N   UNL     1      25.551  47.474  53.027  1.00  0.00    -0.286 NA
HETATM   27  H   UNL     1      25.245  48.440  52.893  1.00  0.00     0.125 HD
HETATM   28  H   UNL     1      25.135  47.164  53.916  1.00  0.00     0.125 HD
ENDBRANCH  13  26
BRANCH   1  29
HETATM   29  N   UNL     1      25.928  44.716  53.256  1.00  0.00    -0.176 NA
HETATM   30  C   UNL     1      27.171  44.498  52.945  1.00  0.00     0.153 C 
BRANCH  30  31
HETATM   31  C   UNL     1      28.221  44.334  53.976  1.00  0.00     0.016 A 
HETATM   32  C   UNL     1      29.149  43.283  53.856  1.00  0.00     0.080 A 
HETATM   33  C   UNL     1      30.254  43.262  54.714  1.00  0.00     0.037 A 
HETATM   34  C   UNL     1      30.432  44.269  55.668  1.00  0.00     0.003 A 
HETATM   35  C   UNL     1      29.500  45.297  55.789  1.00  0.00     0.001 A 
HETATM   36  C   UNL     1      28.393  45.332  54.944  1.00  0.00     0.016 A 
BRANCH  32  37
HETATM   37  O   UNL     1      28.912  42.356  52.876  1.00  0.00    -0.355 OA
HETATM   38  C   UNL     1      28.484  41.059  53.274  1.00  0.00     0.210 C 
ENDBRANCH  32  37
ENDBRANCH  30  31
ENDBRANCH   1  29
TORSDOF 8
ENDMDL
MODEL 4
REMARK VINA RESULT:      -9.8      3.054      4.490
REMARK  8 active torsions:
REMARK  status: ('A' for Active; 'I' for Inactive)
REMARK    1  A    between atoms: O_2  and  C_3 
REMARK    2  A    between atoms: C_4  and  C_5 
REMARK    3  A    between atoms: N_6  and  N_7 
REMARK    4  A    between atoms: C_18  and  C_19 
REMARK       I    between atoms: C_19  and  N_20 
REMARK    5  A    between atoms: N_20  and  C_21 
REMARK    6  A    between atoms: C_21  and  C_22 
REMARK    7  A    between atoms: C_22  and  C_23 
REMARK    8  A    between atoms: C_30  and  N_31 
ROOT
HETATM    1  N   UNL     1      26.250  45.522  52.195  1.00  0.00    -0.202 N 
HETATM    2  C   UNL     1      25.937  44.488  51.335  1.00  0.00     0.183 A 
HETATM    3  C   UNL     1      25.038  45.006  50.406  1.00  0.00     0.124 A 
HETATM    4  N   UNL     1      24.590  44.252  49.373  1.00  0.00    -0.242 NA
HETATM    5  C   UNL     1      25.025  42.986  49.364  1.00  0.00     0.086 A 
HETATM    6  C   UNL     1      25.933  42.477  50.329  1.00  0.00     0.088 A 
HETATM    7  N   UNL     1      26.441  43.231  51.323  1.00  0.00    -0.225 NA
HETATM    8  C   UNL     1      24.547  42.143  48.368  1.00  0.00     0.034 A 
HETATM    9  C   UNL     1      24.927  40.803  48.302  1.00  0.00     0.002 A 
HETATM   10  C   UNL     1      25.806  40.297  49.249  1.00  0.00     0.002 A 
HETATM   11  C   UNL     1      26.303  41.139  50.248  1.00  0.00     0.034 A 
HETATM   12  C   UNL     1      24.773  46.363  50.746  1.00  0.00     0.104 C 
HETATM   13  C   UNL     1      25.331  46.549  52.001  1.00  0.00     0.123 C 
ENDROOT
BRANCH  12  14
HETATM   14  C   UNL     1      24.137  47.371  49.908  1.00  0.00     0.257 C 
HETATM   15  N   UNL     1      23.341  46.860  48.905  1.00  0.00    -0.356 N 
HETATM   16  H   UNL     1      23.139  45.871  49.009  1.00  0.00     0.162 HD
HETATM   17  O   UNL     1      24.226  48.566  50.161  1.00  0.00    -0.267 OA
BRANCH  15  18
HETATM   18  C   UNL     1      22.339  47.634  48.196  1.00  0.00     0.127 C 
BRANCH  18  19
HETATM   19  C   UNL     1      20.950  47.756  48.838  1.00  0.00     0.053 C 
BRANCH  19  20
HETATM   20  C   UNL     1      20.423  49.165  49.006  1.00  0.00    -0.082 C 
HETATM   21  C   UNL     1      21.028  50.244  48.144  1.00  0.00     0.034 C 
HETATM   22  C   UNL     1      20.654  51.662  48.592  1.00  0.00     0.005 C 
HETATM   23  C   UNL     1      19.179  51.758  48.968  1.00  0.00     0.004 C 
HETATM   24  C   UNL     1      18.833  50.783  50.090  1.00  0.00     0.027 C 
HETATM   25  C   UNL     1      19.435  49.429  49.881  1.00  0.00    -0.024 C 
ENDBRANCH  19  20
ENDBRANCH  18  19
ENDBRANCH  15  18
ENDBRANCH  12  14
BRANCH  13  26
HETATM   26  N   UNL     1      25.277  47.599  52.886  1.00  0.00    -0.286 NA
HETATM   27  H   UNL     1      24.338  47.823  53.224  1.00  0.00     0.125 HD
HETATM   28  H   UNL     1      25.849  47.431  53.725  1.00  0.00     0.125 HD
ENDBRANCH  13  26
BRANCH   1  29
HETATM   29  N   UNL     1      27.345  45.725  52.999  1.00  0.00    -0.176 NA
HETATM   30  C   UNL     1      27.302  44.936  54.032  1.00  0.00     0.153 C 
BRANCH  30  31
HETATM   31  C   UNL     1      28.509  44.622  54.830  1.00  0.00     0.016 A 
HETATM   32  C   UNL     1      29.163  43.391  54.639  1.00  0.00     0.080 A 
HETATM   33  C   UNL     1      30.410  43.193  55.242  1.00  0.00     0.037 A 
HETATM   34  C   UNL     1      30.994  44.202  56.015  1.00  0.00     0.003 A 
HETATM   35  C   UNL     1      30.332  45.412  56.210  1.00  0.00     0.001 A 
HETATM   36  C   UNL     1      29.088  45.625  55.619  1.00  0.00     0.016 A 
BRANCH  32  37
HETATM   37  O   UNL     1      28.533  42.471  53.844  1.00  0.00    -0.355 OA
HETATM   38  C   UNL     1      29.300  41.823  52.837  1.00  0.00     0.210 C 
ENDBRANCH  32  37
ENDBRANCH  30  31
ENDBRANCH   1  29
TORSDOF 8
ENDMDL
MODEL 5
REMARK VINA RESULT:      -9.8      4.059      9.228
REMARK  8 active torsions:
REMARK  status: ('A' for Active; 'I' for Inactive)
REMARK    1  A    between atoms: O_2  and  C_3 
REMARK    2  A    between atoms: C_4  and  C_5 
REMARK    3  A    between atoms: N_6  and  N_7 
REMARK    4  A    between atoms: C_18  and  C_19 
REMARK       I    between atoms: C_19  and  N_20 
REMARK    5  A    between atoms: N_20  and  C_21 
REMARK    6  A    between atoms: C_21  and  C_22 
REMARK    7  A    between atoms: C_22  and  C_23 
REMARK    8  A    between atoms: C_30  and  N_31 
ROOT
HETATM    1  N   UNL     1      23.092  47.354  48.573  1.00  0.00    -0.202 N 
HETATM    2  C   UNL     1      23.070  45.978  48.463  1.00  0.00     0.183 A 
HETATM    3  C   UNL     1      23.859  45.487  49.500  1.00  0.00     0.124 A 
HETATM    4  N   UNL     1      23.982  44.153  49.712  1.00  0.00    -0.242 NA
HETATM    5  C   UNL     1      23.350  43.377  48.824  1.00  0.00     0.086 A 
HETATM    6  C   UNL     1      22.560  43.901  47.768  1.00  0.00     0.088 A 
HETATM    7  N   UNL     1      22.371  45.222  47.582  1.00  0.00    -0.225 NA
HETATM    8  C   UNL     1      23.495  42.000  48.948  1.00  0.00     0.034 A 
HETATM    9  C   UNL     1      22.893  41.120  48.049  1.00  0.00     0.002 A 
HETATM   10  C   UNL     1      22.129  41.627  47.008  1.00  0.00     0.002 A 
HETATM   11  C   UNL     1      21.966  43.009  46.881  1.00  0.00     0.034 A 
HETATM   12  C   UNL     1      24.401  46.592  50.214  1.00  0.00     0.104 C 
HETATM   13  C   UNL     1      24.117  47.709  49.444  1.00  0.00     0.123 C 
ENDROOT
BRANCH  12  14
HETATM   14  C   UNL     1      25.032  46.567  51.527  1.00  0.00     0.257 C 
HETATM   15  N   UNL     1      25.131  45.312  52.089  1.00  0.00    -0.356 N 
HETATM   16  H   UNL     1      24.942  44.558  51.437  1.00  0.00     0.162 HD
HETATM   17  O   UNL     1      25.528  47.572  52.022  1.00  0.00    -0.267 OA
BRANCH  15  18
HETATM   18  C   UNL     1      26.022  44.985  53.186  1.00  0.00     0.127 C 
BRANCH  18  19
HETATM   19  C   UNL     1      27.399  44.404  52.833  1.00  0.00     0.053 C 
BRANCH  19  20
HETATM   20  C   UNL     1      28.423  44.409  53.948  1.00  0.00    -0.082 C 
HETATM   21  C   UNL     1      29.506  43.361  53.904  1.00  0.00     0.034 C 
HETATM   22  C   UNL     1      30.301  43.254  55.210  1.00  0.00     0.005 C 
HETATM   23  C   UNL     1      30.629  44.630  55.780  1.00  0.00     0.004 C 
HETATM   24  C   UNL     1      29.356  45.431  56.047  1.00  0.00     0.027 C 
HETATM   25  C   UNL     1      28.370  45.333  54.925  1.00  0.00    -0.024 C 
ENDBRANCH  19  20
ENDBRANCH  18  19
ENDBRANCH  15  18
ENDBRANCH  12  14
BRANCH  13  26
HETATM   26  N   UNL     1      24.503  49.024  49.552  1.00  0.00    -0.286 NA
HETATM   27  H   UNL     1      23.822  49.697  49.194  1.00  0.00     0.125 HD
HETATM   28  H   UNL     1      24.687  49.296  50.528  1.00  0.00     0.125 HD
ENDBRANCH  13  26
BRANCH   1  29
HETATM   29  N   UNL     1      22.209  48.307  48.129  1.00  0.00    -0.176 NA
HETATM   30  C   UNL     1      21.183  48.383  48.926  1.00  0.00     0.153 C 
BRANCH  30  31
HETATM   31  C   UNL     1      20.299  49.569  48.956  1.00  0.00     0.016 A 
HETATM   32  C   UNL     1      19.056  49.488  49.610  1.00  0.00     0.080 A 
HETATM   33  C   UNL     1      18.325  50.664  49.812  1.00  0.00     0.037 A 
HETATM   34  C   UNL     1      18.824  51.895  49.375  1.00  0.00     0.003 A 
HETATM   35  C   UNL     1      20.049  51.963  48.715  1.00  0.00     0.001 A 
HETATM   36  C   UNL     1      20.789  50.801  48.503  1.00  0.00     0.016 A 
BRANCH  32  37
HETATM   37  O   UNL     1      18.657  48.247  50.031  1.00  0.00    -0.355 OA
HETATM   38  C   UNL     1      17.577  47.626  49.346  1.00  0.00     0.210 C 
ENDBRANCH  32  37
ENDBRANCH  30  31
ENDBRANCH   1  29
TORSDOF 8
ENDMDL
MODEL 6
REMARK VINA RESULT:      -9.7      2.931      8.107
REMARK  8 active torsions:
REMARK  status: ('A' for Active; 'I' for Inactive)
REMARK    1  A    between atoms: O_2  and  C_3 
REMARK    2  A    between atoms: C_4  and  C_5 
REMARK    3  A    between atoms: N_6  and  N_7 
REMARK    4  A    between atoms: C_18  and  C_19 
REMARK       I    between atoms: C_19  and  N_20 
REMARK    5  A    between atoms: N_20  and  C_21 
REMARK    6  A    between atoms: C_21  and  C_22 
REMARK    7  A    between atoms: C_22  and  C_23 
REMARK    8  A    between atoms: C_30  and  N_31 
ROOT
HETATM    1  N   UNL     1      25.060  47.230  50.217  1.00  0.00    -0.202 N 
HETATM    2  C   UNL     1      23.984  47.909  49.679  1.00  0.00     0.183 A 
HETATM    3  C   UNL     1      23.246  46.972  48.960  1.00  0.00     0.124 A 
HETATM    4  N   UNL     1      22.076  47.312  48.365  1.00  0.00    -0.242 NA
HETATM    5  C   UNL     1      21.739  48.603  48.473  1.00  0.00     0.086 A 
HETATM    6  C   UNL     1      22.514  49.542  49.203  1.00  0.00     0.088 A 
HETATM    7  N   UNL     1      23.643  49.208  49.857  1.00  0.00    -0.225 NA
HETATM    8  C   UNL     1      20.585  49.027  47.827  1.00  0.00     0.034 A 
HETATM    9  C   UNL     1      20.177  50.360  47.865  1.00  0.00     0.002 A 
HETATM   10  C   UNL     1      20.935  51.285  48.567  1.00  0.00     0.002 A 
HETATM   11  C   UNL     1      22.091  50.867  49.233  1.00  0.00     0.034 A 
HETATM   12  C   UNL     1      23.920  45.720  49.030  1.00  0.00     0.104 C 
HETATM   13  C   UNL     1      25.160  45.995  49.585  1.00  0.00     0.123 C 
ENDROOT
BRANCH  12  14
HETATM   14  C   UNL     1      23.382  44.411  48.685  1.00  0.00     0.257 C 
HETATM   15  N   UNL     1      24.217  43.637  47.906  1.00  0.00    -0.356 N 
HETATM   16  H   UNL     1      25.166  43.993  47.851  1.00  0.00     0.162 HD
HETATM   17  O   UNL     1      22.324  44.007  49.150  1.00  0.00    -0.267 OA
BRANCH  15  18
HETATM   18  C   UNL     1      24.073  42.203  47.745  1.00  0.00     0.127 C 
BRANCH  18  19
HETATM   19  C   UNL     1      24.501  41.310  48.918  1.00  0.00     0.053 C 
BRANCH  19  20
HETATM   20  C   UNL     1      25.973  40.961  48.980  1.00  0.00    -0.082 C 
HETATM   21  C   UNL     1      26.514  40.455  50.293  1.00  0.00     0.034 C 
HETATM   22  C   UNL     1      28.046  40.418  50.345  1.00  0.00     0.005 C 
HETATM   23  C   UNL     1      28.638  39.881  49.046  1.00  0.00     0.004 C 
HETATM   24  C   UNL     1      28.208  40.733  47.853  1.00  0.00     0.027 C 
HETATM   25  C   UNL     1      26.754  41.083  47.891  1.00  0.00    -0.024 C 
ENDBRANCH  19  20
ENDBRANCH  18  19
ENDBRANCH  15  18
ENDBRANCH  12  14
BRANCH  13  26
HETATM   26  N   UNL     1      26.278  45.217  49.771  1.00  0.00    -0.286 NA
HETATM   27  H   UNL     1      27.083  45.487  49.202  1.00  0.00     0.125 HD
HETATM   28  H   UNL     1      26.603  45.228  50.748  1.00  0.00     0.125 HD
ENDBRANCH  13  26
BRANCH   1  29
HETATM   29  N   UNL     1      25.846  47.508  51.307  1.00  0.00    -0.176 NA
HETATM   30  C   UNL     1      25.393  46.898  52.362  1.00  0.00     0.153 C 
BRANCH  30  31
HETATM   31  C   UNL     1      26.236  46.660  53.555  1.00  0.00     0.016 A 
HETATM   32  C   UNL     1      27.022  45.496  53.626  1.00  0.00     0.080 A 
HETATM   33  C   UNL     1      27.966  45.384  54.653  1.00  0.00     0.037 A 
HETATM   34  C   UNL     1      28.124  46.412  55.588  1.00  0.00     0.003 A 
HETATM   35  C   UNL     1      27.331  47.555  55.518  1.00  0.00     0.001 A 
HETATM   36  C   UNL     1      26.385  47.682  54.504  1.00  0.00     0.016 A 
BRANCH  32  37
HETATM   37  O   UNL     1      26.821  44.553  52.653  1.00  0.00    -0.355 OA
HETATM   38  C   UNL     1      27.205  43.212  52.934  1.00  0.00     0.210 C 
ENDBRANCH  32  37
ENDBRANCH  30  31
ENDBRANCH   1  29
TORSDOF 8
ENDMDL
MODEL 7
REMARK VINA RESULT:      -9.5      3.565      7.145
REMARK  8 active torsions:
REMARK  status: ('A' for Active; 'I' for Inactive)
REMARK    1  A    between atoms: O_2  and  C_3 
REMARK    2  A    between atoms: C_4  and  C_5 
REMARK    3  A    between atoms: N_6  and  N_7 
REMARK    4  A    between atoms: C_18  and  C_19 
REMARK       I    between atoms: C_19  and  N_20 
REMARK    5  A    between atoms: N_20  and  C_21 
REMARK    6  A    between atoms: C_21  and  C_22 
REMARK    7  A    between atoms: C_22  and  C_23 
REMARK    8  A    between atoms: C_30  and  N_31 
ROOT
HETATM    1  N   UNL     1      24.259  44.417  50.291  1.00  0.00    -0.202 N 
HETATM    2  C   UNL     1      24.606  45.677  49.846  1.00  0.00     0.183 A 
HETATM    3  C   UNL     1      23.487  46.186  49.191  1.00  0.00     0.124 A 
HETATM    4  N   UNL     1      23.481  47.449  48.697  1.00  0.00    -0.242 NA
HETATM    5  C   UNL     1      24.633  48.116  48.834  1.00  0.00     0.086 A 
HETATM    6  C   UNL     1      25.765  47.572  49.496  1.00  0.00     0.088 A 
HETATM    7  N   UNL     1      25.766  46.345  50.053  1.00  0.00    -0.225 NA
HETATM    8  C   UNL     1      24.712  49.391  48.287  1.00  0.00     0.034 A 
HETATM    9  C   UNL     1      25.884  50.144  48.360  1.00  0.00     0.002 A 
HETATM   10  C   UNL     1      26.996  49.614  48.996  1.00  0.00     0.002 A 
HETATM   11  C   UNL     1      26.924  48.338  49.561  1.00  0.00     0.034 A 
HETATM   12  C   UNL     1      22.469  45.192  49.204  1.00  0.00     0.104 C 
HETATM   13  C   UNL     1      23.084  44.033  49.653  1.00  0.00     0.123 C 
ENDROOT
BRANCH  12  14
HETATM   14  C   UNL     1      21.055  45.377  48.905  1.00  0.00     0.257 C 
HETATM   15  N   UNL     1      20.568  46.632  49.204  1.00  0.00    -0.356 N 
HETATM   16  H   UNL     1      21.293  47.315  49.396  1.00  0.00     0.162 HD
HETATM   17  O   UNL     1      20.400  44.515  48.332  1.00  0.00    -0.267 OA
BRANCH  15  18
HETATM   18  C   UNL     1      19.328  47.166  48.672  1.00  0.00     0.127 C 
BRANCH  18  19
HETATM   19  C   UNL     1      18.554  48.165  49.543  1.00  0.00     0.053 C 
BRANCH  19  20
HETATM   20  C   UNL     1      18.877  49.626  49.317  1.00  0.00    -0.082 C 
HETATM   21  C   UNL     1      19.984  49.954  48.347  1.00  0.00     0.034 C 
HETATM   22  C   UNL     1      20.436  51.417  48.413  1.00  0.00     0.005 C 
HETATM   23  C   UNL     1      19.247  52.366  48.523  1.00  0.00     0.004 C 
HETATM   24  C   UNL     1      18.410  52.056  49.762  1.00  0.00     0.027 C 
HETATM   25  C   UNL     1      18.180  50.590  49.948  1.00  0.00    -0.024 C 
ENDBRANCH  19  20
ENDBRANCH  18  19
ENDBRANCH  15  18
ENDBRANCH  12  14
BRANCH  13  26
HETATM   26  N   UNL     1      22.645  42.734  49.744  1.00  0.00    -0.286 NA
HETATM   27  H   UNL     1      22.814  42.290  50.649  1.00  0.00     0.125 HD
HETATM   28  H   UNL     1      21.634  42.652  49.571  1.00  0.00     0.125 HD
ENDBRANCH  13  26
BRANCH   1  29
HETATM   29  N   UNL     1      24.766  43.651  51.312  1.00  0.00    -0.176 NA
HETATM   30  C   UNL     1      26.000  43.324  51.064  1.00  0.00     0.153 C 
BRANCH  30  31
HETATM   31  C   UNL     1      26.924  42.880  52.132  1.00  0.00     0.016 A 
HETATM   32  C   UNL     1      27.575  41.639  52.011  1.00  0.00     0.080 A 
HETATM   33  C   UNL     1      28.596  41.324  52.915  1.00  0.00     0.037 A 
HETATM   34  C   UNL     1      28.962  42.230  53.916  1.00  0.00     0.003 A 
HETATM   35  C   UNL     1      28.302  43.451  54.037  1.00  0.00     0.001 A 
HETATM   36  C   UNL     1      27.281  43.778  53.147  1.00  0.00     0.016 A 
BRANCH  32  37
HETATM   37  O   UNL     1      27.172  40.825  50.985  1.00  0.00    -0.355 OA
HETATM   38  C   UNL     1      28.170  40.091  50.286  1.00  0.00     0.210 C 
ENDBRANCH  32  37
ENDBRANCH  30  31
ENDBRANCH   1  29
TORSDOF 8
ENDMDL
MODEL 8
REMARK VINA RESULT:      -9.5      1.775      6.679
REMARK  8 active torsions:
REMARK  status: ('A' for Active; 'I' for Inactive)
REMARK    1  A    between atoms: O_2  and  C_3 
REMARK    2  A    between atoms: C_4  and  C_5 
REMARK    3  A    between atoms: N_6  and  N_7 
REMARK    4  A    between atoms: C_18  and  C_19 
REMARK       I    between atoms: C_19  and  N_20 
REMARK    5  A    between atoms: N_20  and  C_21 
REMARK    6  A    between atoms: C_21  and  C_22 
REMARK    7  A    between atoms: C_22  and  C_23 
REMARK    8  A    between atoms: C_30  and  N_31 
ROOT
HETATM    1  N   UNL     1      27.930  42.771  52.692  1.00  0.00    -0.202 N 
HETATM    2  C   UNL     1      27.124  43.690  52.050  1.00  0.00     0.183 A 
HETATM    3  C   UNL     1      26.455  42.993  51.046  1.00  0.00     0.124 A 
HETATM    4  N   UNL     1      25.523  43.603  50.274  1.00  0.00    -0.242 NA
HETATM    5  C   UNL     1      25.357  44.910  50.513  1.00  0.00     0.086 A 
HETATM    6  C   UNL     1      26.058  45.601  51.535  1.00  0.00     0.088 A 
HETATM    7  N   UNL     1      26.938  44.996  52.356  1.00  0.00    -0.225 NA
HETATM    8  C   UNL     1      24.464  45.607  49.707  1.00  0.00     0.034 A 
HETATM    9  C   UNL     1      24.252  46.976  49.870  1.00  0.00     0.002 A 
HETATM   10  C   UNL     1      24.943  47.659  50.860  1.00  0.00     0.002 A 
HETATM   11  C   UNL     1      25.833  46.966  51.684  1.00  0.00     0.034 A 
HETATM   12  C   UNL     1      26.907  41.643  51.059  1.00  0.00     0.104 C 
HETATM   13  C   UNL     1      28.004  41.625  51.908  1.00  0.00     0.123 C 
ENDROOT
BRANCH  12  14
HETATM   14  C   UNL     1      26.288  40.501  50.399  1.00  0.00     0.257 C 
HETATM   15  N   UNL     1      26.157  40.634  49.033  1.00  0.00    -0.356 N 
HETATM   16  H   UNL     1      26.689  41.407  48.646  1.00  0.00     0.162 HD
HETATM   17  O   UNL     1      26.017  39.475  51.009  1.00  0.00    -0.267 OA
BRANCH  15  18
HETATM   18  C   UNL     1      25.920  39.522  48.132  1.00  0.00     0.127 C 
BRANCH  18  19
HETATM   19  C   UNL     1      27.145  38.764  47.602  1.00  0.00     0.053 C 
BRANCH  19  20
HETATM   20  C   UNL     1      28.074  38.194  48.653  1.00  0.00    -0.082 C 
HETATM   21  C   UNL     1      29.405  38.876  48.850  1.00  0.00     0.034 C 
HETATM   22  C   UNL     1      30.384  38.061  49.703  1.00  0.00     0.005 C 
HETATM   23  C   UNL     1      29.690  37.435  50.908  1.00  0.00     0.004 C 
HETATM   24  C   UNL     1      28.547  36.522  50.470  1.00  0.00     0.027 C 
HETATM   25  C   UNL     1      27.707  37.131  49.392  1.00  0.00    -0.024 C 
ENDBRANCH  19  20
ENDBRANCH  18  19
ENDBRANCH  15  18
ENDBRANCH  12  14
BRANCH  13  26
HETATM   26  N   UNL     1      28.922  40.646  52.204  1.00  0.00    -0.286 NA
HETATM   27  H   UNL     1      28.636  39.701  51.939  1.00  0.00     0.125 HD
HETATM   28  H   UNL     1      29.828  40.810  51.744  1.00  0.00     0.125 HD
ENDBRANCH  13  26
BRANCH   1  29
HETATM   29  N   UNL     1      28.463  42.770  53.958  1.00  0.00    -0.176 NA
HETATM   30  C   UNL     1      29.572  43.450  53.985  1.00  0.00     0.153 C 
BRANCH  30  31
HETATM   31  C   UNL     1      30.139  43.977  55.246  1.00  0.00     0.016 A 
HETATM   32  C   UNL     1      29.653  45.188  55.771  1.00  0.00     0.080 A 
HETATM   33  C   UNL     1      30.045  45.568  57.059  1.00  0.00     0.037 A 
HETATM   34  C   UNL     1      30.900  44.755  57.810  1.00  0.00     0.003 A 
HETATM   35  C   UNL     1      31.389  43.564  57.276  1.00  0.00     0.001 A 
HETATM   36  C   UNL     1      31.010  43.173  55.994  1.00  0.00     0.016 A 
BRANCH  32  37
HETATM   37  O   UNL     1      28.798  45.907  54.978  1.00  0.00    -0.355 OA
HETATM   38  C   UNL     1      27.982  46.893  55.600  1.00  0.00     0.210 C 
ENDBRANCH  32  37
ENDBRANCH  30  31
ENDBRANCH   1  29
TORSDOF 8
ENDMDL
MODEL 9
REMARK VINA RESULT:      -9.3      1.603      6.241
REMARK  8 active torsions:
REMARK  status: ('A' for Active; 'I' for Inactive)
REMARK    1  A    between atoms: O_2  and  C_3 
REMARK    2  A    between atoms: C_4  and  C_5 
REMARK    3  A    between atoms: N_6  and  N_7 
REMARK    4  A    between atoms: C_18  and  C_19 
REMARK       I    between atoms: C_19  and  N_20 
REMARK    5  A    between atoms: N_20  and  C_21 
REMARK    6  A    between atoms: C_21  and  C_22 
REMARK    7  A    between atoms: C_22  and  C_23 
REMARK    8  A    between atoms: C_30  and  N_31 
ROOT
HETATM    1  N   UNL     1      29.143  43.052  52.915  1.00  0.00    -0.202 N 
HETATM    2  C   UNL     1      29.485  43.622  54.126  1.00  0.00     0.183 A 
HETATM    3  C   UNL     1      28.522  44.592  54.390  1.00  0.00     0.124 A 
HETATM    4  N   UNL     1      28.534  45.290  55.552  1.00  0.00    -0.242 NA
HETATM    5  C   UNL     1      29.559  45.016  56.368  1.00  0.00     0.086 A 
HETATM    6  C   UNL     1      30.536  44.028  56.071  1.00  0.00     0.088 A 
HETATM    7  N   UNL     1      30.501  43.279  54.953  1.00  0.00    -0.225 NA
HETATM    8  C   UNL     1      29.665  45.747  57.545  1.00  0.00     0.034 A 
HETATM    9  C   UNL     1      30.718  45.544  58.436  1.00  0.00     0.002 A 
HETATM   10  C   UNL     1      31.681  44.588  58.147  1.00  0.00     0.002 A 
HETATM   11  C   UNL     1      31.578  43.838  56.973  1.00  0.00     0.034 A 
HETATM   12  C   UNL     1      27.615  44.635  53.293  1.00  0.00     0.104 C 
HETATM   13  C   UNL     1      28.194  43.862  52.300  1.00  0.00     0.123 C 
ENDROOT
BRANCH  12  14
HETATM   14  C   UNL     1      26.307  45.275  53.258  1.00  0.00     0.257 C 
HETATM   15  N   UNL     1      26.182  46.268  52.309  1.00  0.00    -0.356 N 
HETATM   16  H   UNL     1      26.937  46.281  51.632  1.00  0.00     0.162 HD
HETATM   17  O   UNL     1      25.376  44.874  53.945  1.00  0.00    -0.267 OA
BRANCH  15  18
HETATM   18  C   UNL     1      24.909  46.783  51.841  1.00  0.00     0.127 C 
BRANCH  18  19
HETATM   19  C   UNL     1      24.701  46.888  50.324  1.00  0.00     0.053 C 
BRANCH  19  20
HETATM   20  C   UNL     1      25.527  47.939  49.615  1.00  0.00    -0.082 C 
HETATM   21  C   UNL     1      24.790  49.073  48.948  1.00  0.00     0.034 C 
HETATM   22  C   UNL     1      25.675  49.906  48.013  1.00  0.00     0.005 C 
HETATM   23  C   UNL     1      27.042  50.178  48.631  1.00  0.00     0.004 C 
HETATM   24  C   UNL     1      27.767  48.874  48.957  1.00  0.00     0.027 C 
HETATM   25  C   UNL     1      26.871  47.865  49.605  1.00  0.00    -0.024 C 
ENDBRANCH  19  20
ENDBRANCH  18  19
ENDBRANCH  15  18
ENDBRANCH  12  14
BRANCH  13  26
HETATM   26  N   UNL     1      27.854  43.645  50.985  1.00  0.00    -0.286 NA
HETATM   27  H   UNL     1      26.992  44.107  50.688  1.00  0.00     0.125 HD
HETATM   28  H   UNL     1      28.587  43.963  50.336  1.00  0.00     0.125 HD
ENDBRANCH  13  26
BRANCH   1  29
HETATM   29  N   UNL     1      29.447  41.824  52.380  1.00  0.00    -0.176 NA
HETATM   30  C   UNL     1      28.360  41.191  52.050  1.00  0.00     0.153 C 
BRANCH  30  31
HETATM   31  C   UNL     1      28.368  40.065  51.089  1.00  0.00     0.016 A 
HETATM   32  C   UNL     1      27.570  40.138  49.933  1.00  0.00     0.080 A 
HETATM   33  C   UNL     1      27.742  39.171  48.937  1.00  0.00     0.037 A 
HETATM   34  C   UNL     1      28.691  38.155  49.088  1.00  0.00     0.003 A 
HETATM   35  C   UNL     1      29.466  38.083  50.243  1.00  0.00     0.001 A 
HETATM   36  C   UNL     1      29.306  39.036  51.247  1.00  0.00     0.016 A 
BRANCH  32  37
HETATM   37  O   UNL     1      26.686  41.182  49.854  1.00  0.00    -0.355 OA
HETATM   38  C   UNL     1      25.393  40.922  49.322  1.00  0.00     0.210 C 
ENDBRANCH  32  37
ENDBRANCH  30  31
ENDBRANCH   1  29
TORSDOF 8
ENDMDL
MODEL 10
REMARK VINA RESULT:      -9.2      3.492      9.781
REMARK  8 active torsions:
REMARK  status: ('A' for Active; 'I' for Inactive)
REMARK    1  A    between atoms: O_2  and  C_3 
REMARK    2  A    between atoms: C_4  and  C_5 
REMARK    3  A    between atoms: N_6  and  N_7 
REMARK    4  A    between atoms: C_18  and  C_19 
REMARK       I    between atoms: C_19  and  N_20 
REMARK    5  A    between atoms: N_20  and  C_21 
REMARK    6  A    between atoms: C_21  and  C_22 
REMARK    7  A    between atoms: C_22  and  C_23 
REMARK    8  A    between atoms: C_30  and  N_31 
ROOT
HETATM    1  N   UNL     1      22.807  44.835  49.310  1.00  0.00    -0.202 N 
HETATM    2  C   UNL     1      22.924  46.191  49.075  1.00  0.00     0.183 A 
HETATM    3  C   UNL     1      24.208  46.551  49.475  1.00  0.00     0.124 A 
HETATM    4  N   UNL     1      24.663  47.817  49.304  1.00  0.00    -0.242 NA
HETATM    5  C   UNL     1      23.773  48.675  48.792  1.00  0.00     0.086 A 
HETATM    6  C   UNL     1      22.465  48.286  48.401  1.00  0.00     0.088 A 
HETATM    7  N   UNL     1      22.018  47.020  48.501  1.00  0.00    -0.225 NA
HETATM    8  C   UNL     1      24.158  50.004  48.656  1.00  0.00     0.034 A 
HETATM    9  C   UNL     1      23.284  50.969  48.158  1.00  0.00     0.002 A 
HETATM   10  C   UNL     1      22.000  50.597  47.785  1.00  0.00     0.002 A 
HETATM   11  C   UNL     1      21.607  49.262  47.905  1.00  0.00     0.034 A 
HETATM   12  C   UNL     1      24.853  45.398  50.004  1.00  0.00     0.104 C 
HETATM   13  C   UNL     1      23.861  44.438  50.126  1.00  0.00     0.123 C 
ENDROOT
BRANCH  12  14
HETATM   14  C   UNL     1      26.277  45.229  50.266  1.00  0.00     0.257 C 
HETATM   15  N   UNL     1      26.570  44.709  51.509  1.00  0.00    -0.356 N 
HETATM   16  H   UNL     1      25.764  44.324  51.990  1.00  0.00     0.162 HD
HETATM   17  O   UNL     1      27.119  45.433  49.401  1.00  0.00    -0.267 OA
BRANCH  15  18
HETATM   18  C   UNL     1      27.849  44.119  51.857  1.00  0.00     0.127 C 
BRANCH  18  19
HETATM   19  C   UNL     1      27.912  43.254  53.123  1.00  0.00     0.053 C 
BRANCH  19  20
HETATM   20  C   UNL     1      28.811  43.765  54.228  1.00  0.00    -0.082 C 
HETATM   21  C   UNL     1      30.065  42.981  54.524  1.00  0.00     0.034 C 
HETATM   22  C   UNL     1      30.743  43.393  55.837  1.00  0.00     0.005 C 
HETATM   23  C   UNL     1      30.762  44.908  56.005  1.00  0.00     0.004 C 
HETATM   24  C   UNL     1      29.347  45.481  55.985  1.00  0.00     0.027 C 
HETATM   25  C   UNL     1      28.503  44.889  54.901  1.00  0.00    -0.024 C 
ENDBRANCH  19  20
ENDBRANCH  18  19
ENDBRANCH  15  18
ENDBRANCH  12  14
BRANCH  13  26
HETATM   26  N   UNL     1      23.855  43.187  50.696  1.00  0.00    -0.286 NA
HETATM   27  H   UNL     1      24.511  43.071  51.472  1.00  0.00     0.125 HD
HETATM   28  H   UNL     1      22.929  42.932  51.065  1.00  0.00     0.125 HD
ENDBRANCH  13  26
BRANCH   1  29
HETATM   29  N   UNL     1      21.980  43.892  48.750  1.00  0.00    -0.176 NA
HETATM   30  C   UNL     1      22.475  43.464  47.626  1.00  0.00     0.153 C 
BRANCH  30  31
HETATM   31  C   UNL     1      22.051  42.182  47.019  1.00  0.00     0.016 A 
HETATM   32  C   UNL     1      22.580  40.976  47.513  1.00  0.00     0.080 A 
HETATM   33  C   UNL     1      22.021  39.769  47.077  1.00  0.00     0.037 A 
HETATM   34  C   UNL     1      20.955  39.766  46.172  1.00  0.00     0.003 A 
HETATM   35  C   UNL     1      20.448  40.966  45.677  1.00  0.00     0.001 A 
HETATM   36  C   UNL     1      20.995  42.176  46.098  1.00  0.00     0.016 A 
BRANCH  32  37
HETATM   37  O   UNL     1      23.603  41.072  48.418  1.00  0.00    -0.355 OA
HETATM   38  C   UNL     1      24.893  40.626  48.017  1.00  0.00     0.210 C 
ENDBRANCH  32  37
ENDBRANCH  30  31
ENDBRANCH   1  29
TORSDOF 8
ENDMDL
