MODEL 1
REMARK VINA RESULT:      -7.9      0.000      0.000
REMARK  7 active torsions:
REMARK  status: ('A' for Active; 'I' for Inactive)
REMARK    1  A    between atoms: C_2  and  O_3 
REMARK    2  A    between atoms: O_3  and  C_4 
REMARK       I    between atoms: C_4  and  N_5 
REMARK    3  A    between atoms: N_5  and  C_6 
REMARK    4  A    between atoms: C_7  and  N_8 
REMARK    5  A    between atoms: C_11  and  N_12 
REMARK    6  A    between atoms: N_12  and  C_13 
REMARK    7  A    between atoms: C_13  and  C_14 
ROOT
HETATM    1  C   UNL     1      25.794  46.416  51.551  1.00  0.00     0.080 A 
HETATM    2  C   UNL     1      26.450  45.269  51.039  1.00  0.00     0.127 A 
HETATM    3  N   UNL     1      27.040  44.445  51.915  1.00  0.00    -0.332 N 
HETATM    4  H   UNL     1      27.475  43.596  51.574  1.00  0.00     0.168 HD
HETATM    5  C   UNL     1      27.084  44.625  53.237  1.00  0.00     0.081 A 
HETATM    6  C   UNL     1      26.461  45.736  53.784  1.00  0.00     0.044 A 
HETATM    7  C   UNL     1      25.798  46.623  52.937  1.00  0.00     0.037 A 
ENDROOT
BRANCH   5   8
HETATM    8  N   UNL     1      27.786  43.665  53.946  1.00  0.00    -0.275 NA
HETATM    9  H   UNL     1      27.484  42.734  53.644  1.00  0.00     0.129 HD
BRANCH   8  10
HETATM   10  C   UNL     1      29.244  43.706  53.749  1.00  0.00     0.132 C 
BRANCH  10  11
HETATM   11  C   UNL     1      29.898  44.004  55.076  1.00  0.00    -0.045 A 
HETATM   12  C   UNL     1      30.789  43.087  55.660  1.00  0.00     0.011 A 
HETATM   13  C   UNL     1      31.375  43.362  56.897  1.00  0.00     0.043 A 
HETATM   14  C   UNL     1      31.073  44.551  57.551  1.00  0.00     0.116 A 
HETATM   15  F   UNL     1      31.636  44.813  58.737  1.00  0.00    -0.206 F 
HETATM   16  C   UNL     1      30.195  45.470  56.992  1.00  0.00     0.043 A 
HETATM   17  C   UNL     1      29.604  45.197  55.758  1.00  0.00     0.011 A 
ENDBRANCH  10  11
ENDBRANCH   8  10
ENDBRANCH   5   8
BRANCH   2  18
HETATM   18  N   UNL     1      26.381  44.834  49.732  1.00  0.00    -0.384 N 
HETATM   19  H   UNL     1      26.646  43.845  49.614  1.00  0.00     0.157 HD
HETATM   20  H   UNL     1      25.598  45.069  49.138  1.00  0.00     0.157 HD
ENDBRANCH   2  18
BRANCH   1  21
HETATM   21  N   UNL     1      25.125  47.403  50.794  1.00  0.00    -0.299 N 
HETATM   22  C   UNL     1      25.573  48.091  49.702  1.00  0.00     0.365 C 
HETATM   23  O   UNL     1      26.672  47.984  49.179  1.00  0.00    -0.238 OA
HETATM   24  H   UNL     1      24.248  47.776  51.140  1.00  0.00     0.171 HD
BRANCH  22  25
HETATM   25  O   UNL     1      24.609  48.964  49.324  1.00  0.00    -0.304 OA
BRANCH  25  26
HETATM   26  C   UNL     1      24.900  49.777  48.175  1.00  0.00     0.176 C 
HETATM   27  C   UNL     1      23.640  50.484  47.710  1.00  0.00     0.034 C 
ENDBRANCH  25  26
ENDBRANCH  22  25
ENDBRANCH   1  21
TORSDOF 7
ENDMDL
MODEL 2
REMARK VINA RESULT:      -7.6      2.194      2.897
REMARK  7 active torsions:
REMARK  status: ('A' for Active; 'I' for Inactive)
REMARK    1  A    between atoms: C_2  and  O_3 
REMARK    2  A    between atoms: O_3  and  C_4 
REMARK       I    between atoms: C_4  and  N_5 
REMARK    3  A    between atoms: N_5  and  C_6 
REMARK    4  A    between atoms: C_7  and  N_8 
REMARK    5  A    between atoms: C_11  and  N_12 
REMARK    6  A    between atoms: N_12  and  C_13 
REMARK    7  A    between atoms: C_13  and  C_14 
ROOT
HETATM    1  C   UNL     1      24.396  46.667  50.088  1.00  0.00     0.080 A 
HETATM    2  C   UNL     1      23.920  45.334  50.006  1.00  0.00     0.127 A 
HETATM    3  N   UNL     1      24.191  44.511  51.026  1.00  0.00    -0.332 N 
HETATM    4  H   UNL     1      23.821  43.567  51.007  1.00  0.00     0.168 HD
HETATM    5  C   UNL     1      24.896  44.832  52.113  1.00  0.00     0.081 A 
HETATM    6  C   UNL     1      25.388  46.122  52.236  1.00  0.00     0.044 A 
HETATM    7  C   UNL     1      25.119  47.046  51.228  1.00  0.00     0.037 A 
ENDROOT
BRANCH   5   8
HETATM    8  N   UNL     1      25.088  43.806  53.023  1.00  0.00    -0.275 NA
HETATM    9  H   UNL     1      25.835  43.191  52.686  1.00  0.00     0.129 HD
BRANCH   8  10
HETATM   10  C   UNL     1      25.497  44.250  54.365  1.00  0.00     0.132 C 
BRANCH  10  11
HETATM   11  C   UNL     1      26.983  44.034  54.508  1.00  0.00    -0.045 A 
HETATM   12  C   UNL     1      27.570  42.808  54.146  1.00  0.00     0.011 A 
HETATM   13  C   UNL     1      28.943  42.609  54.299  1.00  0.00     0.043 A 
HETATM   14  C   UNL     1      29.732  43.632  54.812  1.00  0.00     0.116 A 
HETATM   15  F   UNL     1      31.048  43.441  54.959  1.00  0.00    -0.206 F 
HETATM   16  C   UNL     1      29.173  44.851  55.177  1.00  0.00     0.043 A 
HETATM   17  C   UNL     1      27.800  45.051  55.029  1.00  0.00     0.011 A 
ENDBRANCH  10  11
ENDBRANCH   8  10
ENDBRANCH   5   8
BRANCH   2  18
HETATM   18  N   UNL     1      23.049  44.863  49.045  1.00  0.00    -0.384 N 
HETATM   19  H   UNL     1      23.524  44.462  48.223  1.00  0.00     0.157 HD
HETATM   20  H   UNL     1      22.236  44.314  49.293  1.00  0.00     0.157 HD
ENDBRANCH   2  18
BRANCH   1  21
HETATM   21  N   UNL     1      24.222  47.678  49.118  1.00  0.00    -0.299 N 
HETATM   22  C   UNL     1      23.059  48.196  48.623  1.00  0.00     0.365 C 
HETATM   23  O   UNL     1      21.927  47.854  48.929  1.00  0.00    -0.238 OA
HETATM   24  H   UNL     1      25.030  48.004  48.599  1.00  0.00     0.171 HD
BRANCH  22  25
HETATM   25  O   UNL     1      23.370  49.120  47.684  1.00  0.00    -0.304 OA
BRANCH  25  26
HETATM   26  C   UNL     1      22.542  50.294  47.645  1.00  0.00     0.176 C 
HETATM   27  C   UNL     1      22.935  51.241  48.765  1.00  0.00     0.034 C 
ENDBRANCH  25  26
ENDBRANCH  22  25
ENDBRANCH   1  21
TORSDOF 7
ENDMDL
MODEL 3
REMARK VINA RESULT:      -7.5      2.364      3.703
REMARK  7 active torsions:
REMARK  status: ('A' for Active; 'I' for Inactive)
REMARK    1  A    between atoms: C_2  and  O_3 
REMARK    2  A    between atoms: O_3  and  C_4 
REMARK       I    between atoms: C_4  and  N_5 
REMARK    3  A    between atoms: N_5  and  C_6 
REMARK    4  A    between atoms: C_7  and  N_8 
REMARK    5  A    between atoms: C_11  and  N_12 
REMARK    6  A    between atoms: N_12  and  C_13 
REMARK    7  A    between atoms: C_13  and  C_14 
ROOT
HETATM    1  C   UNL     1      24.939  48.135  49.451  1.00  0.00     0.080 A 
HETATM    2  C   UNL     1      26.353  48.219  49.402  1.00  0.00     0.127 A 
HETATM    3  N   UNL     1      27.052  47.092  49.580  1.00  0.00    -0.332 N 
HETATM    4  H   UNL     1      28.062  47.123  49.504  1.00  0.00     0.168 HD
HETATM    5  C   UNL     1      26.530  45.889  49.825  1.00  0.00     0.081 A 
HETATM    6  C   UNL     1      25.151  45.756  49.889  1.00  0.00     0.044 A 
HETATM    7  C   UNL     1      24.355  46.882  49.681  1.00  0.00     0.037 A 
ENDROOT
BRANCH   5   8
HETATM    8  N   UNL     1      27.446  44.868  50.019  1.00  0.00    -0.275 NA
HETATM    9  H   UNL     1      28.287  45.250  50.462  1.00  0.00     0.129 HD
BRANCH   8  10
HETATM   10  C   UNL     1      26.977  43.784  50.895  1.00  0.00     0.132 C 
BRANCH  10  11
HETATM   11  C   UNL     1      27.896  43.701  52.088  1.00  0.00    -0.045 A 
HETATM   12  C   UNL     1      27.680  44.508  53.219  1.00  0.00     0.011 A 
HETATM   13  C   UNL     1      28.547  44.439  54.312  1.00  0.00     0.043 A 
HETATM   14  C   UNL     1      29.627  43.566  54.278  1.00  0.00     0.116 A 
HETATM   15  F   UNL     1      30.457  43.501  55.326  1.00  0.00    -0.206 F 
HETATM   16  C   UNL     1      29.859  42.759  53.170  1.00  0.00     0.043 A 
HETATM   17  C   UNL     1      28.998  42.829  52.074  1.00  0.00     0.011 A 
ENDBRANCH  10  11
ENDBRANCH   8  10
ENDBRANCH   5   8
BRANCH   2  18
HETATM   18  N   UNL     1      27.066  49.334  49.010  1.00  0.00    -0.384 N 
HETATM   19  H   UNL     1      28.070  49.278  49.236  1.00  0.00     0.157 HD
HETATM   20  H   UNL     1      26.925  49.759  48.103  1.00  0.00     0.157 HD
ENDBRANCH   2  18
BRANCH   1  21
HETATM   21  N   UNL     1      24.032  49.206  49.296  1.00  0.00    -0.299 N 
HETATM   22  C   UNL     1      23.917  50.084  48.256  1.00  0.00     0.365 C 
HETATM   23  O   UNL     1      24.611  50.111  47.251  1.00  0.00    -0.238 OA
HETATM   24  H   UNL     1      23.456  49.479  50.084  1.00  0.00     0.171 HD
BRANCH  22  25
HETATM   25  O   UNL     1      22.934  50.967  48.551  1.00  0.00    -0.304 OA
BRANCH  25  26
HETATM   26  C   UNL     1      22.048  50.600  49.622  1.00  0.00     0.176 C 
HETATM   27  C   UNL     1      20.674  51.200  49.384  1.00  0.00     0.034 C 
ENDBRANCH  25  26
ENDBRANCH  22  25
ENDBRANCH   1  21
TORSDOF 7
ENDMDL
MODEL 4
REMARK VINA RESULT:      -7.4      3.673      4.592
REMARK  7 active torsions:
REMARK  status: ('A' for Active; 'I' for Inactive)
REMARK    1  A    between atoms: C_2  and  O_3 
REMARK    2  A    between atoms: O_3  and  C_4 
REMARK       I    between atoms: C_4  and  N_5 
REMARK    3  A    between atoms: N_5  and  C_6 
REMARK    4  A    between atoms: C_7  and  N_8 
REMARK    5  A    between atoms: C_11  and  N_12 
REMARK    6  A    between atoms: N_12  and  C_13 
REMARK    7  A    between atoms: C_13  and  C_14 
ROOT
HETATM    1  C   UNL     1      25.934  42.437  50.417  1.00  0.00     0.080 A 
HETATM    2  C   UNL     1      26.690  41.465  51.119  1.00  0.00     0.127 A 
HETATM    3  N   UNL     1      27.784  41.877  51.772  1.00  0.00    -0.332 N 
HETATM    4  H   UNL     1      28.313  41.206  52.317  1.00  0.00     0.168 HD
HETATM    5  C   UNL     1      28.242  43.131  51.800  1.00  0.00     0.081 A 
HETATM    6  C   UNL     1      27.539  44.116  51.123  1.00  0.00     0.044 A 
HETATM    7  C   UNL     1      26.371  43.768  50.447  1.00  0.00     0.037 A 
ENDROOT
BRANCH   5   8
HETATM    8  N   UNL     1      29.418  43.320  52.506  1.00  0.00    -0.275 NA
HETATM    9  H   UNL     1      29.514  44.313  52.741  1.00  0.00     0.129 HD
BRANCH   8  10
HETATM   10  C   UNL     1      29.489  42.590  53.781  1.00  0.00     0.132 C 
BRANCH  10  11
HETATM   11  C   UNL     1      29.797  43.575  54.881  1.00  0.00    -0.045 A 
HETATM   12  C   UNL     1      29.054  44.762  55.011  1.00  0.00     0.011 A 
HETATM   13  C   UNL     1      29.358  45.677  56.021  1.00  0.00     0.043 A 
HETATM   14  C   UNL     1      30.400  45.410  56.900  1.00  0.00     0.116 A 
HETATM   15  F   UNL     1      30.690  46.289  57.867  1.00  0.00    -0.206 F 
HETATM   16  C   UNL     1      31.147  44.244  56.789  1.00  0.00     0.043 A 
HETATM   17  C   UNL     1      30.850  43.329  55.778  1.00  0.00     0.011 A 
ENDBRANCH  10  11
ENDBRANCH   8  10
ENDBRANCH   5   8
BRANCH   2  18
HETATM   18  N   UNL     1      26.297  40.160  51.335  1.00  0.00    -0.384 N 
HETATM   19  H   UNL     1      27.028  39.470  51.112  1.00  0.00     0.157 HD
HETATM   20  H   UNL     1      25.792  39.891  52.169  1.00  0.00     0.157 HD
ENDBRANCH   2  18
BRANCH   1  21
HETATM   21  N   UNL     1      24.762  42.202  49.666  1.00  0.00    -0.299 N 
HETATM   22  C   UNL     1      23.475  42.556  49.959  1.00  0.00     0.365 C 
HETATM   23  O   UNL     1      23.095  43.141  50.961  1.00  0.00    -0.238 OA
HETATM   24  H   UNL     1      24.810  41.585  48.863  1.00  0.00     0.171 HD
BRANCH  22  25
HETATM   25  O   UNL     1      22.672  42.092  48.972  1.00  0.00    -0.304 OA
BRANCH  25  26
HETATM   26  C   UNL     1      23.242  41.103  48.098  1.00  0.00     0.176 C 
HETATM   27  C   UNL     1      22.165  40.528  47.196  1.00  0.00     0.034 C 
ENDBRANCH  25  26
ENDBRANCH  22  25
ENDBRANCH   1  21
TORSDOF 7
ENDMDL
MODEL 5
REMARK VINA RESULT:      -7.3      1.816      2.280
REMARK  7 active torsions:
REMARK  status: ('A' for Active; 'I' for Inactive)
REMARK    1  A    between atoms: C_2  and  O_3 
REMARK    2  A    between atoms: O_3  and  C_4 
REMARK       I    between atoms: C_4  and  N_5 
REMARK    3  A    between atoms: N_5  and  C_6 
REMARK    4  A    between atoms: C_7  and  N_8 
REMARK    5  A    between atoms: C_11  and  N_12 
REMARK    6  A    between atoms: N_12  and  C_13 
REMARK    7  A    between atoms: C_13  and  C_14 
ROOT
HETATM    1  C   UNL     1      24.779  46.053  50.751  1.00  0.00     0.080 A 
HETATM    2  C   UNL     1      25.867  46.765  51.316  1.00  0.00     0.127 A 
HETATM    3  N   UNL     1      26.432  46.267  52.423  1.00  0.00    -0.332 N 
HETATM    4  H   UNL     1      27.239  46.736  52.816  1.00  0.00     0.168 HD
HETATM    5  C   UNL     1      26.040  45.162  53.060  1.00  0.00     0.081 A 
HETATM    6  C   UNL     1      24.976  44.434  52.549  1.00  0.00     0.044 A 
HETATM    7  C   UNL     1      24.359  44.873  51.380  1.00  0.00     0.037 A 
ENDROOT
BRANCH   5   8
HETATM    8  N   UNL     1      26.745  44.857  54.213  1.00  0.00    -0.275 NA
HETATM    9  H   UNL     1      27.241  43.971  54.080  1.00  0.00     0.129 HD
BRANCH   8  10
HETATM   10  C   UNL     1      27.767  45.848  54.584  1.00  0.00     0.132 C 
BRANCH  10  11
HETATM   11  C   UNL     1      28.948  45.119  55.175  1.00  0.00    -0.045 A 
HETATM   12  C   UNL     1      29.420  43.927  54.597  1.00  0.00     0.011 A 
HETATM   13  C   UNL     1      30.501  43.248  55.162  1.00  0.00     0.043 A 
HETATM   14  C   UNL     1      31.113  43.758  56.301  1.00  0.00     0.116 A 
HETATM   15  F   UNL     1      32.150  43.106  56.841  1.00  0.00    -0.206 F 
HETATM   16  C   UNL     1      30.663  44.933  56.888  1.00  0.00     0.043 A 
HETATM   17  C   UNL     1      29.579  45.612  56.329  1.00  0.00     0.011 A 
ENDBRANCH  10  11
ENDBRANCH   8  10
ENDBRANCH   5   8
BRANCH   2  18
HETATM   18  N   UNL     1      26.509  47.833  50.722  1.00  0.00    -0.384 N 
HETATM   19  H   UNL     1      25.904  48.657  50.599  1.00  0.00     0.157 HD
HETATM   20  H   UNL     1      27.441  48.109  50.999  1.00  0.00     0.157 HD
ENDBRANCH   2  18
BRANCH   1  21
HETATM   21  N   UNL     1      24.051  46.417  49.598  1.00  0.00    -0.299 N 
HETATM   22  C   UNL     1      23.542  47.639  49.260  1.00  0.00     0.365 C 
HETATM   23  O   UNL     1      23.612  48.662  49.925  1.00  0.00    -0.238 OA
HETATM   24  H   UNL     1      23.728  45.689  48.971  1.00  0.00     0.171 HD
BRANCH  22  25
HETATM   25  O   UNL     1      22.885  47.516  48.082  1.00  0.00    -0.304 OA
BRANCH  25  26
HETATM   26  C   UNL     1      21.910  48.530  47.787  1.00  0.00     0.176 C 
HETATM   27  C   UNL     1      20.511  47.957  47.928  1.00  0.00     0.034 C 
ENDBRANCH  25  26
ENDBRANCH  22  25
ENDBRANCH   1  21
TORSDOF 7
ENDMDL
MODEL 6
REMARK VINA RESULT:      -7.2      4.394      5.988
REMARK  7 active torsions:
REMARK  status: ('A' for Active; 'I' for Inactive)
REMARK    1  A    between atoms: C_2  and  O_3 
REMARK    2  A    between atoms: O_3  and  C_4 
REMARK       I    between atoms: C_4  and  N_5 
REMARK    3  A    between atoms: N_5  and  C_6 
REMARK    4  A    between atoms: C_7  and  N_8 
REMARK    5  A    between atoms: C_11  and  N_12 
REMARK    6  A    between atoms: N_12  and  C_13 
REMARK    7  A    between atoms: C_13  and  C_14 
ROOT
HETATM    1  C   UNL     1      27.179  40.878  50.422  1.00  0.00     0.080 A 
HETATM    2  C   UNL     1      28.208  40.687  51.379  1.00  0.00     0.127 A 
HETATM    3  N   UNL     1      28.230  41.502  52.441  1.00  0.00    -0.332 N 
HETATM    4  H   UNL     1      28.930  41.353  53.158  1.00  0.00     0.168 HD
HETATM    5  C   UNL     1      27.375  42.501  52.668  1.00  0.00     0.081 A 
HETATM    6  C   UNL     1      26.355  42.730  51.757  1.00  0.00     0.044 A 
HETATM    7  C   UNL     1      26.248  41.901  50.642  1.00  0.00     0.037 A 
ENDROOT
BRANCH   5   8
HETATM    8  N   UNL     1      27.614  43.242  53.813  1.00  0.00    -0.275 NA
HETATM    9  H   UNL     1      27.956  42.621  54.552  1.00  0.00     0.129 HD
BRANCH   8  10
HETATM   10  C   UNL     1      28.633  44.293  53.658  1.00  0.00     0.132 C 
BRANCH  10  11
HETATM   11  C   UNL     1      29.463  44.343  54.916  1.00  0.00    -0.045 A 
HETATM   12  C   UNL     1      29.346  45.419  55.813  1.00  0.00     0.011 A 
HETATM   13  C   UNL     1      30.132  45.467  56.966  1.00  0.00     0.043 A 
HETATM   14  C   UNL     1      31.034  44.442  57.225  1.00  0.00     0.116 A 
HETATM   15  F   UNL     1      31.787  44.490  58.331  1.00  0.00    -0.206 F 
HETATM   16  C   UNL     1      31.167  43.370  56.353  1.00  0.00     0.043 A 
HETATM   17  C   UNL     1      30.386  43.321  55.197  1.00  0.00     0.011 A 
ENDBRANCH  10  11
ENDBRANCH   8  10
ENDBRANCH   5   8
BRANCH   2  18
HETATM   18  N   UNL     1      29.083  39.621  51.399  1.00  0.00    -0.384 N 
HETATM   19  H   UNL     1      30.059  39.895  51.578  1.00  0.00     0.157 HD
HETATM   20  H   UNL     1      28.857  38.761  51.881  1.00  0.00     0.157 HD
ENDBRANCH   2  18
BRANCH   1  21
HETATM   21  N   UNL     1      26.991  40.132  49.238  1.00  0.00    -0.299 N 
HETATM   22  C   UNL     1      27.476  40.382  47.985  1.00  0.00     0.365 C 
HETATM   23  O   UNL     1      28.166  41.334  47.653  1.00  0.00    -0.238 OA
HETATM   24  H   UNL     1      26.314  39.378  49.236  1.00  0.00     0.171 HD
BRANCH  22  25
HETATM   25  O   UNL     1      27.012  39.422  47.150  1.00  0.00    -0.304 OA
BRANCH  25  26
HETATM   26  C   UNL     1      27.140  38.065  47.606  1.00  0.00     0.176 C 
HETATM   27  C   UNL     1      28.166  37.332  46.762  1.00  0.00     0.034 C 
ENDBRANCH  25  26
ENDBRANCH  22  25
ENDBRANCH   1  21
TORSDOF 7
ENDMDL
MODEL 7
REMARK VINA RESULT:      -7.1      4.702      5.446
REMARK  7 active torsions:
REMARK  status: ('A' for Active; 'I' for Inactive)
REMARK    1  A    between atoms: C_2  and  O_3 
REMARK    2  A    between atoms: O_3  and  C_4 
REMARK       I    between atoms: C_4  and  N_5 
REMARK    3  A    between atoms: N_5  and  C_6 
REMARK    4  A    between atoms: C_7  and  N_8 
REMARK    5  A    between atoms: C_11  and  N_12 
REMARK    6  A    between atoms: N_12  and  C_13 
REMARK    7  A    between atoms: C_13  and  C_14 
ROOT
HETATM    1  C   UNL     1      27.654  40.659  49.968  1.00  0.00     0.080 A 
HETATM    2  C   UNL     1      28.539  39.953  50.821  1.00  0.00     0.127 A 
HETATM    3  N   UNL     1      28.917  40.549  51.959  1.00  0.00    -0.332 N 
HETATM    4  H   UNL     1      29.512  40.043  52.604  1.00  0.00     0.168 HD
HETATM    5  C   UNL     1      28.548  41.770  52.352  1.00  0.00     0.081 A 
HETATM    6  C   UNL     1      27.688  42.502  51.547  1.00  0.00     0.044 A 
HETATM    7  C   UNL     1      27.226  41.934  50.362  1.00  0.00     0.037 A 
ENDROOT
BRANCH   5   8
HETATM    8  N   UNL     1      29.095  42.202  53.548  1.00  0.00    -0.275 NA
HETATM    9  H   UNL     1      30.076  41.908  53.596  1.00  0.00     0.129 HD
BRANCH   8  10
HETATM   10  C   UNL     1      29.096  43.663  53.727  1.00  0.00     0.132 C 
BRANCH  10  11
HETATM   11  C   UNL     1      29.793  43.985  55.025  1.00  0.00    -0.045 A 
HETATM   12  C   UNL     1      30.718  43.087  55.587  1.00  0.00     0.011 A 
HETATM   13  C   UNL     1      31.344  43.385  56.799  1.00  0.00     0.043 A 
HETATM   14  C   UNL     1      31.051  44.578  57.449  1.00  0.00     0.116 A 
HETATM   15  F   UNL     1      31.652  44.862  58.610  1.00  0.00    -0.206 F 
HETATM   16  C   UNL     1      30.141  45.479  56.912  1.00  0.00     0.043 A 
HETATM   17  C   UNL     1      29.509  45.183  55.703  1.00  0.00     0.011 A 
ENDBRANCH  10  11
ENDBRANCH   8  10
ENDBRANCH   5   8
BRANCH   2  18
HETATM   18  N   UNL     1      28.904  38.631  50.665  1.00  0.00    -0.384 N 
HETATM   19  H   UNL     1      28.107  38.004  50.488  1.00  0.00     0.157 HD
HETATM   20  H   UNL     1      29.701  38.367  50.101  1.00  0.00     0.157 HD
ENDBRANCH   2  18
BRANCH   1  21
HETATM   21  N   UNL     1      27.150  40.208  48.728  1.00  0.00    -0.299 N 
HETATM   22  C   UNL     1      27.579  40.516  47.469  1.00  0.00     0.365 C 
HETATM   23  O   UNL     1      28.492  41.275  47.180  1.00  0.00    -0.238 OA
HETATM   24  H   UNL     1      26.280  39.687  48.713  1.00  0.00     0.171 HD
BRANCH  22  25
HETATM   25  O   UNL     1      26.779  39.882  46.579  1.00  0.00    -0.304 OA
BRANCH  25  26
HETATM   26  C   UNL     1      26.099  40.717  45.626  1.00  0.00     0.176 C 
HETATM   27  C   UNL     1      24.776  41.187  46.202  1.00  0.00     0.034 C 
ENDBRANCH  25  26
ENDBRANCH  22  25
ENDBRANCH   1  21
TORSDOF 7
ENDMDL
MODEL 8
REMARK VINA RESULT:      -7.1      2.650      2.872
REMARK  7 active torsions:
REMARK  status: ('A' for Active; 'I' for Inactive)
REMARK    1  A    between atoms: C_2  and  O_3 
REMARK    2  A    between atoms: O_3  and  C_4 
REMARK       I    between atoms: C_4  and  N_5 
REMARK    3  A    between atoms: N_5  and  C_6 
REMARK    4  A    between atoms: C_7  and  N_8 
REMARK    5  A    between atoms: C_11  and  N_12 
REMARK    6  A    between atoms: N_12  and  C_13 
REMARK    7  A    between atoms: C_13  and  C_14 
ROOT
HETATM    1  C   UNL     1      24.611  44.755  50.946  1.00  0.00     0.080 A 
HETATM    2  C   UNL     1      25.089  43.509  51.424  1.00  0.00     0.127 A 
HETATM    3  N   UNL     1      25.849  43.513  52.525  1.00  0.00    -0.332 N 
HETATM    4  H   UNL     1      26.163  42.629  52.908  1.00  0.00     0.168 HD
HETATM    5  C   UNL     1      26.219  44.600  53.206  1.00  0.00     0.081 A 
HETATM    6  C   UNL     1      25.781  45.843  52.774  1.00  0.00     0.044 A 
HETATM    7  C   UNL     1      24.958  45.915  51.652  1.00  0.00     0.037 A 
ENDROOT
BRANCH   5   8
HETATM    8  N   UNL     1      27.044  44.371  54.294  1.00  0.00    -0.275 NA
HETATM    9  H   UNL     1      27.661  43.579  54.088  1.00  0.00     0.129 HD
BRANCH   8  10
HETATM   10  C   UNL     1      27.925  45.497  54.641  1.00  0.00     0.132 C 
BRANCH  10  11
HETATM   11  C   UNL     1      29.122  44.958  55.383  1.00  0.00    -0.045 A 
HETATM   12  C   UNL     1      29.740  43.761  54.978  1.00  0.00     0.011 A 
HETATM   13  C   UNL     1      30.836  43.259  55.683  1.00  0.00     0.043 A 
HETATM   14  C   UNL     1      31.316  43.949  56.789  1.00  0.00     0.116 A 
HETATM   15  F   UNL     1      32.366  43.466  57.464  1.00  0.00    -0.206 F 
HETATM   16  C   UNL     1      30.720  45.133  57.207  1.00  0.00     0.043 A 
HETATM   17  C   UNL     1      29.622  45.636  56.508  1.00  0.00     0.011 A 
ENDBRANCH  10  11
ENDBRANCH   8  10
ENDBRANCH   5   8
BRANCH   2  18
HETATM   18  N   UNL     1      24.691  42.275  50.952  1.00  0.00    -0.384 N 
HETATM   19  H   UNL     1      24.462  41.605  51.699  1.00  0.00     0.157 HD
HETATM   20  H   UNL     1      24.043  42.189  50.180  1.00  0.00     0.157 HD
ENDBRANCH   2  18
BRANCH   1  21
HETATM   21  N   UNL     1      23.807  44.960  49.803  1.00  0.00    -0.299 N 
HETATM   22  C   UNL     1      22.600  44.397  49.496  1.00  0.00     0.365 C 
HETATM   23  O   UNL     1      21.991  43.579  50.168  1.00  0.00    -0.238 OA
HETATM   24  H   UNL     1      24.188  45.483  49.023  1.00  0.00     0.171 HD
BRANCH  22  25
HETATM   25  O   UNL     1      22.214  44.856  48.282  1.00  0.00    -0.304 OA
BRANCH  25  26
HETATM   26  C   UNL     1      22.433  46.255  48.030  1.00  0.00     0.176 C 
HETATM   27  C   UNL     1      21.109  46.942  47.749  1.00  0.00     0.034 C 
ENDBRANCH  25  26
ENDBRANCH  22  25
ENDBRANCH   1  21
TORSDOF 7
ENDMDL
MODEL 9
REMARK VINA RESULT:      -7.1      3.004      3.471
REMARK  7 active torsions:
REMARK  status: ('A' for Active; 'I' for Inactive)
REMARK    1  A    between atoms: C_2  and  O_3 
REMARK    2  A    between atoms: O_3  and  C_4 
REMARK       I    between atoms: C_4  and  N_5 
REMARK    3  A    between atoms: N_5  and  C_6 
REMARK    4  A    between atoms: C_7  and  N_8 
REMARK    5  A    between atoms: C_11  and  N_12 
REMARK    6  A    between atoms: N_12  and  C_13 
REMARK    7  A    between atoms: C_13  and  C_14 
ROOT
HETATM    1  C   UNL     1      23.977  44.401  50.798  1.00  0.00     0.080 A 
HETATM    2  C   UNL     1      24.647  45.606  51.129  1.00  0.00     0.127 A 
HETATM    3  N   UNL     1      25.851  45.512  51.707  1.00  0.00    -0.332 N 
HETATM    4  H   UNL     1      26.366  46.361  51.910  1.00  0.00     0.168 HD
HETATM    5  C   UNL     1      26.470  44.372  52.024  1.00  0.00     0.081 A 
HETATM    6  C   UNL     1      25.851  43.168  51.726  1.00  0.00     0.044 A 
HETATM    7  C   UNL     1      24.609  43.186  51.094  1.00  0.00     0.037 A 
ENDROOT
BRANCH   5   8
HETATM    8  N   UNL     1      27.693  44.514  52.657  1.00  0.00    -0.275 NA
HETATM    9  H   UNL     1      28.310  45.088  52.073  1.00  0.00     0.129 HD
BRANCH   8  10
HETATM   10  C   UNL     1      27.630  45.183  53.966  1.00  0.00     0.132 C 
BRANCH  10  11
HETATM   11  C   UNL     1      28.839  44.774  54.771  1.00  0.00    -0.045 A 
HETATM   12  C   UNL     1      29.368  45.627  55.756  1.00  0.00     0.011 A 
HETATM   13  C   UNL     1      30.498  45.249  56.484  1.00  0.00     0.043 A 
HETATM   14  C   UNL     1      31.100  44.022  56.230  1.00  0.00     0.116 A 
HETATM   15  F   UNL     1      32.183  43.661  56.928  1.00  0.00    -0.206 F 
HETATM   16  C   UNL     1      30.594  43.165  55.261  1.00  0.00     0.043 A 
HETATM   17  C   UNL     1      29.467  43.541  54.529  1.00  0.00     0.011 A 
ENDBRANCH  10  11
ENDBRANCH   8  10
ENDBRANCH   5   8
BRANCH   2  18
HETATM   18  N   UNL     1      24.244  46.868  50.744  1.00  0.00    -0.384 N 
HETATM   19  H   UNL     1      23.302  46.887  50.327  1.00  0.00     0.157 HD
HETATM   20  H   UNL     1      24.390  47.673  51.337  1.00  0.00     0.157 HD
ENDBRANCH   2  18
BRANCH   1  21
HETATM   21  N   UNL     1      22.705  44.291  50.195  1.00  0.00    -0.299 N 
HETATM   22  C   UNL     1      22.308  44.714  48.958  1.00  0.00     0.365 C 
HETATM   23  O   UNL     1      22.997  45.297  48.136  1.00  0.00    -0.238 OA
HETATM   24  H   UNL     1      21.921  43.981  50.757  1.00  0.00     0.171 HD
BRANCH  22  25
HETATM   25  O   UNL     1      20.991  44.432  48.816  1.00  0.00    -0.304 OA
BRANCH  25  26
HETATM   26  C   UNL     1      20.266  45.236  47.870  1.00  0.00     0.176 C 
HETATM   27  C   UNL     1      19.607  46.403  48.582  1.00  0.00     0.034 C 
ENDBRANCH  25  26
ENDBRANCH  22  25
ENDBRANCH   1  21
TORSDOF 7
ENDMDL
MODEL 10
REMARK VINA RESULT:      -7.1      5.538      7.035
REMARK  7 active torsions:
REMARK  status: ('A' for Active; 'I' for Inactive)
REMARK    1  A    between atoms: C_2  and  O_3 
REMARK    2  A    between atoms: O_3  and  C_4 
REMARK       I    between atoms: C_4  and  N_5 
REMARK    3  A    between atoms: N_5  and  C_6 
REMARK    4  A    between atoms: C_7  and  N_8 
REMARK    5  A    between atoms: C_11  and  N_12 
REMARK    6  A    between atoms: N_12  and  C_13 
REMARK    7  A    between atoms: C_13  and  C_14 
ROOT
HETATM    1  C   UNL     1      28.192  39.606  50.012  1.00  0.00     0.080 A 
HETATM    2  C   UNL     1      29.040  39.172  51.062  1.00  0.00     0.127 A 
HETATM    3  N   UNL     1      29.189  39.980  52.118  1.00  0.00    -0.332 N 
HETATM    4  H   UNL     1      29.755  39.668  52.899  1.00  0.00     0.168 HD
HETATM    5  C   UNL     1      28.624  41.180  52.260  1.00  0.00     0.081 A 
HETATM    6  C   UNL     1      27.790  41.651  51.257  1.00  0.00     0.044 A 
HETATM    7  C   UNL     1      27.560  40.851  50.140  1.00  0.00     0.037 A 
ENDROOT
BRANCH   5   8
HETATM    8  N   UNL     1      28.953  41.861  53.420  1.00  0.00    -0.275 NA
HETATM    9  H   UNL     1      29.878  41.557  53.739  1.00  0.00     0.129 HD
BRANCH   8  10
HETATM   10  C   UNL     1      29.034  43.323  53.267  1.00  0.00     0.132 C 
BRANCH  10  11
HETATM   11  C   UNL     1      29.551  43.911  54.556  1.00  0.00    -0.045 A 
HETATM   12  C   UNL     1      28.995  45.091  55.082  1.00  0.00     0.011 A 
HETATM   13  C   UNL     1      29.493  45.639  56.266  1.00  0.00     0.043 A 
HETATM   14  C   UNL     1      30.542  45.011  56.926  1.00  0.00     0.116 A 
HETATM   15  F   UNL     1      31.018  45.537  58.061  1.00  0.00    -0.206 F 
HETATM   16  C   UNL     1      31.106  43.845  56.424  1.00  0.00     0.043 A 
HETATM   17  C   UNL     1      30.615  43.297  55.238  1.00  0.00     0.011 A 
ENDBRANCH  10  11
ENDBRANCH   8  10
ENDBRANCH   5   8
BRANCH   2  18
HETATM   18  N   UNL     1      29.584  37.908  51.168  1.00  0.00    -0.384 N 
HETATM   19  H   UNL     1      29.159  37.340  51.914  1.00  0.00     0.157 HD
HETATM   20  H   UNL     1      29.772  37.344  50.350  1.00  0.00     0.157 HD
ENDBRANCH   2  18
BRANCH   1  21
HETATM   21  N   UNL     1      27.913  38.906  48.818  1.00  0.00    -0.299 N 
HETATM   22  C   UNL     1      27.278  37.706  48.661  1.00  0.00     0.365 C 
HETATM   23  O   UNL     1      26.842  36.995  49.553  1.00  0.00    -0.238 OA
HETATM   24  H   UNL     1      28.327  39.229  47.952  1.00  0.00     0.171 HD
BRANCH  22  25
HETATM   25  O   UNL     1      27.267  37.402  47.341  1.00  0.00    -0.304 OA
BRANCH  25  26
HETATM   26  C   UNL     1      28.412  37.821  46.580  1.00  0.00     0.176 C 
HETATM   27  C   UNL     1      27.961  38.469  45.283  1.00  0.00     0.034 C 
ENDBRANCH  25  26
ENDBRANCH  22  25
ENDBRANCH   1  21
TORSDOF 7
ENDMDL
