MODEL 1
REMARK VINA RESULT:      -8.5      0.000      0.000
REMARK  4 active torsions:
REMARK  status: ('A' for Active; 'I' for Inactive)
REMARK    1  A    between atoms: C_5  and  C_6 
REMARK    2  A    between atoms: C_10  and  N_11 
REMARK       I    between atoms: N_11  and  C_12 
REMARK    3  A    between atoms: C_12  and  C_13 
REMARK    4  A    between atoms: C_13  and  O_14 
ROOT
HETATM    1  C   UNL     1      28.865  42.617  53.765  1.00  0.00     0.070 A 
HETATM    2  N   UNL     1      27.686  41.915  53.844  1.00  0.00    -0.275 N 
HETATM    3  H   UNL     1      26.880  42.132  54.422  1.00  0.00     0.189 HD
HETATM    4  N   UNL     1      27.635  40.828  53.058  1.00  0.00    -0.156 NA
HETATM    5  C   UNL     1      28.835  40.791  52.478  1.00  0.00     0.152 A 
HETATM    6  C   UNL     1      29.630  41.888  52.874  1.00  0.00     0.084 A 
ENDROOT
BRANCH   5   7
HETATM    7  N   UNL     1      29.127  39.761  51.625  1.00  0.00    -0.308 N 
HETATM    8  C   UNL     1      28.733  39.663  50.308  1.00  0.00     0.258 C 
HETATM    9  O   UNL     1      28.050  40.484  49.705  1.00  0.00    -0.270 OA
HETATM   10  H   UNL     1      29.794  39.087  51.985  1.00  0.00     0.170 HD
BRANCH   8  11
HETATM   11  C   UNL     1      29.238  38.352  49.646  1.00  0.00     0.140 C 
HETATM   12  C   UNL     1      28.495  37.142  50.229  1.00  0.00     0.058 C 
HETATM   13  C   UNL     1      27.036  37.048  49.804  1.00  0.00     0.077 C 
HETATM   14  S   UNL     1      26.895  36.850  48.009  1.00  0.00    -0.169 SA
HETATM   15  C   UNL     1      27.783  38.346  47.503  1.00  0.00     0.077 C 
HETATM   16  C   UNL     1      29.178  38.414  48.112  1.00  0.00     0.058 C 
BRANCH  11  17
HETATM   17  O   UNL     1      30.624  38.197  50.026  1.00  0.00    -0.380 OA
HETATM   18  H   UNL     1      31.052  37.636  49.353  1.00  0.00     0.211 HD
ENDBRANCH  11  17
ENDBRANCH   8  11
ENDBRANCH   5   7
BRANCH   1  19
HETATM   19  C   UNL     1      29.136  43.844  54.520  1.00  0.00     0.069 A 
HETATM   20  C   UNL     1      28.356  44.997  54.350  1.00  0.00     0.132 A 
HETATM   21  C   UNL     1      28.593  46.165  55.077  1.00  0.00     0.043 A 
HETATM   22  F   UNL     1      27.343  45.003  53.467  1.00  0.00    -0.205 F 
HETATM   23  C   UNL     1      29.636  46.210  55.997  1.00  0.00     0.006 A 
HETATM   24  C   UNL     1      30.435  45.084  56.180  1.00  0.00     0.043 A 
HETATM   25  C   UNL     1      30.182  43.920  55.450  1.00  0.00     0.132 A 
HETATM   26  F   UNL     1      30.992  42.871  55.658  1.00  0.00    -0.205 F 
ENDBRANCH   1  19
TORSDOF 4
ENDMDL
MODEL 2
REMARK VINA RESULT:      -8.5      0.065      1.724
REMARK  4 active torsions:
REMARK  status: ('A' for Active; 'I' for Inactive)
REMARK    1  A    between atoms: C_5  and  C_6 
REMARK    2  A    between atoms: C_10  and  N_11 
REMARK       I    between atoms: N_11  and  C_12 
REMARK    3  A    between atoms: C_12  and  C_13 
REMARK    4  A    between atoms: C_13  and  O_14 
ROOT
HETATM    1  C   UNL     1      28.823  42.617  53.728  1.00  0.00     0.070 A 
HETATM    2  N   UNL     1      27.623  41.950  53.750  1.00  0.00    -0.275 N 
HETATM    3  H   UNL     1      26.797  42.187  54.291  1.00  0.00     0.189 HD
HETATM    4  N   UNL     1      27.575  40.869  52.953  1.00  0.00    -0.156 NA
HETATM    5  C   UNL     1      28.799  40.801  52.428  1.00  0.00     0.152 A 
HETATM    6  C   UNL     1      29.607  41.871  52.867  1.00  0.00     0.084 A 
ENDROOT
BRANCH   5   7
HETATM    7  N   UNL     1      29.099  39.767  51.582  1.00  0.00    -0.308 N 
HETATM    8  C   UNL     1      28.741  39.678  50.254  1.00  0.00     0.258 C 
HETATM    9  O   UNL     1      28.087  40.510  49.633  1.00  0.00    -0.270 OA
HETATM   10  H   UNL     1      29.745  39.082  51.959  1.00  0.00     0.170 HD
BRANCH   8  11
HETATM   11  C   UNL     1      29.244  38.360  49.604  1.00  0.00     0.140 C 
HETATM   12  C   UNL     1      28.525  37.153  50.224  1.00  0.00     0.058 C 
HETATM   13  C   UNL     1      27.059  37.038  49.833  1.00  0.00     0.077 C 
HETATM   14  S   UNL     1      26.881  36.807  48.045  1.00  0.00    -0.169 SA
HETATM   15  C   UNL     1      27.743  38.302  47.494  1.00  0.00     0.077 C 
HETATM   16  C   UNL     1      29.150  38.394  48.071  1.00  0.00     0.058 C 
BRANCH  11  17
HETATM   17  O   UNL     1      30.639  38.224  49.956  1.00  0.00    -0.380 OA
HETATM   18  H   UNL     1      30.722  37.441  50.532  1.00  0.00     0.211 HD
ENDBRANCH  11  17
ENDBRANCH   8  11
ENDBRANCH   5   7
BRANCH   1  19
HETATM   19  C   UNL     1      29.096  43.831  54.504  1.00  0.00     0.069 A 
HETATM   20  C   UNL     1      30.156  43.893  55.420  1.00  0.00     0.132 A 
HETATM   21  C   UNL     1      30.437  45.049  56.150  1.00  0.00     0.043 A 
HETATM   22  F   UNL     1      30.941  42.821  55.618  1.00  0.00    -0.205 F 
HETATM   23  C   UNL     1      29.647  46.183  55.985  1.00  0.00     0.006 A 
HETATM   24  C   UNL     1      28.581  46.149  55.090  1.00  0.00     0.043 A 
HETATM   25  C   UNL     1      28.315  44.986  54.361  1.00  0.00     0.132 A 
HETATM   26  F   UNL     1      27.267  45.006  53.525  1.00  0.00    -0.205 F 
ENDBRANCH   1  19
TORSDOF 4
ENDMDL
MODEL 3
REMARK VINA RESULT:      -8.1      2.148      2.851
REMARK  4 active torsions:
REMARK  status: ('A' for Active; 'I' for Inactive)
REMARK    1  A    between atoms: C_5  and  C_6 
REMARK    2  A    between atoms: C_10  and  N_11 
REMARK       I    between atoms: N_11  and  C_12 
REMARK    3  A    between atoms: C_12  and  C_13 
REMARK    4  A    between atoms: C_13  and  O_14 
ROOT
HETATM    1  C   UNL     1      29.799  43.450  54.766  1.00  0.00     0.070 A 
HETATM    2  N   UNL     1      30.714  43.321  53.751  1.00  0.00    -0.275 N 
HETATM    3  H   UNL     1      31.626  43.764  53.686  1.00  0.00     0.189 HD
HETATM    4  N   UNL     1      30.323  42.514  52.751  1.00  0.00    -0.156 NA
HETATM    5  C   UNL     1      29.093  42.137  53.103  1.00  0.00     0.152 A 
HETATM    6  C   UNL     1      28.728  42.680  54.353  1.00  0.00     0.084 A 
ENDROOT
BRANCH   5   7
HETATM    7  N   UNL     1      28.385  41.321  52.262  1.00  0.00    -0.308 N 
HETATM    8  C   UNL     1      27.634  41.729  51.180  1.00  0.00     0.258 C 
HETATM    9  O   UNL     1      27.480  42.891  50.816  1.00  0.00    -0.270 OA
HETATM   10  H   UNL     1      28.544  40.329  52.397  1.00  0.00     0.170 HD
BRANCH   8  11
HETATM   11  C   UNL     1      26.959  40.532  50.457  1.00  0.00     0.140 C 
HETATM   12  C   UNL     1      26.016  41.040  49.357  1.00  0.00     0.058 C 
HETATM   13  C   UNL     1      26.733  41.639  48.155  1.00  0.00     0.077 C 
HETATM   14  S   UNL     1      27.769  40.401  47.334  1.00  0.00    -0.169 SA
HETATM   15  C   UNL     1      28.811  39.945  48.744  1.00  0.00     0.077 C 
HETATM   16  C   UNL     1      27.983  39.508  49.947  1.00  0.00     0.058 C 
BRANCH  11  17
HETATM   17  O   UNL     1      26.122  39.870  51.432  1.00  0.00    -0.380 OA
HETATM   18  H   UNL     1      26.678  39.671  52.208  1.00  0.00     0.211 HD
ENDBRANCH  11  17
ENDBRANCH   8  11
ENDBRANCH   5   7
BRANCH   1  19
HETATM   19  C   UNL     1      30.019  44.265  55.965  1.00  0.00     0.069 A 
HETATM   20  C   UNL     1      29.233  45.393  56.239  1.00  0.00     0.132 A 
HETATM   21  C   UNL     1      29.421  46.166  57.386  1.00  0.00     0.043 A 
HETATM   22  F   UNL     1      28.262  45.763  55.387  1.00  0.00    -0.205 F 
HETATM   23  C   UNL     1      30.420  45.829  58.294  1.00  0.00     0.006 A 
HETATM   24  C   UNL     1      31.224  44.719  58.045  1.00  0.00     0.043 A 
HETATM   25  C   UNL     1      31.020  43.951  56.894  1.00  0.00     0.132 A 
HETATM   26  F   UNL     1      31.833  42.903  56.699  1.00  0.00    -0.205 F 
ENDBRANCH   1  19
TORSDOF 4
ENDMDL
MODEL 4
REMARK VINA RESULT:      -8.0      3.732      4.642
REMARK  4 active torsions:
REMARK  status: ('A' for Active; 'I' for Inactive)
REMARK    1  A    between atoms: C_5  and  C_6 
REMARK    2  A    between atoms: C_10  and  N_11 
REMARK       I    between atoms: N_11  and  C_12 
REMARK    3  A    between atoms: C_12  and  C_13 
REMARK    4  A    between atoms: C_13  and  O_14 
ROOT
HETATM    1  C   UNL     1      29.531  44.103  54.547  1.00  0.00     0.070 A 
HETATM    2  N   UNL     1      30.223  43.170  53.815  1.00  0.00    -0.275 N 
HETATM    3  H   UNL     1      31.076  42.688  54.082  1.00  0.00     0.189 HD
HETATM    4  N   UNL     1      29.682  42.893  52.617  1.00  0.00    -0.156 NA
HETATM    5  C   UNL     1      28.625  43.703  52.545  1.00  0.00     0.152 A 
HETATM    6  C   UNL     1      28.481  44.465  53.723  1.00  0.00     0.084 A 
ENDROOT
BRANCH   5   7
HETATM    7  N   UNL     1      27.862  43.695  51.408  1.00  0.00    -0.308 N 
HETATM    8  C   UNL     1      27.046  42.666  50.988  1.00  0.00     0.258 C 
HETATM    9  O   UNL     1      26.891  41.596  51.567  1.00  0.00    -0.270 OA
HETATM   10  H   UNL     1      27.818  44.582  50.918  1.00  0.00     0.170 HD
BRANCH   8  11
HETATM   11  C   UNL     1      26.335  42.999  49.647  1.00  0.00     0.140 C 
HETATM   12  C   UNL     1      25.054  42.164  49.504  1.00  0.00     0.058 C 
HETATM   13  C   UNL     1      23.936  42.581  50.448  1.00  0.00     0.077 C 
HETATM   14  S   UNL     1      23.411  44.284  50.122  1.00  0.00    -0.169 SA
HETATM   15  C   UNL     1      25.008  45.106  50.358  1.00  0.00     0.077 C 
HETATM   16  C   UNL     1      26.095  44.506  49.475  1.00  0.00     0.058 C 
BRANCH  11  17
HETATM   17  O   UNL     1      27.218  42.569  48.586  1.00  0.00    -0.380 OA
HETATM   18  H   UNL     1      26.710  41.972  48.006  1.00  0.00     0.211 HD
ENDBRANCH  11  17
ENDBRANCH   8  11
ENDBRANCH   5   7
BRANCH   1  19
HETATM   19  C   UNL     1      29.927  44.546  55.887  1.00  0.00     0.069 A 
HETATM   20  C   UNL     1      30.957  43.909  56.595  1.00  0.00     0.132 A 
HETATM   21  C   UNL     1      31.356  44.334  57.864  1.00  0.00     0.043 A 
HETATM   22  F   UNL     1      31.596  42.857  56.057  1.00  0.00    -0.205 F 
HETATM   23  C   UNL     1      30.719  45.415  58.466  1.00  0.00     0.006 A 
HETATM   24  C   UNL     1      29.685  46.061  57.792  1.00  0.00     0.043 A 
HETATM   25  C   UNL     1      29.301  45.628  56.519  1.00  0.00     0.132 A 
HETATM   26  F   UNL     1      28.291  46.280  55.924  1.00  0.00    -0.205 F 
ENDBRANCH   1  19
TORSDOF 4
ENDMDL
MODEL 5
REMARK VINA RESULT:      -7.8      4.359      5.240
REMARK  4 active torsions:
REMARK  status: ('A' for Active; 'I' for Inactive)
REMARK    1  A    between atoms: C_5  and  C_6 
REMARK    2  A    between atoms: C_10  and  N_11 
REMARK       I    between atoms: N_11  and  C_12 
REMARK    3  A    between atoms: C_12  and  C_13 
REMARK    4  A    between atoms: C_13  and  O_14 
ROOT
HETATM    1  C   UNL     1      28.784  44.342  54.899  1.00  0.00     0.070 A 
HETATM    2  N   UNL     1      28.529  43.077  54.428  1.00  0.00    -0.275 N 
HETATM    3  H   UNL     1      28.898  42.202  54.786  1.00  0.00     0.189 HD
HETATM    4  N   UNL     1      27.694  43.035  53.376  1.00  0.00    -0.156 NA
HETATM    5  C   UNL     1      27.430  44.318  53.122  1.00  0.00     0.152 A 
HETATM    6  C   UNL     1      28.072  45.167  54.048  1.00  0.00     0.084 A 
ENDROOT
BRANCH   5   7
HETATM    7  N   UNL     1      26.620  44.630  52.063  1.00  0.00    -0.308 N 
HETATM    8  C   UNL     1      25.246  44.519  52.034  1.00  0.00     0.258 C 
HETATM    9  O   UNL     1      24.543  44.113  52.954  1.00  0.00    -0.270 OA
HETATM   10  H   UNL     1      27.088  45.094  51.292  1.00  0.00     0.170 HD
BRANCH   8  11
HETATM   11  C   UNL     1      24.657  44.953  50.664  1.00  0.00     0.140 C 
HETATM   12  C   UNL     1      25.708  44.785  49.557  1.00  0.00     0.058 C 
HETATM   13  C   UNL     1      26.013  43.335  49.209  1.00  0.00     0.077 C 
HETATM   14  S   UNL     1      24.539  42.497  48.572  1.00  0.00    -0.169 SA
HETATM   15  C   UNL     1      23.443  42.768  49.989  1.00  0.00     0.077 C 
HETATM   16  C   UNL     1      23.332  44.244  50.350  1.00  0.00     0.058 C 
BRANCH  11  17
HETATM   17  O   UNL     1      24.388  46.371  50.753  1.00  0.00    -0.380 OA
HETATM   18  H   UNL     1      23.755  46.504  51.482  1.00  0.00     0.211 HD
ENDBRANCH  11  17
ENDBRANCH   8  11
ENDBRANCH   5   7
BRANCH   1  19
HETATM   19  C   UNL     1      29.650  44.625  56.047  1.00  0.00     0.069 A 
HETATM   20  C   UNL     1      29.365  45.667  56.941  1.00  0.00     0.132 A 
HETATM   21  C   UNL     1      30.172  45.935  58.048  1.00  0.00     0.043 A 
HETATM   22  F   UNL     1      28.287  46.446  56.748  1.00  0.00    -0.205 F 
HETATM   23  C   UNL     1      31.304  45.161  58.285  1.00  0.00     0.006 A 
HETATM   24  C   UNL     1      31.619  44.126  57.409  1.00  0.00     0.043 A 
HETATM   25  C   UNL     1      30.798  43.865  56.308  1.00  0.00     0.132 A 
HETATM   26  F   UNL     1      31.159  42.865  55.491  1.00  0.00    -0.205 F 
ENDBRANCH   1  19
TORSDOF 4
ENDMDL
MODEL 6
REMARK VINA RESULT:      -7.7     10.595     11.860
REMARK  4 active torsions:
REMARK  status: ('A' for Active; 'I' for Inactive)
REMARK    1  A    between atoms: C_5  and  C_6 
REMARK    2  A    between atoms: C_10  and  N_11 
REMARK       I    between atoms: N_11  and  C_12 
REMARK    3  A    between atoms: C_12  and  C_13 
REMARK    4  A    between atoms: C_13  and  O_14 
ROOT
HETATM    1  C   UNL     1      23.009  48.664  49.118  1.00  0.00     0.070 A 
HETATM    2  N   UNL     1      22.169  49.620  49.634  1.00  0.00    -0.275 N 
HETATM    3  H   UNL     1      22.431  50.504  50.061  1.00  0.00     0.189 HD
HETATM    4  N   UNL     1      20.863  49.316  49.546  1.00  0.00    -0.156 NA
HETATM    5  C   UNL     1      20.851  48.102  48.996  1.00  0.00     0.152 A 
HETATM    6  C   UNL     1      22.157  47.659  48.699  1.00  0.00     0.084 A 
ENDROOT
BRANCH   5   7
HETATM    7  N   UNL     1      19.648  47.476  48.800  1.00  0.00    -0.308 N 
HETATM    8  C   UNL     1      19.048  47.240  47.582  1.00  0.00     0.258 C 
HETATM    9  O   UNL     1      19.499  47.565  46.489  1.00  0.00    -0.270 OA
HETATM   10  H   UNL     1      19.248  47.054  49.630  1.00  0.00     0.170 HD
BRANCH   8  11
HETATM   11  C   UNL     1      17.683  46.515  47.738  1.00  0.00     0.140 C 
HETATM   12  C   UNL     1      16.781  47.285  48.714  1.00  0.00     0.058 C 
HETATM   13  C   UNL     1      16.260  48.604  48.163  1.00  0.00     0.077 C 
HETATM   14  S   UNL     1      15.227  48.335  46.700  1.00  0.00    -0.169 SA
HETATM   15  C   UNL     1      16.437  47.460  45.674  1.00  0.00     0.077 C 
HETATM   16  C   UNL     1      17.011  46.241  46.385  1.00  0.00     0.058 C 
BRANCH  11  17
HETATM   17  O   UNL     1      17.955  45.239  48.361  1.00  0.00    -0.380 OA
HETATM   18  H   UNL     1      17.584  45.267  49.263  1.00  0.00     0.211 HD
ENDBRANCH  11  17
ENDBRANCH   8  11
ENDBRANCH   5   7
BRANCH   1  19
HETATM   19  C   UNL     1      24.469  48.790  49.090  1.00  0.00     0.069 A 
HETATM   20  C   UNL     1      25.294  47.923  49.820  1.00  0.00     0.132 A 
HETATM   21  C   UNL     1      26.686  48.021  49.787  1.00  0.00     0.043 A 
HETATM   22  F   UNL     1      24.753  46.958  50.582  1.00  0.00    -0.205 F 
HETATM   23  C   UNL     1      27.294  49.010  49.019  1.00  0.00     0.006 A 
HETATM   24  C   UNL     1      26.501  49.893  48.291  1.00  0.00     0.043 A 
HETATM   25  C   UNL     1      25.108  49.778  48.329  1.00  0.00     0.132 A 
HETATM   26  F   UNL     1      24.395  50.665  47.619  1.00  0.00    -0.205 F 
ENDBRANCH   1  19
TORSDOF 4
ENDMDL
MODEL 7
REMARK VINA RESULT:      -7.6      1.830      2.890
REMARK  4 active torsions:
REMARK  status: ('A' for Active; 'I' for Inactive)
REMARK    1  A    between atoms: C_5  and  C_6 
REMARK    2  A    between atoms: C_10  and  N_11 
REMARK       I    between atoms: N_11  and  C_12 
REMARK    3  A    between atoms: C_12  and  C_13 
REMARK    4  A    between atoms: C_13  and  O_14 
ROOT
HETATM    1  C   UNL     1      28.411  43.928  53.967  1.00  0.00     0.070 A 
HETATM    2  N   UNL     1      27.042  43.831  53.914  1.00  0.00    -0.275 N 
HETATM    3  H   UNL     1      26.378  44.091  54.638  1.00  0.00     0.189 HD
HETATM    4  N   UNL     1      26.566  43.331  52.762  1.00  0.00    -0.156 NA
HETATM    5  C   UNL     1      27.662  43.049  52.055  1.00  0.00     0.152 A 
HETATM    6  C   UNL     1      28.831  43.414  52.755  1.00  0.00     0.084 A 
ENDROOT
BRANCH   5   7
HETATM    7  N   UNL     1      27.523  42.478  50.818  1.00  0.00    -0.308 N 
HETATM    8  C   UNL     1      27.873  41.189  50.478  1.00  0.00     0.258 C 
HETATM    9  O   UNL     1      28.373  40.362  51.233  1.00  0.00    -0.270 OA
HETATM   10  H   UNL     1      27.004  43.035  50.149  1.00  0.00     0.170 HD
BRANCH   8  11
HETATM   11  C   UNL     1      27.584  40.885  48.982  1.00  0.00     0.140 C 
HETATM   12  C   UNL     1      28.857  40.380  48.287  1.00  0.00     0.058 C 
HETATM   13  C   UNL     1      29.280  38.981  48.712  1.00  0.00     0.077 C 
HETATM   14  S   UNL     1      28.011  37.761  48.285  1.00  0.00    -0.169 SA
HETATM   15  C   UNL     1      26.623  38.489  49.194  1.00  0.00     0.077 C 
HETATM   16  C   UNL     1      26.384  39.942  48.802  1.00  0.00     0.058 C 
BRANCH  11  17
HETATM   17  O   UNL     1      27.253  42.144  48.354  1.00  0.00    -0.380 OA
HETATM   18  H   UNL     1      27.393  42.039  47.395  1.00  0.00     0.211 HD
ENDBRANCH  11  17
ENDBRANCH   8  11
ENDBRANCH   5   7
BRANCH   1  19
HETATM   19  C   UNL     1      29.146  44.461  55.118  1.00  0.00     0.069 A 
HETATM   20  C   UNL     1      30.356  43.892  55.542  1.00  0.00     0.132 A 
HETATM   21  C   UNL     1      31.075  44.402  56.625  1.00  0.00     0.043 A 
HETATM   22  F   UNL     1      30.860  42.823  54.903  1.00  0.00    -0.205 F 
HETATM   23  C   UNL     1      30.589  45.503  57.323  1.00  0.00     0.006 A 
HETATM   24  C   UNL     1      29.385  46.083  56.933  1.00  0.00     0.043 A 
HETATM   25  C   UNL     1      28.679  45.565  55.843  1.00  0.00     0.132 A 
HETATM   26  F   UNL     1      27.519  46.156  55.521  1.00  0.00    -0.205 F 
ENDBRANCH   1  19
TORSDOF 4
ENDMDL
MODEL 8
REMARK VINA RESULT:      -7.6      4.578      5.547
REMARK  4 active torsions:
REMARK  status: ('A' for Active; 'I' for Inactive)
REMARK    1  A    between atoms: C_5  and  C_6 
REMARK    2  A    between atoms: C_10  and  N_11 
REMARK       I    between atoms: N_11  and  C_12 
REMARK    3  A    between atoms: C_12  and  C_13 
REMARK    4  A    between atoms: C_13  and  O_14 
ROOT
HETATM    1  C   UNL     1      27.879  44.000  53.084  1.00  0.00     0.070 A 
HETATM    2  N   UNL     1      28.298  43.848  51.785  1.00  0.00    -0.275 N 
HETATM    3  H   UNL     1      29.250  43.912  51.435  1.00  0.00     0.189 HD
HETATM    4  N   UNL     1      27.312  43.590  50.911  1.00  0.00    -0.156 NA
HETATM    5  C   UNL     1      26.205  43.618  51.655  1.00  0.00     0.152 A 
HETATM    6  C   UNL     1      26.506  43.855  53.013  1.00  0.00     0.084 A 
ENDROOT
BRANCH   5   7
HETATM    7  N   UNL     1      24.994  43.424  51.047  1.00  0.00    -0.308 N 
HETATM    8  C   UNL     1      24.257  44.384  50.385  1.00  0.00     0.258 C 
HETATM    9  O   UNL     1      24.575  45.561  50.252  1.00  0.00    -0.270 OA
HETATM   10  H   UNL     1      24.697  42.457  50.988  1.00  0.00     0.170 HD
BRANCH   8  11
HETATM   11  C   UNL     1      22.926  43.811  49.826  1.00  0.00     0.140 C 
HETATM   12  C   UNL     1      22.489  44.600  48.583  1.00  0.00     0.058 C 
HETATM   13  C   UNL     1      23.359  44.356  47.358  1.00  0.00     0.077 C 
HETATM   14  S   UNL     1      23.287  42.620  46.846  1.00  0.00    -0.169 SA
HETATM   15  C   UNL     1      23.849  41.861  48.392  1.00  0.00     0.077 C 
HETATM   16  C   UNL     1      23.002  42.296  49.582  1.00  0.00     0.058 C 
BRANCH  11  17
HETATM   17  O   UNL     1      21.914  44.045  50.830  1.00  0.00    -0.380 OA
HETATM   18  H   UNL     1      22.371  44.223  51.673  1.00  0.00     0.211 HD
ENDBRANCH  11  17
ENDBRANCH   8  11
ENDBRANCH   5   7
BRANCH   1  19
HETATM   19  C   UNL     1      28.782  44.269  54.207  1.00  0.00     0.069 A 
HETATM   20  C   UNL     1      29.777  43.355  54.583  1.00  0.00     0.132 A 
HETATM   21  C   UNL     1      30.655  43.608  55.638  1.00  0.00     0.043 A 
HETATM   22  F   UNL     1      29.910  42.192  53.923  1.00  0.00    -0.205 F 
HETATM   23  C   UNL     1      30.551  44.795  56.357  1.00  0.00     0.006 A 
HETATM   24  C   UNL     1      29.567  45.719  56.014  1.00  0.00     0.043 A 
HETATM   25  C   UNL     1      28.698  45.454  54.951  1.00  0.00     0.132 A 
HETATM   26  F   UNL     1      27.762  46.373  54.674  1.00  0.00    -0.205 F 
ENDBRANCH   1  19
TORSDOF 4
ENDMDL
MODEL 9
REMARK VINA RESULT:      -7.6      1.852      2.767
REMARK  4 active torsions:
REMARK  status: ('A' for Active; 'I' for Inactive)
REMARK    1  A    between atoms: C_5  and  C_6 
REMARK    2  A    between atoms: C_10  and  N_11 
REMARK       I    between atoms: N_11  and  C_12 
REMARK    3  A    between atoms: C_12  and  C_13 
REMARK    4  A    between atoms: C_13  and  O_14 
ROOT
HETATM    1  C   UNL     1      27.795  43.706  53.381  1.00  0.00     0.070 A 
HETATM    2  N   UNL     1      27.838  42.582  54.169  1.00  0.00    -0.275 N 
HETATM    3  H   UNL     1      27.767  42.538  55.181  1.00  0.00     0.189 HD
HETATM    4  N   UNL     1      27.993  41.434  53.489  1.00  0.00    -0.156 NA
HETATM    5  C   UNL     1      28.100  41.824  52.218  1.00  0.00     0.152 A 
HETATM    6  C   UNL     1      27.970  43.224  52.098  1.00  0.00     0.084 A 
ENDROOT
BRANCH   5   7
HETATM    7  N   UNL     1      28.309  40.878  51.251  1.00  0.00    -0.308 N 
HETATM    8  C   UNL     1      27.330  40.169  50.586  1.00  0.00     0.258 C 
HETATM    9  O   UNL     1      26.122  40.275  50.771  1.00  0.00    -0.270 OA
HETATM   10  H   UNL     1      29.268  40.801  50.931  1.00  0.00     0.170 HD
BRANCH   8  11
HETATM   11  C   UNL     1      27.932  39.171  49.559  1.00  0.00     0.140 C 
HETATM   12  C   UNL     1      26.809  38.432  48.817  1.00  0.00     0.058 C 
HETATM   13  C   UNL     1      26.035  39.304  47.839  1.00  0.00     0.077 C 
HETATM   14  S   UNL     1      27.118  39.927  46.527  1.00  0.00    -0.169 SA
HETATM   15  C   UNL     1      28.337  40.774  47.566  1.00  0.00     0.077 C 
HETATM   16  C   UNL     1      28.938  39.845  48.614  1.00  0.00     0.058 C 
BRANCH  11  17
HETATM   17  O   UNL     1      28.644  38.168  50.318  1.00  0.00    -0.380 OA
HETATM   18  H   UNL     1      29.156  38.629  51.007  1.00  0.00     0.211 HD
ENDBRANCH  11  17
ENDBRANCH   8  11
ENDBRANCH   5   7
BRANCH   1  19
HETATM   19  C   UNL     1      27.616  45.064  53.906  1.00  0.00     0.069 A 
HETATM   20  C   UNL     1      28.555  45.646  54.769  1.00  0.00     0.132 A 
HETATM   21  C   UNL     1      28.404  46.944  55.260  1.00  0.00     0.043 A 
HETATM   22  F   UNL     1      29.642  44.954  55.150  1.00  0.00    -0.205 F 
HETATM   23  C   UNL     1      27.291  47.697  54.901  1.00  0.00     0.006 A 
HETATM   24  C   UNL     1      26.335  47.142  54.053  1.00  0.00     0.043 A 
HETATM   25  C   UNL     1      26.503  45.843  53.564  1.00  0.00     0.132 A 
HETATM   26  F   UNL     1      25.544  45.356  52.763  1.00  0.00    -0.205 F 
ENDBRANCH   1  19
TORSDOF 4
ENDMDL
MODEL 10
REMARK VINA RESULT:      -7.6      1.920      2.493
REMARK  4 active torsions:
REMARK  status: ('A' for Active; 'I' for Inactive)
REMARK    1  A    between atoms: C_5  and  C_6 
REMARK    2  A    between atoms: C_10  and  N_11 
REMARK       I    between atoms: N_11  and  C_12 
REMARK    3  A    between atoms: C_12  and  C_13 
REMARK    4  A    between atoms: C_13  and  O_14 
ROOT
HETATM    1  C   UNL     1      28.319  43.927  53.715  1.00  0.00     0.070 A 
HETATM    2  N   UNL     1      26.966  43.696  53.672  1.00  0.00    -0.275 N 
HETATM    3  H   UNL     1      26.291  43.856  54.413  1.00  0.00     0.189 HD
HETATM    4  N   UNL     1      26.525  43.202  52.503  1.00  0.00    -0.156 NA
HETATM    5  C   UNL     1      27.633  43.063  51.773  1.00  0.00     0.152 A 
HETATM    6  C   UNL     1      28.770  43.513  52.475  1.00  0.00     0.084 A 
ENDROOT
BRANCH   5   7
HETATM    7  N   UNL     1      27.533  42.537  50.512  1.00  0.00    -0.308 N 
HETATM    8  C   UNL     1      27.399  41.201  50.201  1.00  0.00     0.258 C 
HETATM    9  O   UNL     1      27.360  40.280  51.011  1.00  0.00    -0.270 OA
HETATM   10  H   UNL     1      27.429  43.222  49.772  1.00  0.00     0.170 HD
BRANCH   8  11
HETATM   11  C   UNL     1      27.324  40.966  48.668  1.00  0.00     0.140 C 
HETATM   12  C   UNL     1      28.699  40.549  48.126  1.00  0.00     0.058 C 
HETATM   13  C   UNL     1      29.126  39.147  48.536  1.00  0.00     0.077 C 
HETATM   14  S   UNL     1      27.982  37.903  47.885  1.00  0.00    -0.169 SA
HETATM   15  C   UNL     1      26.454  38.527  48.633  1.00  0.00     0.077 C 
HETATM   16  C   UNL     1      26.203  39.989  48.283  1.00  0.00     0.058 C 
BRANCH  11  17
HETATM   17  O   UNL     1      27.021  42.243  48.062  1.00  0.00    -0.380 OA
HETATM   18  H   UNL     1      27.841  42.575  47.651  1.00  0.00     0.211 HD
ENDBRANCH  11  17
ENDBRANCH   8  11
ENDBRANCH   5   7
BRANCH   1  19
HETATM   19  C   UNL     1      29.015  44.480  54.881  1.00  0.00     0.069 A 
HETATM   20  C   UNL     1      28.508  45.582  55.583  1.00  0.00     0.132 A 
HETATM   21  C   UNL     1      29.152  46.106  56.705  1.00  0.00     0.043 A 
HETATM   22  F   UNL     1      27.368  46.171  55.184  1.00  0.00    -0.205 F 
HETATM   23  C   UNL     1      30.340  45.535  57.152  1.00  0.00     0.006 A 
HETATM   24  C   UNL     1      30.874  44.445  56.470  1.00  0.00     0.043 A 
HETATM   25  C   UNL     1      30.215  43.929  55.351  1.00  0.00     0.132 A 
HETATM   26  F   UNL     1      30.783  42.887  54.725  1.00  0.00    -0.205 F 
ENDBRANCH   1  19
TORSDOF 4
ENDMDL
