MODEL 1
REMARK VINA RESULT:      -9.1      0.000      0.000
REMARK  3 active torsions:
REMARK  status: ('A' for Active; 'I' for Inactive)
REMARK    1  A    between atoms: C_4  and  N_5 
REMARK       I    between atoms: N_5  and  C_6 
REMARK    2  A    between atoms: C_6  and  C_7 
REMARK    3  A    between atoms: C_7  and  C_8 
ROOT
HETATM    1  C   UNL     1      26.853  44.131  50.510  1.00  0.00     0.286 C 
HETATM    2  N   UNL     1      27.094  44.447  51.988  1.00  0.00    -0.056 N 
HETATM    3  H   UNL     1      28.012  44.901  52.055  1.00  0.00     0.278 HD
HETATM    4  H   UNL     1      26.425  45.195  52.268  1.00  0.00     0.278 HD
HETATM    5  C   UNL     1      27.016  43.274  52.923  1.00  0.00     0.209 C 
HETATM    6  C   UNL     1      28.001  42.190  52.428  1.00  0.00     0.115 C 
HETATM    7  N   UNL     1      27.749  41.853  51.032  1.00  0.00    -0.353 N 
HETATM    8  C   UNL     1      27.331  42.733  50.070  1.00  0.00     0.249 C 
HETATM    9  O   UNL     1      27.300  42.379  48.896  1.00  0.00    -0.271 OA
HETATM   10  C   UNL     1      27.342  43.740  54.342  1.00  0.00     0.035 C 
HETATM   11  C   UNL     1      28.807  44.138  54.526  1.00  0.00     0.002 C 
HETATM   12  C   UNL     1      29.756  43.044  54.049  1.00  0.00     0.002 C 
HETATM   13  C   UNL     1      29.467  42.613  52.614  1.00  0.00     0.027 C 
HETATM   14  H   UNL     1      28.074  40.957  50.671  1.00  0.00     0.163 HD
ENDROOT
BRANCH   1  15
HETATM   15  C   UNL     1      25.384  44.326  50.102  1.00  0.00     0.146 C 
BRANCH  15  16
HETATM   16  C   UNL     1      24.637  45.031  51.205  1.00  0.00     0.224 C 
HETATM   17  N   UNL     1      24.493  46.378  51.260  1.00  0.00    -0.327 N 
HETATM   18  H   UNL     1      24.144  46.695  52.160  1.00  0.00     0.169 HD
HETATM   19  O   UNL     1      24.189  44.341  52.134  1.00  0.00    -0.273 OA
BRANCH  17  20
HETATM   20  C   UNL     1      24.771  47.403  50.339  1.00  0.00     0.035 A 
HETATM   21  C   UNL     1      23.804  48.097  49.610  1.00  0.00     0.036 A 
HETATM   22  C   UNL     1      24.178  49.098  48.700  1.00  0.00    -0.059 A 
HETATM   23  C   UNL     1      23.141  49.867  47.932  1.00  0.00     0.048 C 
HETATM   24  C   UNL     1      25.531  49.425  48.553  1.00  0.00     0.013 A 
HETATM   25  C   UNL     1      26.508  48.774  49.310  1.00  0.00    -0.059 A 
HETATM   26  C   UNL     1      26.118  47.767  50.202  1.00  0.00     0.036 A 
HETATM   27  C   UNL     1      27.960  49.109  49.122  1.00  0.00     0.048 C 
ENDBRANCH  17  20
ENDBRANCH  15  16
ENDBRANCH   1  15
TORSDOF 3
ENDMDL
MODEL 2
REMARK VINA RESULT:      -8.8      2.186      7.380
REMARK  3 active torsions:
REMARK  status: ('A' for Active; 'I' for Inactive)
REMARK    1  A    between atoms: C_4  and  N_5 
REMARK       I    between atoms: N_5  and  C_6 
REMARK    2  A    between atoms: C_6  and  C_7 
REMARK    3  A    between atoms: C_7  and  C_8 
ROOT
HETATM    1  C   UNL     1      25.526  46.379  52.446  1.00  0.00     0.286 C 
HETATM    2  N   UNL     1      25.858  47.532  51.496  1.00  0.00    -0.056 N 
HETATM    3  H   UNL     1      25.092  48.212  51.566  1.00  0.00     0.278 HD
HETATM    4  H   UNL     1      26.680  48.041  51.886  1.00  0.00     0.278 HD
HETATM    5  C   UNL     1      26.092  47.146  50.063  1.00  0.00     0.209 C 
HETATM    6  C   UNL     1      24.856  46.363  49.563  1.00  0.00     0.115 C 
HETATM    7  N   UNL     1      24.560  45.237  50.439  1.00  0.00    -0.353 N 
HETATM    8  C   UNL     1      24.737  45.225  51.797  1.00  0.00     0.249 C 
HETATM    9  O   UNL     1      24.311  44.282  52.456  1.00  0.00    -0.271 OA
HETATM   10  C   UNL     1      26.345  48.408  49.238  1.00  0.00     0.035 C 
HETATM   11  C   UNL     1      25.105  49.288  49.083  1.00  0.00     0.002 C 
HETATM   12  C   UNL     1      23.907  48.496  48.569  1.00  0.00     0.002 C 
HETATM   13  C   UNL     1      23.619  47.264  49.422  1.00  0.00     0.027 C 
HETATM   14  H   UNL     1      24.010  44.458  50.079  1.00  0.00     0.163 HD
ENDROOT
BRANCH   1  15
HETATM   15  C   UNL     1      26.776  45.821  53.146  1.00  0.00     0.146 C 
BRANCH  15  16
HETATM   16  C   UNL     1      27.117  46.674  54.339  1.00  0.00     0.224 C 
HETATM   17  N   UNL     1      28.038  46.317  55.268  1.00  0.00    -0.327 N 
HETATM   18  H   UNL     1      27.998  46.901  56.100  1.00  0.00     0.169 HD
HETATM   19  O   UNL     1      26.476  47.724  54.504  1.00  0.00    -0.273 OA
BRANCH  17  20
HETATM   20  C   UNL     1      28.989  45.283  55.316  1.00  0.00     0.035 A 
HETATM   21  C   UNL     1      29.917  45.108  56.343  1.00  0.00     0.036 A 
HETATM   22  C   UNL     1      30.841  44.052  56.297  1.00  0.00    -0.059 A 
HETATM   23  C   UNL     1      31.825  43.841  57.413  1.00  0.00     0.048 C 
HETATM   24  C   UNL     1      30.803  43.149  55.229  1.00  0.00     0.013 A 
HETATM   25  C   UNL     1      29.850  43.282  54.216  1.00  0.00    -0.059 A 
HETATM   26  C   UNL     1      28.946  44.350  54.271  1.00  0.00     0.036 A 
HETATM   27  C   UNL     1      29.839  42.328  53.057  1.00  0.00     0.048 C 
ENDBRANCH  17  20
ENDBRANCH  15  16
ENDBRANCH   1  15
TORSDOF 3
ENDMDL
MODEL 3
REMARK VINA RESULT:      -8.7      3.035      6.761
REMARK  3 active torsions:
REMARK  status: ('A' for Active; 'I' for Inactive)
REMARK    1  A    between atoms: C_4  and  N_5 
REMARK       I    between atoms: N_5  and  C_6 
REMARK    2  A    between atoms: C_6  and  C_7 
REMARK    3  A    between atoms: C_7  and  C_8 
ROOT
HETATM    1  C   UNL     1      26.490  45.844  52.785  1.00  0.00     0.286 C 
HETATM    2  N   UNL     1      26.849  44.423  52.346  1.00  0.00    -0.056 N 
HETATM    3  H   UNL     1      27.551  44.504  51.601  1.00  0.00     0.278 HD
HETATM    4  H   UNL     1      27.366  43.967  53.128  1.00  0.00     0.278 HD
HETATM    5  C   UNL     1      25.696  43.573  51.894  1.00  0.00     0.209 C 
HETATM    6  C   UNL     1      24.951  44.323  50.766  1.00  0.00     0.115 C 
HETATM    7  N   UNL     1      24.568  45.663  51.192  1.00  0.00    -0.353 N 
HETATM    8  C   UNL     1      25.297  46.463  52.031  1.00  0.00     0.249 C 
HETATM    9  O   UNL     1      24.960  47.631  52.201  1.00  0.00    -0.271 OA
HETATM   10  C   UNL     1      26.224  42.215  51.430  1.00  0.00     0.035 C 
HETATM   11  C   UNL     1      27.030  42.291  50.133  1.00  0.00     0.002 C 
HETATM   12  C   UNL     1      26.265  43.017  49.031  1.00  0.00     0.002 C 
HETATM   13  C   UNL     1      25.782  44.395  49.474  1.00  0.00     0.027 C 
HETATM   14  H   UNL     1      23.809  46.141  50.708  1.00  0.00     0.163 HD
ENDROOT
BRANCH   1  15
HETATM   15  C   UNL     1      26.252  45.945  54.300  1.00  0.00     0.146 C 
BRANCH  15  16
HETATM   16  C   UNL     1      27.190  46.961  54.898  1.00  0.00     0.224 C 
HETATM   17  N   UNL     1      28.404  46.639  55.410  1.00  0.00    -0.327 N 
HETATM   18  H   UNL     1      28.813  47.398  55.947  1.00  0.00     0.169 HD
HETATM   19  O   UNL     1      26.799  48.136  54.977  1.00  0.00    -0.273 OA
BRANCH  17  20
HETATM   20  C   UNL     1      29.169  45.460  55.374  1.00  0.00     0.035 A 
HETATM   21  C   UNL     1      29.141  44.529  54.334  1.00  0.00     0.036 A 
HETATM   22  C   UNL     1      29.932  43.371  54.393  1.00  0.00    -0.059 A 
HETATM   23  C   UNL     1      29.927  42.378  53.265  1.00  0.00     0.048 C 
HETATM   24  C   UNL     1      30.783  43.171  55.487  1.00  0.00     0.013 A 
HETATM   25  C   UNL     1      30.858  44.116  56.512  1.00  0.00    -0.059 A 
HETATM   26  C   UNL     1      30.051  45.258  56.445  1.00  0.00     0.036 A 
HETATM   27  C   UNL     1      31.748  43.877  57.698  1.00  0.00     0.048 C 
ENDBRANCH  17  20
ENDBRANCH  15  16
ENDBRANCH   1  15
TORSDOF 3
ENDMDL
MODEL 4
REMARK VINA RESULT:      -8.5      0.837      2.036
REMARK  3 active torsions:
REMARK  status: ('A' for Active; 'I' for Inactive)
REMARK    1  A    between atoms: C_4  and  N_5 
REMARK       I    between atoms: N_5  and  C_6 
REMARK    2  A    between atoms: C_6  and  C_7 
REMARK    3  A    between atoms: C_7  and  C_8 
ROOT
HETATM    1  C   UNL     1      26.808  44.159  50.522  1.00  0.00     0.286 C 
HETATM    2  N   UNL     1      26.953  45.041  51.764  1.00  0.00    -0.056 N 
HETATM    3  H   UNL     1      27.950  45.266  51.861  1.00  0.00     0.278 HD
HETATM    4  H   UNL     1      26.509  45.961  51.557  1.00  0.00     0.278 HD
HETATM    5  C   UNL     1      26.418  44.458  53.041  1.00  0.00     0.209 C 
HETATM    6  C   UNL     1      27.086  43.082  53.265  1.00  0.00     0.115 C 
HETATM    7  N   UNL     1      26.914  42.221  52.103  1.00  0.00    -0.353 N 
HETATM    8  C   UNL     1      26.896  42.645  50.801  1.00  0.00     0.249 C 
HETATM    9  O   UNL     1      26.901  41.820  49.893  1.00  0.00    -0.271 OA
HETATM   10  C   UNL     1      26.696  45.426  54.191  1.00  0.00     0.035 C 
HETATM   11  C   UNL     1      28.179  45.536  54.543  1.00  0.00     0.002 C 
HETATM   12  C   UNL     1      28.809  44.167  54.780  1.00  0.00     0.002 C 
HETATM   13  C   UNL     1      28.578  43.215  53.611  1.00  0.00     0.027 C 
HETATM   14  H   UNL     1      26.998  41.211  52.215  1.00  0.00     0.163 HD
ENDROOT
BRANCH   1  15
HETATM   15  C   UNL     1      25.524  44.465  49.735  1.00  0.00     0.146 C 
BRANCH  15  16
HETATM   16  C   UNL     1      24.491  45.062  50.654  1.00  0.00     0.224 C 
HETATM   17  N   UNL     1      24.277  46.397  50.762  1.00  0.00    -0.327 N 
HETATM   18  H   UNL     1      23.696  46.634  51.562  1.00  0.00     0.169 HD
HETATM   19  O   UNL     1      23.853  44.291  51.388  1.00  0.00    -0.273 OA
BRANCH  17  20
HETATM   20  C   UNL     1      24.732  47.497  50.014  1.00  0.00     0.035 A 
HETATM   21  C   UNL     1      26.069  47.884  49.909  1.00  0.00     0.036 A 
HETATM   22  C   UNL     1      26.429  49.007  49.149  1.00  0.00    -0.059 A 
HETATM   23  C   UNL     1      27.869  49.414  49.009  1.00  0.00     0.048 C 
HETATM   24  C   UNL     1      25.439  49.721  48.463  1.00  0.00     0.013 A 
HETATM   25  C   UNL     1      24.103  49.320  48.519  1.00  0.00    -0.059 A 
HETATM   26  C   UNL     1      23.760  48.205  49.295  1.00  0.00     0.036 A 
HETATM   27  C   UNL     1      23.044  50.111  47.807  1.00  0.00     0.048 C 
ENDBRANCH  17  20
ENDBRANCH  15  16
ENDBRANCH   1  15
TORSDOF 3
ENDMDL
MODEL 5
REMARK VINA RESULT:      -8.4      1.531      3.151
REMARK  3 active torsions:
REMARK  status: ('A' for Active; 'I' for Inactive)
REMARK    1  A    between atoms: C_4  and  N_5 
REMARK       I    between atoms: N_5  and  C_6 
REMARK    2  A    between atoms: C_6  and  C_7 
REMARK    3  A    between atoms: C_7  and  C_8 
ROOT
HETATM    1  C   UNL     1      25.998  44.630  53.199  1.00  0.00     0.286 C 
HETATM    2  N   UNL     1      26.307  43.458  52.267  1.00  0.00    -0.056 N 
HETATM    3  H   UNL     1      26.075  42.597  52.776  1.00  0.00     0.278 HD
HETATM    4  H   UNL     1      25.616  43.479  51.486  1.00  0.00     0.278 HD
HETATM    5  C   UNL     1      27.713  43.398  51.742  1.00  0.00     0.209 C 
HETATM    6  C   UNL     1      28.683  43.410  52.947  1.00  0.00     0.115 C 
HETATM    7  N   UNL     1      28.422  44.549  53.817  1.00  0.00    -0.353 N 
HETATM    8  C   UNL     1      27.187  45.086  54.067  1.00  0.00     0.249 C 
HETATM    9  O   UNL     1      27.064  45.945  54.935  1.00  0.00    -0.271 OA
HETATM   10  C   UNL     1      27.877  42.142  50.886  1.00  0.00     0.035 C 
HETATM   11  C   UNL     1      27.834  40.847  51.696  1.00  0.00     0.002 C 
HETATM   12  C   UNL     1      28.814  40.876  52.865  1.00  0.00     0.002 C 
HETATM   13  C   UNL     1      28.618  42.102  53.753  1.00  0.00     0.027 C 
HETATM   14  H   UNL     1      29.158  44.876  54.442  1.00  0.00     0.163 HD
ENDROOT
BRANCH   1  15
HETATM   15  C   UNL     1      25.416  45.838  52.447  1.00  0.00     0.146 C 
BRANCH  15  16
HETATM   16  C   UNL     1      24.431  45.367  51.409  1.00  0.00     0.224 C 
HETATM   17  N   UNL     1      24.100  46.096  50.314  1.00  0.00    -0.327 N 
HETATM   18  H   UNL     1      23.284  45.727  49.834  1.00  0.00     0.169 HD
HETATM   19  O   UNL     1      23.853  44.286  51.606  1.00  0.00    -0.273 OA
BRANCH  17  20
HETATM   20  C   UNL     1      24.638  47.268  49.754  1.00  0.00     0.035 A 
HETATM   21  C   UNL     1      25.996  47.591  49.745  1.00  0.00     0.036 A 
HETATM   22  C   UNL     1      26.439  48.793  49.173  1.00  0.00    -0.059 A 
HETATM   23  C   UNL     1      27.902  49.135  49.135  1.00  0.00     0.048 C 
HETATM   24  C   UNL     1      25.512  49.656  48.576  1.00  0.00     0.013 A 
HETATM   25  C   UNL     1      24.156  49.326  48.535  1.00  0.00    -0.059 A 
HETATM   26  C   UNL     1      23.729  48.129  49.123  1.00  0.00     0.036 A 
HETATM   27  C   UNL     1      23.164  50.273  47.922  1.00  0.00     0.048 C 
ENDBRANCH  17  20
ENDBRANCH  15  16
ENDBRANCH   1  15
TORSDOF 3
ENDMDL
MODEL 6
REMARK VINA RESULT:      -8.4      2.883      6.948
REMARK  3 active torsions:
REMARK  status: ('A' for Active; 'I' for Inactive)
REMARK    1  A    between atoms: C_4  and  N_5 
REMARK       I    between atoms: N_5  and  C_6 
REMARK    2  A    between atoms: C_6  and  C_7 
REMARK    3  A    between atoms: C_7  and  C_8 
ROOT
HETATM    1  C   UNL     1      26.400  43.780  51.287  1.00  0.00     0.286 C 
HETATM    2  N   UNL     1      25.748  42.931  50.194  1.00  0.00    -0.056 N 
HETATM    3  H   UNL     1      26.022  43.338  49.292  1.00  0.00     0.278 HD
HETATM    4  H   UNL     1      26.210  41.997  50.196  1.00  0.00     0.278 HD
HETATM    5  C   UNL     1      24.255  42.796  50.280  1.00  0.00     0.209 C 
HETATM    6  C   UNL     1      23.639  44.213  50.312  1.00  0.00     0.115 C 
HETATM    7  N   UNL     1      24.224  45.014  51.380  1.00  0.00    -0.353 N 
HETATM    8  C   UNL     1      25.527  44.944  51.797  1.00  0.00     0.249 C 
HETATM    9  O   UNL     1      25.954  45.771  52.596  1.00  0.00    -0.271 OA
HETATM   10  C   UNL     1      23.754  41.979  49.089  1.00  0.00     0.035 C 
HETATM   11  C   UNL     1      23.884  42.714  47.755  1.00  0.00     0.002 C 
HETATM   12  C   UNL     1      23.250  44.101  47.807  1.00  0.00     0.002 C 
HETATM   13  C   UNL     1      23.786  44.938  48.965  1.00  0.00     0.027 C 
HETATM   14  H   UNL     1      23.711  45.821  51.735  1.00  0.00     0.163 HD
ENDROOT
BRANCH   1  15
HETATM   15  C   UNL     1      26.878  42.934  52.478  1.00  0.00     0.146 C 
BRANCH  15  16
HETATM   16  C   UNL     1      28.252  42.385  52.196  1.00  0.00     0.224 C 
HETATM   17  N   UNL     1      29.363  42.788  52.861  1.00  0.00    -0.327 N 
HETATM   18  H   UNL     1      30.219  42.471  52.414  1.00  0.00     0.169 HD
HETATM   19  O   UNL     1      28.372  41.571  51.267  1.00  0.00    -0.273 OA
BRANCH  17  20
HETATM   20  C   UNL     1      29.551  43.581  54.006  1.00  0.00     0.035 A 
HETATM   21  C   UNL     1      28.810  44.725  54.307  1.00  0.00     0.036 A 
HETATM   22  C   UNL     1      29.080  45.463  55.470  1.00  0.00    -0.059 A 
HETATM   23  C   UNL     1      28.270  46.681  55.814  1.00  0.00     0.048 C 
HETATM   24  C   UNL     1      30.075  45.023  56.351  1.00  0.00     0.013 A 
HETATM   25  C   UNL     1      30.792  43.854  56.089  1.00  0.00    -0.059 A 
HETATM   26  C   UNL     1      30.521  43.139  54.917  1.00  0.00     0.036 A 
HETATM   27  C   UNL     1      31.880  43.408  57.023  1.00  0.00     0.048 C 
ENDBRANCH  17  20
ENDBRANCH  15  16
ENDBRANCH   1  15
TORSDOF 3
ENDMDL
MODEL 7
REMARK VINA RESULT:      -8.3      2.525      7.133
REMARK  3 active torsions:
REMARK  status: ('A' for Active; 'I' for Inactive)
REMARK    1  A    between atoms: C_4  and  N_5 
REMARK       I    between atoms: N_5  and  C_6 
REMARK    2  A    between atoms: C_6  and  C_7 
REMARK    3  A    between atoms: C_7  and  C_8 
ROOT
HETATM    1  C   UNL     1      25.609  46.244  52.384  1.00  0.00     0.286 C 
HETATM    2  N   UNL     1      24.932  47.265  51.468  1.00  0.00    -0.056 N 
HETATM    3  H   UNL     1      23.919  47.146  51.579  1.00  0.00     0.278 HD
HETATM    4  H   UNL     1      25.116  48.215  51.857  1.00  0.00     0.278 HD
HETATM    5  C   UNL     1      25.316  47.191  50.018  1.00  0.00     0.209 C 
HETATM    6  C   UNL     1      25.057  45.751  49.518  1.00  0.00     0.115 C 
HETATM    7  N   UNL     1      25.735  44.775  50.361  1.00  0.00    -0.353 N 
HETATM    8  C   UNL     1      25.917  44.890  51.714  1.00  0.00     0.249 C 
HETATM    9  O   UNL     1      26.363  43.940  52.349  1.00  0.00    -0.271 OA
HETATM   10  C   UNL     1      24.511  48.226  49.231  1.00  0.00     0.035 C 
HETATM   11  C   UNL     1      23.023  47.889  49.136  1.00  0.00     0.002 C 
HETATM   12  C   UNL     1      22.794  46.471  48.621  1.00  0.00     0.002 C 
HETATM   13  C   UNL     1      23.556  45.430  49.437  1.00  0.00     0.027 C 
HETATM   14  H   UNL     1      25.933  43.848  49.987  1.00  0.00     0.163 HD
ENDROOT
BRANCH   1  15
HETATM   15  C   UNL     1      26.886  46.799  53.036  1.00  0.00     0.146 C 
BRANCH  15  16
HETATM   16  C   UNL     1      26.582  47.270  54.434  1.00  0.00     0.224 C 
HETATM   17  N   UNL     1      27.190  46.765  55.536  1.00  0.00    -0.327 N 
HETATM   18  H   UNL     1      26.729  47.046  56.397  1.00  0.00     0.169 HD
HETATM   19  O   UNL     1      25.688  48.119  54.579  1.00  0.00    -0.273 OA
BRANCH  17  20
HETATM   20  C   UNL     1      28.290  45.907  55.707  1.00  0.00     0.035 A 
HETATM   21  C   UNL     1      28.681  44.928  54.792  1.00  0.00     0.036 A 
HETATM   22  C   UNL     1      29.788  44.107  55.055  1.00  0.00    -0.059 A 
HETATM   23  C   UNL     1      30.231  43.070  54.063  1.00  0.00     0.048 C 
HETATM   24  C   UNL     1      30.526  44.300  56.229  1.00  0.00     0.013 A 
HETATM   25  C   UNL     1      30.178  45.307  57.133  1.00  0.00    -0.059 A 
HETATM   26  C   UNL     1      29.061  46.106  56.861  1.00  0.00     0.036 A 
HETATM   27  C   UNL     1      30.955  45.484  58.405  1.00  0.00     0.048 C 
ENDBRANCH  17  20
ENDBRANCH  15  16
ENDBRANCH   1  15
TORSDOF 3
ENDMDL
MODEL 8
REMARK VINA RESULT:      -8.2      1.667      2.851
REMARK  3 active torsions:
REMARK  status: ('A' for Active; 'I' for Inactive)
REMARK    1  A    between atoms: C_4  and  N_5 
REMARK       I    between atoms: N_5  and  C_6 
REMARK    2  A    between atoms: C_6  and  C_7 
REMARK    3  A    between atoms: C_7  and  C_8 
ROOT
HETATM    1  C   UNL     1      26.014  45.476  53.569  1.00  0.00     0.286 C 
HETATM    2  N   UNL     1      26.647  44.259  52.893  1.00  0.00    -0.056 N 
HETATM    3  H   UNL     1      26.425  43.441  53.472  1.00  0.00     0.278 HD
HETATM    4  H   UNL     1      26.132  44.082  52.004  1.00  0.00     0.278 HD
HETATM    5  C   UNL     1      28.127  44.347  52.650  1.00  0.00     0.209 C 
HETATM    6  C   UNL     1      28.824  44.649  53.997  1.00  0.00     0.115 C 
HETATM    7  N   UNL     1      28.254  45.834  54.627  1.00  0.00    -0.353 N 
HETATM    8  C   UNL     1      26.938  46.206  54.564  1.00  0.00     0.249 C 
HETATM    9  O   UNL     1      26.536  47.135  55.258  1.00  0.00    -0.271 OA
HETATM   10  C   UNL     1      28.614  43.036  52.033  1.00  0.00     0.035 C 
HETATM   11  C   UNL     1      28.568  41.857  53.004  1.00  0.00     0.002 C 
HETATM   12  C   UNL     1      29.280  42.173  54.316  1.00  0.00     0.002 C 
HETATM   13  C   UNL     1      28.759  43.454  54.961  1.00  0.00     0.027 C 
HETATM   14  H   UNL     1      28.802  46.340  55.321  1.00  0.00     0.163 HD
ENDROOT
BRANCH   1  15
HETATM   15  C   UNL     1      25.452  46.483  52.553  1.00  0.00     0.146 C 
BRANCH  15  16
HETATM   16  C   UNL     1      24.597  45.765  51.542  1.00  0.00     0.224 C 
HETATM   17  N   UNL     1      24.214  46.321  50.365  1.00  0.00    -0.327 N 
HETATM   18  H   UNL     1      23.484  45.786  49.902  1.00  0.00     0.169 HD
HETATM   19  O   UNL     1      24.177  44.635  51.835  1.00  0.00    -0.273 OA
BRANCH  17  20
HETATM   20  C   UNL     1      24.598  47.498  49.700  1.00  0.00     0.035 A 
HETATM   21  C   UNL     1      23.713  48.380  49.077  1.00  0.00     0.036 A 
HETATM   22  C   UNL     1      24.192  49.526  48.423  1.00  0.00    -0.059 A 
HETATM   23  C   UNL     1      23.244  50.494  47.774  1.00  0.00     0.048 C 
HETATM   24  C   UNL     1      25.564  49.803  48.431  1.00  0.00     0.013 A 
HETATM   25  C   UNL     1      26.458  48.956  49.091  1.00  0.00    -0.059 A 
HETATM   26  C   UNL     1      25.964  47.809  49.725  1.00  0.00     0.036 A 
HETATM   27  C   UNL     1      27.932  49.243  49.066  1.00  0.00     0.048 C 
ENDBRANCH  17  20
ENDBRANCH  15  16
ENDBRANCH   1  15
TORSDOF 3
ENDMDL
MODEL 9
REMARK VINA RESULT:      -8.2      3.968      6.279
REMARK  3 active torsions:
REMARK  status: ('A' for Active; 'I' for Inactive)
REMARK    1  A    between atoms: C_4  and  N_5 
REMARK       I    between atoms: N_5  and  C_6 
REMARK    2  A    between atoms: C_6  and  C_7 
REMARK    3  A    between atoms: C_7  and  C_8 
ROOT
HETATM    1  C   UNL     1      27.026  41.251  50.308  1.00  0.00     0.286 C 
HETATM    2  N   UNL     1      26.716  41.074  48.821  1.00  0.00    -0.056 N 
HETATM    3  H   UNL     1      26.121  40.242  48.732  1.00  0.00     0.278 HD
HETATM    4  H   UNL     1      26.094  41.858  48.528  1.00  0.00     0.278 HD
HETATM    5  C   UNL     1      27.911  40.966  47.916  1.00  0.00     0.209 C 
HETATM    6  C   UNL     1      28.807  39.815  48.430  1.00  0.00     0.115 C 
HETATM    7  N   UNL     1      29.142  40.000  49.836  1.00  0.00    -0.353 N 
HETATM    8  C   UNL     1      28.316  40.550  50.779  1.00  0.00     0.249 C 
HETATM    9  O   UNL     1      28.639  40.516  51.963  1.00  0.00    -0.271 OA
HETATM   10  C   UNL     1      27.436  40.728  46.483  1.00  0.00     0.035 C 
HETATM   11  C   UNL     1      26.811  39.349  46.273  1.00  0.00     0.002 C 
HETATM   12  C   UNL     1      27.723  38.231  46.768  1.00  0.00     0.002 C 
HETATM   13  C   UNL     1      28.157  38.438  48.217  1.00  0.00     0.027 C 
HETATM   14  H   UNL     1      29.964  39.531  50.217  1.00  0.00     0.163 HD
ENDROOT
BRANCH   1  15
HETATM   15  C   UNL     1      27.061  42.730  50.726  1.00  0.00     0.146 C 
BRANCH  15  16
HETATM   16  C   UNL     1      25.837  43.060  51.539  1.00  0.00     0.224 C 
HETATM   17  N   UNL     1      25.894  43.584  52.788  1.00  0.00    -0.327 N 
HETATM   18  H   UNL     1      24.996  43.556  53.263  1.00  0.00     0.169 HD
HETATM   19  O   UNL     1      24.728  42.779  51.057  1.00  0.00    -0.273 OA
BRANCH  17  20
HETATM   20  C   UNL     1      26.951  44.109  53.552  1.00  0.00     0.035 A 
HETATM   21  C   UNL     1      28.078  43.387  53.948  1.00  0.00     0.036 A 
HETATM   22  C   UNL     1      29.078  43.993  54.723  1.00  0.00    -0.059 A 
HETATM   23  C   UNL     1      30.306  43.230  55.131  1.00  0.00     0.048 C 
HETATM   24  C   UNL     1      28.958  45.345  55.068  1.00  0.00     0.013 A 
HETATM   25  C   UNL     1      27.861  46.095  54.639  1.00  0.00    -0.059 A 
HETATM   26  C   UNL     1      26.865  45.469  53.880  1.00  0.00     0.036 A 
HETATM   27  C   UNL     1      27.725  47.536  55.042  1.00  0.00     0.048 C 
ENDBRANCH  17  20
ENDBRANCH  15  16
ENDBRANCH   1  15
TORSDOF 3
ENDMDL
MODEL 10
REMARK VINA RESULT:      -8.1     11.439     14.232
REMARK  3 active torsions:
REMARK  status: ('A' for Active; 'I' for Inactive)
REMARK    1  A    between atoms: C_4  and  N_5 
REMARK       I    between atoms: N_5  and  C_6 
REMARK    2  A    between atoms: C_6  and  C_7 
REMARK    3  A    between atoms: C_7  and  C_8 
ROOT
HETATM    1  C   UNL     1      31.225  51.987  41.272  1.00  0.00     0.286 C 
HETATM    2  N   UNL     1      30.179  50.879  41.144  1.00  0.00    -0.056 N 
HETATM    3  H   UNL     1      30.298  50.456  40.217  1.00  0.00     0.278 HD
HETATM    4  H   UNL     1      30.440  50.114  41.803  1.00  0.00     0.278 HD
HETATM    5  C   UNL     1      28.753  51.305  41.351  1.00  0.00     0.209 C 
HETATM    6  C   UNL     1      28.446  52.464  40.374  1.00  0.00     0.115 C 
HETATM    7  N   UNL     1      29.414  53.543  40.521  1.00  0.00    -0.353 N 
HETATM    8  C   UNL     1      30.741  53.378  40.819  1.00  0.00     0.249 C 
HETATM    9  O   UNL     1      31.499  54.342  40.766  1.00  0.00    -0.271 OA
HETATM   10  C   UNL     1      27.832  50.106  41.126  1.00  0.00     0.035 C 
HETATM   11  C   UNL     1      27.772  49.654  39.667  1.00  0.00     0.002 C 
HETATM   12  C   UNL     1      27.447  50.811  38.728  1.00  0.00     0.002 C 
HETATM   13  C   UNL     1      28.398  51.990  38.913  1.00  0.00     0.027 C 
HETATM   14  H   UNL     1      29.167  54.480  40.205  1.00  0.00     0.163 HD
ENDROOT
BRANCH   1  15
HETATM   15  C   UNL     1      31.807  52.081  42.692  1.00  0.00     0.146 C 
BRANCH  15  16
HETATM   16  C   UNL     1      32.467  50.778  43.061  1.00  0.00     0.224 C 
HETATM   17  N   UNL     1      33.799  50.559  42.932  1.00  0.00    -0.327 N 
HETATM   18  H   UNL     1      34.043  49.577  43.032  1.00  0.00     0.169 HD
HETATM   19  O   UNL     1      31.740  49.847  43.442  1.00  0.00    -0.273 OA
BRANCH  17  20
HETATM   20  C   UNL     1      34.881  51.411  42.650  1.00  0.00     0.035 A 
HETATM   21  C   UNL     1      35.379  51.662  41.371  1.00  0.00     0.036 A 
HETATM   22  C   UNL     1      36.475  52.520  41.188  1.00  0.00    -0.059 A 
HETATM   23  C   UNL     1      36.999  52.816  39.811  1.00  0.00     0.048 C 
HETATM   24  C   UNL     1      37.046  53.155  42.297  1.00  0.00     0.013 A 
HETATM   25  C   UNL     1      36.530  52.952  43.579  1.00  0.00    -0.059 A 
HETATM   26  C   UNL     1      35.446  52.081  43.744  1.00  0.00     0.036 A 
HETATM   27  C   UNL     1      37.170  53.612  44.766  1.00  0.00     0.048 C 
ENDBRANCH  17  20
ENDBRANCH  15  16
ENDBRANCH   1  15
TORSDOF 3
ENDMDL
