MODEL 1
REMARK VINA RESULT:      -9.5      0.000      0.000
REMARK  8 active torsions:
REMARK  status: ('A' for Active; 'I' for Inactive)
REMARK    1  A    between atoms: C_4  and  C_5 
REMARK    2  A    between atoms: C_5  and  C_6 
REMARK    3  A    between atoms: C_6  and  N_7 
REMARK    4  A    between atoms: C_8  and  S_9 
REMARK    5  A    between atoms: S_9  and  C_10 
REMARK    6  A    between atoms: C_10  and  C_11 
REMARK    7  A    between atoms: C_24  and  C_25 
REMARK    8  A    between atoms: C_26  and  O_27 
ROOT
HETATM    1  N   UNL     1      21.683  48.268  48.966  1.00  0.00    -0.307 N 
HETATM    2  C   UNL     1      22.947  47.861  49.312  1.00  0.00     0.192 C 
HETATM    3  N   UNL     1      23.662  48.894  49.685  1.00  0.00    -0.122 NA
HETATM    4  N   UNL     1      22.854  49.990  49.669  1.00  0.00    -0.128 NA
HETATM    5  C   UNL     1      21.633  49.612  49.323  1.00  0.00     0.167 C 
ENDROOT
BRANCH   2   6
HETATM    6  S   UNL     1      23.527  46.232  49.297  1.00  0.00    -0.083 SA
BRANCH   6   7
HETATM    7  C   UNL     1      25.313  46.532  49.482  1.00  0.00     0.161 C 
BRANCH   7   8
HETATM    8  C   UNL     1      25.832  46.317  50.892  1.00  0.00     0.117 A 
HETATM    9  N   UNL     1      26.601  45.301  51.125  1.00  0.00    -0.234 NA
HETATM   10  C   UNL     1      27.059  45.095  52.438  1.00  0.00     0.074 A 
HETATM   11  C   UNL     1      26.716  45.942  53.495  1.00  0.00     0.061 A 
HETATM   12  C   UNL     1      27.879  43.998  52.701  1.00  0.00     0.032 A 
HETATM   13  C   UNL     1      25.847  47.088  53.184  1.00  0.00     0.259 A 
HETATM   14  C   UNL     1      27.178  45.710  54.794  1.00  0.00     0.019 A 
HETATM   15  O   UNL     1      25.492  47.891  54.038  1.00  0.00    -0.267 OA
HETATM   16  N   UNL     1      25.457  47.193  51.874  1.00  0.00    -0.310 N 
HETATM   17  H   UNL     1      24.859  47.977  51.648  1.00  0.00     0.170 HD
HETATM   18  C   UNL     1      27.997  44.609  55.041  1.00  0.00     0.001 A 
HETATM   19  C   UNL     1      28.347  43.753  53.996  1.00  0.00     0.002 A 
ENDBRANCH   7   8
ENDBRANCH   6   7
ENDBRANCH   2   6
BRANCH   1  20
HETATM   20  C   UNL     1      20.601  47.500  48.377  1.00  0.00     0.137 C 
BRANCH  20  21
HETATM   21  C   UNL     1      19.988  48.038  47.076  1.00  0.00     0.059 C 
BRANCH  21  22
HETATM   22  C   UNL     1      18.562  48.550  47.163  1.00  0.00    -0.057 A 
HETATM   23  C   UNL     1      17.704  47.947  48.099  1.00  0.00     0.007 A 
HETATM   24  C   UNL     1      16.382  48.372  48.243  1.00  0.00     0.001 A 
HETATM   25  C   UNL     1      15.894  49.408  47.453  1.00  0.00     0.000 A 
HETATM   26  C   UNL     1      16.729  50.021  46.525  1.00  0.00     0.001 A 
HETATM   27  C   UNL     1      18.056  49.601  46.383  1.00  0.00     0.007 A 
ENDBRANCH  21  22
ENDBRANCH  20  21
ENDBRANCH   1  20
BRANCH   5  28
HETATM   28  C   UNL     1      20.491  50.532  49.297  1.00  0.00     0.045 A 
HETATM   29  C   UNL     1      19.411  50.342  50.179  1.00  0.00     0.079 A 
HETATM   30  C   UNL     1      18.314  51.201  50.177  1.00  0.00     0.037 A 
HETATM   31  C   UNL     1      18.260  52.256  49.270  1.00  0.00     0.003 A 
HETATM   32  C   UNL     1      19.297  52.437  48.357  1.00  0.00     0.001 A 
HETATM   33  C   UNL     1      20.398  51.574  48.362  1.00  0.00     0.018 A 
BRANCH  29  34
HETATM   34  O   UNL     1      19.363  49.304  51.075  1.00  0.00    -0.360 OA
HETATM   35  H   UNL     1      20.167  49.349  51.633  1.00  0.00     0.217 HD
ENDBRANCH  29  34
ENDBRANCH   5  28
TORSDOF 8
ENDMDL
MODEL 2
REMARK VINA RESULT:      -9.3      3.847     11.237
REMARK  8 active torsions:
REMARK  status: ('A' for Active; 'I' for Inactive)
REMARK    1  A    between atoms: C_4  and  C_5 
REMARK    2  A    between atoms: C_5  and  C_6 
REMARK    3  A    between atoms: C_6  and  N_7 
REMARK    4  A    between atoms: C_8  and  S_9 
REMARK    5  A    between atoms: S_9  and  C_10 
REMARK    6  A    between atoms: C_10  and  C_11 
REMARK    7  A    between atoms: C_24  and  C_25 
REMARK    8  A    between atoms: C_26  and  O_27 
ROOT
HETATM    1  N   UNL     1      27.543  42.381  51.237  1.00  0.00    -0.307 N 
HETATM    2  C   UNL     1      27.055  43.582  50.787  1.00  0.00     0.192 C 
HETATM    3  N   UNL     1      26.923  43.550  49.483  1.00  0.00    -0.122 NA
HETATM    4  N   UNL     1      27.245  42.296  49.061  1.00  0.00    -0.128 NA
HETATM    5  C   UNL     1      27.535  41.554  50.119  1.00  0.00     0.167 C 
ENDROOT
BRANCH   2   6
HETATM    6  S   UNL     1      26.640  44.940  51.773  1.00  0.00    -0.083 SA
BRANCH   6   7
HETATM    7  C   UNL     1      25.013  45.355  51.069  1.00  0.00     0.161 C 
BRANCH   7   8
HETATM    8  C   UNL     1      24.987  46.665  50.303  1.00  0.00     0.117 A 
HETATM    9  N   UNL     1      23.847  47.130  49.901  1.00  0.00    -0.234 NA
HETATM   10  C   UNL     1      23.833  48.332  49.172  1.00  0.00     0.074 A 
HETATM   11  C   UNL     1      24.999  49.039  48.867  1.00  0.00     0.061 A 
HETATM   12  C   UNL     1      22.611  48.835  48.725  1.00  0.00     0.032 A 
HETATM   13  C   UNL     1      26.271  48.479  49.350  1.00  0.00     0.259 A 
HETATM   14  C   UNL     1      24.959  50.228  48.133  1.00  0.00     0.019 A 
HETATM   15  O   UNL     1      27.348  49.023  49.139  1.00  0.00    -0.267 OA
HETATM   16  N   UNL     1      26.170  47.303  50.047  1.00  0.00    -0.310 N 
HETATM   17  H   UNL     1      27.038  46.908  50.385  1.00  0.00     0.170 HD
HETATM   18  C   UNL     1      23.730  50.718  47.693  1.00  0.00     0.001 A 
HETATM   19  C   UNL     1      22.557  50.023  47.988  1.00  0.00     0.002 A 
ENDBRANCH   7   8
ENDBRANCH   6   7
ENDBRANCH   2   6
BRANCH   1  20
HETATM   20  C   UNL     1      27.965  42.006  52.574  1.00  0.00     0.137 C 
BRANCH  20  21
HETATM   21  C   UNL     1      29.419  42.315  52.963  1.00  0.00     0.059 C 
BRANCH  21  22
HETATM   22  C   UNL     1      29.618  43.309  54.092  1.00  0.00    -0.057 A 
HETATM   23  C   UNL     1      30.714  43.114  54.951  1.00  0.00     0.007 A 
HETATM   24  C   UNL     1      30.966  43.993  56.006  1.00  0.00     0.001 A 
HETATM   25  C   UNL     1      30.127  45.082  56.222  1.00  0.00     0.000 A 
HETATM   26  C   UNL     1      29.041  45.294  55.379  1.00  0.00     0.001 A 
HETATM   27  C   UNL     1      28.789  44.418  54.317  1.00  0.00     0.007 A 
ENDBRANCH  21  22
ENDBRANCH  20  21
ENDBRANCH   1  20
BRANCH   5  28
HETATM   28  C   UNL     1      27.837  40.121  50.028  1.00  0.00     0.045 A 
HETATM   29  C   UNL     1      26.859  39.222  49.564  1.00  0.00     0.079 A 
HETATM   30  C   UNL     1      27.118  37.856  49.467  1.00  0.00     0.037 A 
HETATM   31  C   UNL     1      28.356  37.355  49.860  1.00  0.00     0.003 A 
HETATM   32  C   UNL     1      29.325  38.220  50.364  1.00  0.00     0.001 A 
HETATM   33  C   UNL     1      29.062  39.591  50.459  1.00  0.00     0.018 A 
BRANCH  29  34
HETATM   34  O   UNL     1      25.600  39.625  49.198  1.00  0.00    -0.360 OA
HETATM   35  H   UNL     1      25.603  40.602  49.127  1.00  0.00     0.217 HD
ENDBRANCH  29  34
ENDBRANCH   5  28
TORSDOF 8
ENDMDL
MODEL 3
REMARK VINA RESULT:      -9.2      3.111      4.408
REMARK  8 active torsions:
REMARK  status: ('A' for Active; 'I' for Inactive)
REMARK    1  A    between atoms: C_4  and  C_5 
REMARK    2  A    between atoms: C_5  and  C_6 
REMARK    3  A    between atoms: C_6  and  N_7 
REMARK    4  A    between atoms: C_8  and  S_9 
REMARK    5  A    between atoms: S_9  and  C_10 
REMARK    6  A    between atoms: C_10  and  C_11 
REMARK    7  A    between atoms: C_24  and  C_25 
REMARK    8  A    between atoms: C_26  and  O_27 
ROOT
HETATM    1  N   UNL     1      24.631  45.958  50.195  1.00  0.00    -0.307 N 
HETATM    2  C   UNL     1      25.110  45.542  51.412  1.00  0.00     0.192 C 
HETATM    3  N   UNL     1      25.366  46.580  52.171  1.00  0.00    -0.122 NA
HETATM    4  N   UNL     1      24.980  47.697  51.494  1.00  0.00    -0.128 NA
HETATM    5  C   UNL     1      24.453  47.330  50.336  1.00  0.00     0.167 C 
ENDROOT
BRANCH   2   6
HETATM    6  S   UNL     1      25.327  43.900  51.908  1.00  0.00    -0.083 SA
BRANCH   6   7
HETATM    7  C   UNL     1      27.138  43.768  51.779  1.00  0.00     0.161 C 
BRANCH   7   8
HETATM    8  C   UNL     1      27.879  44.188  53.035  1.00  0.00     0.117 A 
HETATM    9  N   UNL     1      28.858  43.453  53.457  1.00  0.00    -0.234 NA
HETATM   10  C   UNL     1      29.525  43.835  54.634  1.00  0.00     0.074 A 
HETATM   11  C   UNL     1      29.170  44.974  55.362  1.00  0.00     0.061 A 
HETATM   12  C   UNL     1      30.574  43.044  55.102  1.00  0.00     0.032 A 
HETATM   13  C   UNL     1      28.058  45.784  54.843  1.00  0.00     0.259 A 
HETATM   14  C   UNL     1      29.843  45.328  56.534  1.00  0.00     0.019 A 
HETATM   15  O   UNL     1      27.671  46.803  55.404  1.00  0.00    -0.267 OA
HETATM   16  N   UNL     1      27.477  45.320  53.691  1.00  0.00    -0.310 N 
HETATM   17  H   UNL     1      26.710  45.868  53.324  1.00  0.00     0.170 HD
HETATM   18  C   UNL     1      30.890  44.527  56.990  1.00  0.00     0.001 A 
HETATM   19  C   UNL     1      31.255  43.386  56.275  1.00  0.00     0.002 A 
ENDBRANCH   7   8
ENDBRANCH   6   7
ENDBRANCH   2   6
BRANCH   1  20
HETATM   20  C   UNL     1      24.342  45.176  49.007  1.00  0.00     0.137 C 
BRANCH  20  21
HETATM   21  C   UNL     1      22.999  44.431  48.970  1.00  0.00     0.059 C 
BRANCH  21  22
HETATM   22  C   UNL     1      21.882  45.093  48.184  1.00  0.00    -0.057 A 
HETATM   23  C   UNL     1      22.180  45.569  46.896  1.00  0.00     0.007 A 
HETATM   24  C   UNL     1      21.201  46.181  46.110  1.00  0.00     0.001 A 
HETATM   25  C   UNL     1      19.907  46.328  46.600  1.00  0.00     0.000 A 
HETATM   26  C   UNL     1      19.592  45.857  47.871  1.00  0.00     0.001 A 
HETATM   27  C   UNL     1      20.570  45.239  48.657  1.00  0.00     0.007 A 
ENDBRANCH  21  22
ENDBRANCH  20  21
ENDBRANCH   1  20
BRANCH   5  28
HETATM   28  C   UNL     1      23.850  48.283  49.397  1.00  0.00     0.045 A 
HETATM   29  C   UNL     1      24.659  49.218  48.724  1.00  0.00     0.079 A 
HETATM   30  C   UNL     1      24.115  50.134  47.826  1.00  0.00     0.037 A 
HETATM   31  C   UNL     1      22.740  50.154  47.603  1.00  0.00     0.003 A 
HETATM   32  C   UNL     1      21.915  49.267  48.291  1.00  0.00     0.001 A 
HETATM   33  C   UNL     1      22.464  48.348  49.191  1.00  0.00     0.018 A 
BRANCH  29  34
HETATM   34  O   UNL     1      26.015  49.296  48.918  1.00  0.00    -0.360 OA
HETATM   35  H   UNL     1      26.175  49.460  49.871  1.00  0.00     0.217 HD
ENDBRANCH  29  34
ENDBRANCH   5  28
TORSDOF 8
ENDMDL
MODEL 4
REMARK VINA RESULT:      -9.2      1.011      2.771
REMARK  8 active torsions:
REMARK  status: ('A' for Active; 'I' for Inactive)
REMARK    1  A    between atoms: C_4  and  C_5 
REMARK    2  A    between atoms: C_5  and  C_6 
REMARK    3  A    between atoms: C_6  and  N_7 
REMARK    4  A    between atoms: C_8  and  S_9 
REMARK    5  A    between atoms: S_9  and  C_10 
REMARK    6  A    between atoms: C_10  and  C_11 
REMARK    7  A    between atoms: C_24  and  C_25 
REMARK    8  A    between atoms: C_26  and  O_27 
ROOT
HETATM    1  N   UNL     1      21.821  48.362  48.697  1.00  0.00    -0.307 N 
HETATM    2  C   UNL     1      22.713  47.358  48.977  1.00  0.00     0.192 C 
HETATM    3  N   UNL     1      22.114  46.194  48.897  1.00  0.00    -0.122 NA
HETATM    4  N   UNL     1      20.835  46.410  48.481  1.00  0.00    -0.128 NA
HETATM    5  C   UNL     1      20.671  47.706  48.271  1.00  0.00     0.167 C 
ENDROOT
BRANCH   2   6
HETATM    6  S   UNL     1      24.387  47.565  49.352  1.00  0.00    -0.083 SA
BRANCH   6   7
HETATM    7  C   UNL     1      24.756  45.929  50.061  1.00  0.00     0.161 C 
BRANCH   7   8
HETATM    8  C   UNL     1      25.518  45.982  51.373  1.00  0.00     0.117 A 
HETATM    9  N   UNL     1      26.387  45.056  51.627  1.00  0.00    -0.234 NA
HETATM   10  C   UNL     1      27.072  45.098  52.853  1.00  0.00     0.074 A 
HETATM   11  C   UNL     1      26.850  46.098  53.804  1.00  0.00     0.061 A 
HETATM   12  C   UNL     1      28.002  44.100  53.141  1.00  0.00     0.032 A 
HETATM   13  C   UNL     1      25.860  47.134  53.471  1.00  0.00     0.259 A 
HETATM   14  C   UNL     1      27.538  46.113  55.020  1.00  0.00     0.019 A 
HETATM   15  O   UNL     1      25.594  48.056  54.234  1.00  0.00    -0.267 OA
HETATM   16  N   UNL     1      25.249  46.996  52.251  1.00  0.00    -0.310 N 
HETATM   17  H   UNL     1      24.566  47.703  52.011  1.00  0.00     0.170 HD
HETATM   18  C   UNL     1      28.465  45.107  55.294  1.00  0.00     0.001 A 
HETATM   19  C   UNL     1      28.697  44.101  54.355  1.00  0.00     0.002 A 
ENDBRANCH   7   8
ENDBRANCH   6   7
ENDBRANCH   2   6
BRANCH   1  20
HETATM   20  C   UNL     1      22.000  49.800  48.790  1.00  0.00     0.137 C 
BRANCH  20  21
HETATM   21  C   UNL     1      21.265  50.525  49.927  1.00  0.00     0.059 C 
BRANCH  21  22
HETATM   22  C   UNL     1      19.941  51.174  49.569  1.00  0.00    -0.057 A 
HETATM   23  C   UNL     1      19.906  52.015  48.443  1.00  0.00     0.007 A 
HETATM   24  C   UNL     1      18.722  52.639  48.047  1.00  0.00     0.001 A 
HETATM   25  C   UNL     1      17.551  52.434  48.770  1.00  0.00     0.000 A 
HETATM   26  C   UNL     1      17.565  51.601  49.884  1.00  0.00     0.001 A 
HETATM   27  C   UNL     1      18.749  50.970  50.279  1.00  0.00     0.007 A 
ENDBRANCH  21  22
ENDBRANCH  20  21
ENDBRANCH   1  20
BRANCH   5  28
HETATM   28  C   UNL     1      19.432  48.275  47.727  1.00  0.00     0.045 A 
HETATM   29  C   UNL     1      18.208  48.064  48.388  1.00  0.00     0.079 A 
HETATM   30  C   UNL     1      17.017  48.592  47.895  1.00  0.00     0.037 A 
HETATM   31  C   UNL     1      17.020  49.322  46.710  1.00  0.00     0.003 A 
HETATM   32  C   UNL     1      18.212  49.507  46.014  1.00  0.00     0.001 A 
HETATM   33  C   UNL     1      19.407  48.976  46.512  1.00  0.00     0.018 A 
BRANCH  29  34
HETATM   34  O   UNL     1      18.109  47.321  49.537  1.00  0.00    -0.360 OA
HETATM   35  H   UNL     1      18.880  47.534  50.103  1.00  0.00     0.217 HD
ENDBRANCH  29  34
ENDBRANCH   5  28
TORSDOF 8
ENDMDL
MODEL 5
REMARK VINA RESULT:      -9.1      4.215     10.207
REMARK  8 active torsions:
REMARK  status: ('A' for Active; 'I' for Inactive)
REMARK    1  A    between atoms: C_4  and  C_5 
REMARK    2  A    between atoms: C_5  and  C_6 
REMARK    3  A    between atoms: C_6  and  N_7 
REMARK    4  A    between atoms: C_8  and  S_9 
REMARK    5  A    between atoms: S_9  and  C_10 
REMARK    6  A    between atoms: C_10  and  C_11 
REMARK    7  A    between atoms: C_24  and  C_25 
REMARK    8  A    between atoms: C_26  and  O_27 
ROOT
HETATM    1  N   UNL     1      27.157  43.454  52.545  1.00  0.00    -0.307 N 
HETATM    2  C   UNL     1      25.849  43.731  52.235  1.00  0.00     0.192 C 
HETATM    3  N   UNL     1      25.236  44.223  53.284  1.00  0.00    -0.122 NA
HETATM    4  N   UNL     1      26.155  44.356  54.281  1.00  0.00    -0.128 NA
HETATM    5  C   UNL     1      27.337  43.979  53.820  1.00  0.00     0.167 C 
ENDROOT
BRANCH   2   6
HETATM    6  S   UNL     1      25.103  43.502  50.692  1.00  0.00    -0.083 SA
BRANCH   6   7
HETATM    7  C   UNL     1      23.835  44.807  50.760  1.00  0.00     0.161 C 
BRANCH   7   8
HETATM    8  C   UNL     1      24.265  46.119  50.131  1.00  0.00     0.117 A 
HETATM    9  N   UNL     1      25.523  46.430  50.134  1.00  0.00    -0.234 NA
HETATM   10  C   UNL     1      25.912  47.657  49.571  1.00  0.00     0.074 A 
HETATM   11  C   UNL     1      24.995  48.550  49.010  1.00  0.00     0.061 A 
HETATM   12  C   UNL     1      27.262  48.006  49.579  1.00  0.00     0.032 A 
HETATM   13  C   UNL     1      23.578  48.154  49.020  1.00  0.00     0.259 A 
HETATM   14  C   UNL     1      25.406  49.770  48.463  1.00  0.00     0.019 A 
HETATM   15  O   UNL     1      22.696  48.864  48.551  1.00  0.00    -0.267 OA
HETATM   16  N   UNL     1      23.310  46.939  49.596  1.00  0.00    -0.310 N 
HETATM   17  H   UNL     1      22.339  46.656  49.609  1.00  0.00     0.170 HD
HETATM   18  C   UNL     1      26.760  50.104  48.480  1.00  0.00     0.001 A 
HETATM   19  C   UNL     1      27.687  49.223  49.037  1.00  0.00     0.002 A 
ENDBRANCH   7   8
ENDBRANCH   6   7
ENDBRANCH   2   6
BRANCH   1  20
HETATM   20  C   UNL     1      28.167  42.785  51.745  1.00  0.00     0.137 C 
BRANCH  20  21
HETATM   21  C   UNL     1      28.115  41.251  51.692  1.00  0.00     0.059 C 
BRANCH  21  22
HETATM   22  C   UNL     1      28.173  40.622  50.312  1.00  0.00    -0.057 A 
HETATM   23  C   UNL     1      28.713  39.329  50.203  1.00  0.00     0.007 A 
HETATM   24  C   UNL     1      28.790  38.682  48.968  1.00  0.00     0.001 A 
HETATM   25  C   UNL     1      28.329  39.318  47.819  1.00  0.00     0.000 A 
HETATM   26  C   UNL     1      27.786  40.596  47.908  1.00  0.00     0.001 A 
HETATM   27  C   UNL     1      27.703  41.243  49.146  1.00  0.00     0.007 A 
ENDBRANCH  21  22
ENDBRANCH  20  21
ENDBRANCH   1  20
BRANCH   5  28
HETATM   28  C   UNL     1      28.570  44.083  54.609  1.00  0.00     0.045 A 
HETATM   29  C   UNL     1      28.905  45.296  55.239  1.00  0.00     0.079 A 
HETATM   30  C   UNL     1      30.069  45.423  55.995  1.00  0.00     0.037 A 
HETATM   31  C   UNL     1      30.939  44.343  56.115  1.00  0.00     0.003 A 
HETATM   32  C   UNL     1      30.651  43.145  55.465  1.00  0.00     0.001 A 
HETATM   33  C   UNL     1      29.481  43.020  54.707  1.00  0.00     0.018 A 
BRANCH  29  34
HETATM   34  O   UNL     1      28.127  46.421  55.136  1.00  0.00    -0.360 OA
HETATM   35  H   UNL     1      27.368  46.320  55.749  1.00  0.00     0.217 HD
ENDBRANCH  29  34
ENDBRANCH   5  28
TORSDOF 8
ENDMDL
MODEL 6
REMARK VINA RESULT:      -9.1      3.187     10.849
REMARK  8 active torsions:
REMARK  status: ('A' for Active; 'I' for Inactive)
REMARK    1  A    between atoms: C_4  and  C_5 
REMARK    2  A    between atoms: C_5  and  C_6 
REMARK    3  A    between atoms: C_6  and  N_7 
REMARK    4  A    between atoms: C_8  and  S_9 
REMARK    5  A    between atoms: S_9  and  C_10 
REMARK    6  A    between atoms: C_10  and  C_11 
REMARK    7  A    between atoms: C_24  and  C_25 
REMARK    8  A    between atoms: C_26  and  O_27 
ROOT
HETATM    1  N   UNL     1      26.064  44.068  49.725  1.00  0.00    -0.307 N 
HETATM    2  C   UNL     1      24.892  44.652  49.315  1.00  0.00     0.192 C 
HETATM    3  N   UNL     1      24.260  43.854  48.489  1.00  0.00    -0.122 NA
HETATM    4  N   UNL     1      24.968  42.693  48.407  1.00  0.00    -0.128 NA
HETATM    5  C   UNL     1      26.012  42.774  49.216  1.00  0.00     0.167 C 
ENDROOT
BRANCH   2   6
HETATM    6  S   UNL     1      24.298  46.195  49.819  1.00  0.00    -0.083 SA
BRANCH   6   7
HETATM    7  C   UNL     1      22.905  46.390  48.663  1.00  0.00     0.161 C 
BRANCH   7   8
HETATM    8  C   UNL     1      22.256  47.761  48.704  1.00  0.00     0.117 A 
HETATM    9  N   UNL     1      21.172  47.958  48.023  1.00  0.00    -0.234 NA
HETATM   10  C   UNL     1      20.589  49.237  48.047  1.00  0.00     0.074 A 
HETATM   11  C   UNL     1      21.134  50.297  48.775  1.00  0.00     0.061 A 
HETATM   12  C   UNL     1      19.428  49.462  47.307  1.00  0.00     0.032 A 
HETATM   13  C   UNL     1      22.360  50.027  49.541  1.00  0.00     0.259 A 
HETATM   14  C   UNL     1      20.540  51.563  48.776  1.00  0.00     0.019 A 
HETATM   15  O   UNL     1      22.916  50.887  50.215  1.00  0.00    -0.267 OA
HETATM   16  N   UNL     1      22.845  48.748  49.445  1.00  0.00    -0.310 N 
HETATM   17  H   UNL     1      23.689  48.550  49.968  1.00  0.00     0.170 HD
HETATM   18  C   UNL     1      19.379  51.773  48.031  1.00  0.00     0.001 A 
HETATM   19  C   UNL     1      18.824  50.724  47.298  1.00  0.00     0.002 A 
ENDBRANCH   7   8
ENDBRANCH   6   7
ENDBRANCH   2   6
BRANCH   1  20
HETATM   20  C   UNL     1      27.137  44.628  50.527  1.00  0.00     0.137 C 
BRANCH  20  21
HETATM   21  C   UNL     1      26.973  44.570  52.053  1.00  0.00     0.059 C 
BRANCH  21  22
HETATM   22  C   UNL     1      28.173  44.077  52.842  1.00  0.00    -0.057 A 
HETATM   23  C   UNL     1      28.334  44.550  54.155  1.00  0.00     0.007 A 
HETATM   24  C   UNL     1      29.408  44.133  54.944  1.00  0.00     0.001 A 
HETATM   25  C   UNL     1      30.341  43.236  54.433  1.00  0.00     0.000 A 
HETATM   26  C   UNL     1      30.195  42.752  53.137  1.00  0.00     0.001 A 
HETATM   27  C   UNL     1      29.116  43.164  52.347  1.00  0.00     0.007 A 
ENDBRANCH  21  22
ENDBRANCH  20  21
ENDBRANCH   1  20
BRANCH   5  28
HETATM   28  C   UNL     1      26.937  41.657  49.439  1.00  0.00     0.045 A 
HETATM   29  C   UNL     1      27.718  41.165  48.377  1.00  0.00     0.079 A 
HETATM   30  C   UNL     1      28.605  40.106  48.560  1.00  0.00     0.037 A 
HETATM   31  C   UNL     1      28.709  39.496  49.807  1.00  0.00     0.003 A 
HETATM   32  C   UNL     1      27.915  39.938  50.863  1.00  0.00     0.001 A 
HETATM   33  C   UNL     1      27.026  41.002  50.676  1.00  0.00     0.018 A 
BRANCH  29  34
HETATM   34  O   UNL     1      27.645  41.678  47.107  1.00  0.00    -0.360 OA
HETATM   35  H   UNL     1      28.560  41.837  46.792  1.00  0.00     0.217 HD
ENDBRANCH  29  34
ENDBRANCH   5  28
TORSDOF 8
ENDMDL
MODEL 7
REMARK VINA RESULT:      -9.0      2.876      4.198
REMARK  8 active torsions:
REMARK  status: ('A' for Active; 'I' for Inactive)
REMARK    1  A    between atoms: C_4  and  C_5 
REMARK    2  A    between atoms: C_5  and  C_6 
REMARK    3  A    between atoms: C_6  and  N_7 
REMARK    4  A    between atoms: C_8  and  S_9 
REMARK    5  A    between atoms: S_9  and  C_10 
REMARK    6  A    between atoms: C_10  and  C_11 
REMARK    7  A    between atoms: C_24  and  C_25 
REMARK    8  A    between atoms: C_26  and  O_27 
ROOT
HETATM    1  N   UNL     1      24.135  46.127  49.752  1.00  0.00    -0.307 N 
HETATM    2  C   UNL     1      24.833  45.667  50.841  1.00  0.00     0.192 C 
HETATM    3  N   UNL     1      25.285  46.679  51.541  1.00  0.00    -0.122 NA
HETATM    4  N   UNL     1      24.820  47.825  50.968  1.00  0.00    -0.128 NA
HETATM    5  C   UNL     1      24.051  47.502  49.940  1.00  0.00     0.167 C 
ENDROOT
BRANCH   2   6
HETATM    6  S   UNL     1      25.071  44.009  51.265  1.00  0.00    -0.083 SA
BRANCH   6   7
HETATM    7  C   UNL     1      25.181  44.160  53.076  1.00  0.00     0.161 C 
BRANCH   7   8
HETATM    8  C   UNL     1      26.563  43.879  53.636  1.00  0.00     0.117 A 
HETATM    9  N   UNL     1      27.144  44.791  54.350  1.00  0.00    -0.234 NA
HETATM   10  C   UNL     1      28.433  44.533  54.846  1.00  0.00     0.074 A 
HETATM   11  C   UNL     1      29.108  43.334  54.599  1.00  0.00     0.061 A 
HETATM   12  C   UNL     1      29.071  45.513  55.606  1.00  0.00     0.032 A 
HETATM   13  C   UNL     1      28.408  42.323  53.792  1.00  0.00     0.259 A 
HETATM   14  C   UNL     1      30.393  43.106  55.097  1.00  0.00     0.019 A 
HETATM   15  O   UNL     1      28.910  41.238  53.521  1.00  0.00    -0.267 OA
HETATM   16  N   UNL     1      27.157  42.679  53.357  1.00  0.00    -0.310 N 
HETATM   17  H   UNL     1      26.666  41.991  52.800  1.00  0.00     0.170 HD
HETATM   18  C   UNL     1      31.019  44.096  55.855  1.00  0.00     0.001 A 
HETATM   19  C   UNL     1      30.359  45.299  56.109  1.00  0.00     0.002 A 
ENDBRANCH   7   8
ENDBRANCH   6   7
ENDBRANCH   2   6
BRANCH   1  20
HETATM   20  C   UNL     1      23.573  45.380  48.641  1.00  0.00     0.137 C 
BRANCH  20  21
HETATM   21  C   UNL     1      22.145  44.839  48.812  1.00  0.00     0.059 C 
BRANCH  21  22
HETATM   22  C   UNL     1      21.070  45.496  47.966  1.00  0.00    -0.057 A 
HETATM   23  C   UNL     1      19.767  45.552  48.490  1.00  0.00     0.007 A 
HETATM   24  C   UNL     1      18.728  46.150  47.774  1.00  0.00     0.001 A 
HETATM   25  C   UNL     1      18.973  46.701  46.520  1.00  0.00     0.000 A 
HETATM   26  C   UNL     1      20.258  46.660  45.988  1.00  0.00     0.001 A 
HETATM   27  C   UNL     1      21.302  46.067  46.706  1.00  0.00     0.007 A 
ENDBRANCH  21  22
ENDBRANCH  20  21
ENDBRANCH   1  20
BRANCH   5  28
HETATM   28  C   UNL     1      23.313  48.498  49.154  1.00  0.00     0.045 A 
HETATM   29  C   UNL     1      24.010  49.467  48.409  1.00  0.00     0.079 A 
HETATM   30  C   UNL     1      23.336  50.424  47.653  1.00  0.00     0.037 A 
HETATM   31  C   UNL     1      21.944  50.449  47.649  1.00  0.00     0.003 A 
HETATM   32  C   UNL     1      21.232  49.528  48.414  1.00  0.00     0.001 A 
HETATM   33  C   UNL     1      21.912  48.568  49.171  1.00  0.00     0.018 A 
BRANCH  29  34
HETATM   34  O   UNL     1      25.380  49.540  48.392  1.00  0.00    -0.360 OA
HETATM   35  H   UNL     1      25.639  50.429  48.713  1.00  0.00     0.217 HD
ENDBRANCH  29  34
ENDBRANCH   5  28
TORSDOF 8
ENDMDL
MODEL 8
REMARK VINA RESULT:      -9.0      1.723      3.381
REMARK  8 active torsions:
REMARK  status: ('A' for Active; 'I' for Inactive)
REMARK    1  A    between atoms: C_4  and  C_5 
REMARK    2  A    between atoms: C_5  and  C_6 
REMARK    3  A    between atoms: C_6  and  N_7 
REMARK    4  A    between atoms: C_8  and  S_9 
REMARK    5  A    between atoms: S_9  and  C_10 
REMARK    6  A    between atoms: C_10  and  C_11 
REMARK    7  A    between atoms: C_24  and  C_25 
REMARK    8  A    between atoms: C_26  and  O_27 
ROOT
HETATM    1  N   UNL     1      22.575  48.273  48.975  1.00  0.00    -0.307 N 
HETATM    2  C   UNL     1      23.543  47.340  49.251  1.00  0.00     0.192 C 
HETATM    3  N   UNL     1      23.025  46.137  49.213  1.00  0.00    -0.122 NA
HETATM    4  N   UNL     1      21.724  46.252  48.829  1.00  0.00    -0.128 NA
HETATM    5  C   UNL     1      21.463  47.529  48.595  1.00  0.00     0.167 C 
ENDROOT
BRANCH   2   6
HETATM    6  S   UNL     1      25.208  47.672  49.574  1.00  0.00    -0.083 SA
BRANCH   6   7
HETATM    7  C   UNL     1      25.305  47.135  51.311  1.00  0.00     0.161 C 
BRANCH   7   8
HETATM    8  C   UNL     1      26.141  45.887  51.526  1.00  0.00     0.117 A 
HETATM    9  N   UNL     1      26.644  45.667  52.699  1.00  0.00    -0.234 NA
HETATM   10  C   UNL     1      27.436  44.521  52.884  1.00  0.00     0.074 A 
HETATM   11  C   UNL     1      27.699  43.615  51.854  1.00  0.00     0.061 A 
HETATM   12  C   UNL     1      27.991  44.282  54.141  1.00  0.00     0.032 A 
HETATM   13  C   UNL     1      27.101  43.899  50.540  1.00  0.00     0.259 A 
HETATM   14  C   UNL     1      28.498  42.487  52.061  1.00  0.00     0.019 A 
HETATM   15  O   UNL     1      27.268  43.166  49.572  1.00  0.00    -0.267 OA
HETATM   16  N   UNL     1      26.350  45.043  50.469  1.00  0.00    -0.310 N 
HETATM   17  H   UNL     1      25.933  45.249  49.570  1.00  0.00     0.170 HD
HETATM   18  C   UNL     1      29.046  42.261  53.323  1.00  0.00     0.001 A 
HETATM   19  C   UNL     1      28.794  43.157  54.363  1.00  0.00     0.002 A 
ENDBRANCH   7   8
ENDBRANCH   6   7
ENDBRANCH   2   6
BRANCH   1  20
HETATM   20  C   UNL     1      22.655  49.722  49.032  1.00  0.00     0.137 C 
BRANCH  20  21
HETATM   21  C   UNL     1      21.829  50.427  50.118  1.00  0.00     0.059 C 
BRANCH  21  22
HETATM   22  C   UNL     1      20.545  51.094  49.661  1.00  0.00    -0.057 A 
HETATM   23  C   UNL     1      20.516  51.646  48.369  1.00  0.00     0.007 A 
HETATM   24  C   UNL     1      19.366  52.267  47.877  1.00  0.00     0.001 A 
HETATM   25  C   UNL     1      18.225  52.349  48.669  1.00  0.00     0.000 A 
HETATM   26  C   UNL     1      18.233  51.803  49.949  1.00  0.00     0.001 A 
HETATM   27  C   UNL     1      19.382  51.175  50.442  1.00  0.00     0.007 A 
ENDBRANCH  21  22
ENDBRANCH  20  21
ENDBRANCH   1  20
BRANCH   5  28
HETATM   28  C   UNL     1      20.174  47.997  48.075  1.00  0.00     0.045 A 
HETATM   29  C   UNL     1      19.031  47.974  48.895  1.00  0.00     0.079 A 
HETATM   30  C   UNL     1      17.793  48.413  48.428  1.00  0.00     0.037 A 
HETATM   31  C   UNL     1      17.666  48.859  47.115  1.00  0.00     0.003 A 
HETATM   32  C   UNL     1      18.774  48.849  46.271  1.00  0.00     0.001 A 
HETATM   33  C   UNL     1      20.015  48.409  46.743  1.00  0.00     0.018 A 
BRANCH  29  34
HETATM   34  O   UNL     1      19.058  47.511  50.186  1.00  0.00    -0.360 OA
HETATM   35  H   UNL     1      18.272  46.940  50.319  1.00  0.00     0.217 HD
ENDBRANCH  29  34
ENDBRANCH   5  28
TORSDOF 8
ENDMDL
MODEL 9
REMARK VINA RESULT:      -9.0      2.424      4.946
REMARK  8 active torsions:
REMARK  status: ('A' for Active; 'I' for Inactive)
REMARK    1  A    between atoms: C_4  and  C_5 
REMARK    2  A    between atoms: C_5  and  C_6 
REMARK    3  A    between atoms: C_6  and  N_7 
REMARK    4  A    between atoms: C_8  and  S_9 
REMARK    5  A    between atoms: S_9  and  C_10 
REMARK    6  A    between atoms: C_10  and  C_11 
REMARK    7  A    between atoms: C_24  and  C_25 
REMARK    8  A    between atoms: C_26  and  O_27 
ROOT
HETATM    1  N   UNL     1      21.333  47.522  48.451  1.00  0.00    -0.307 N 
HETATM    2  C   UNL     1      21.090  46.175  48.351  1.00  0.00     0.192 C 
HETATM    3  N   UNL     1      19.832  45.927  48.626  1.00  0.00    -0.122 NA
HETATM    4  N   UNL     1      19.206  47.120  48.831  1.00  0.00    -0.128 NA
HETATM    5  C   UNL     1      20.081  48.095  48.641  1.00  0.00     0.167 C 
ENDROOT
BRANCH   2   6
HETATM    6  S   UNL     1      22.243  44.967  47.904  1.00  0.00    -0.083 SA
BRANCH   6   7
HETATM    7  C   UNL     1      22.349  44.039  49.467  1.00  0.00     0.161 C 
BRANCH   7   8
HETATM    8  C   UNL     1      23.728  44.055  50.101  1.00  0.00     0.117 A 
HETATM    9  N   UNL     1      23.850  44.479  51.319  1.00  0.00    -0.234 NA
HETATM   10  C   UNL     1      25.132  44.512  51.892  1.00  0.00     0.074 A 
HETATM   11  C   UNL     1      26.276  44.106  51.199  1.00  0.00     0.061 A 
HETATM   12  C   UNL     1      25.275  44.978  53.199  1.00  0.00     0.032 A 
HETATM   13  C   UNL     1      26.091  43.624  49.821  1.00  0.00     0.259 A 
HETATM   14  C   UNL     1      27.542  44.157  51.788  1.00  0.00     0.019 A 
HETATM   15  O   UNL     1      27.028  43.243  49.129  1.00  0.00    -0.267 OA
HETATM   16  N   UNL     1      24.800  43.636  49.361  1.00  0.00    -0.310 N 
HETATM   17  H   UNL     1      24.660  43.307  48.414  1.00  0.00     0.170 HD
HETATM   18  C   UNL     1      27.668  44.626  53.096  1.00  0.00     0.001 A 
HETATM   19  C   UNL     1      26.536  45.036  53.801  1.00  0.00     0.002 A 
ENDBRANCH   7   8
ENDBRANCH   6   7
ENDBRANCH   2   6
BRANCH   1  20
HETATM   20  C   UNL     1      22.595  48.235  48.364  1.00  0.00     0.137 C 
BRANCH  20  21
HETATM   21  C   UNL     1      23.512  48.188  49.595  1.00  0.00     0.059 C 
BRANCH  21  22
HETATM   22  C   UNL     1      24.972  48.533  49.363  1.00  0.00    -0.057 A 
HETATM   23  C   UNL     1      25.943  47.675  49.908  1.00  0.00     0.007 A 
HETATM   24  C   UNL     1      27.305  47.923  49.728  1.00  0.00     0.001 A 
HETATM   25  C   UNL     1      27.721  49.032  48.998  1.00  0.00     0.000 A 
HETATM   26  C   UNL     1      26.774  49.889  48.445  1.00  0.00     0.001 A 
HETATM   27  C   UNL     1      25.408  49.640  48.620  1.00  0.00     0.007 A 
ENDBRANCH  21  22
ENDBRANCH  20  21
ENDBRANCH   1  20
BRANCH   5  28
HETATM   28  C   UNL     1      19.714  49.515  48.692  1.00  0.00     0.045 A 
HETATM   29  C   UNL     1      19.408  50.121  49.924  1.00  0.00     0.079 A 
HETATM   30  C   UNL     1      19.057  51.468  50.003  1.00  0.00     0.037 A 
HETATM   31  C   UNL     1      18.977  52.232  48.842  1.00  0.00     0.003 A 
HETATM   32  C   UNL     1      19.233  51.643  47.606  1.00  0.00     0.001 A 
HETATM   33  C   UNL     1      19.585  50.292  47.531  1.00  0.00     0.018 A 
BRANCH  29  34
HETATM   34  O   UNL     1      19.420  49.431  51.110  1.00  0.00    -0.360 OA
HETATM   35  H   UNL     1      19.133  50.043  51.819  1.00  0.00     0.217 HD
ENDBRANCH  29  34
ENDBRANCH   5  28
TORSDOF 8
ENDMDL
MODEL 10
REMARK VINA RESULT:      -9.0      2.826      9.915
REMARK  8 active torsions:
REMARK  status: ('A' for Active; 'I' for Inactive)
REMARK    1  A    between atoms: C_4  and  C_5 
REMARK    2  A    between atoms: C_5  and  C_6 
REMARK    3  A    between atoms: C_6  and  N_7 
REMARK    4  A    between atoms: C_8  and  S_9 
REMARK    5  A    between atoms: S_9  and  C_10 
REMARK    6  A    between atoms: C_10  and  C_11 
REMARK    7  A    between atoms: C_24  and  C_25 
REMARK    8  A    between atoms: C_26  and  O_27 
ROOT
HETATM    1  N   UNL     1      25.240  43.581  50.996  1.00  0.00    -0.307 N 
HETATM    2  C   UNL     1      24.259  43.073  50.181  1.00  0.00     0.192 C 
HETATM    3  N   UNL     1      24.701  42.004  49.564  1.00  0.00    -0.122 NA
HETATM    4  N   UNL     1      25.956  41.743  50.027  1.00  0.00    -0.128 NA
HETATM    5  C   UNL     1      26.258  42.635  50.956  1.00  0.00     0.167 C 
ENDROOT
BRANCH   2   6
HETATM    6  S   UNL     1      22.662  43.709  49.999  1.00  0.00    -0.083 SA
BRANCH   6   7
HETATM    7  C   UNL     1      22.864  44.627  48.440  1.00  0.00     0.161 C 
BRANCH   7   8
HETATM    8  C   UNL     1      22.913  46.134  48.613  1.00  0.00     0.117 A 
HETATM    9  N   UNL     1      21.948  46.849  48.127  1.00  0.00    -0.234 NA
HETATM   10  C   UNL     1      22.011  48.245  48.270  1.00  0.00     0.074 A 
HETATM   11  C   UNL     1      23.071  48.887  48.916  1.00  0.00     0.061 A 
HETATM   12  C   UNL     1      20.983  49.024  47.740  1.00  0.00     0.032 A 
HETATM   13  C   UNL     1      24.141  48.037  49.460  1.00  0.00     0.259 A 
HETATM   14  C   UNL     1      23.115  50.279  49.038  1.00  0.00     0.019 A 
HETATM   15  O   UNL     1      25.112  48.500  50.046  1.00  0.00    -0.267 OA
HETATM   16  N   UNL     1      23.981  46.690  49.262  1.00  0.00    -0.310 N 
HETATM   17  H   UNL     1      24.711  46.094  49.632  1.00  0.00     0.170 HD
HETATM   18  C   UNL     1      22.079  51.045  48.502  1.00  0.00     0.001 A 
HETATM   19  C   UNL     1      21.014  50.418  47.854  1.00  0.00     0.002 A 
ENDBRANCH   7   8
ENDBRANCH   6   7
ENDBRANCH   2   6
BRANCH   1  20
HETATM   20  C   UNL     1      25.247  44.814  51.762  1.00  0.00     0.137 C 
BRANCH  20  21
HETATM   21  C   UNL     1      25.231  44.687  53.293  1.00  0.00     0.059 C 
BRANCH  21  22
HETATM   22  C   UNL     1      26.313  45.441  54.043  1.00  0.00    -0.057 A 
HETATM   23  C   UNL     1      27.173  44.701  54.873  1.00  0.00     0.007 A 
HETATM   24  C   UNL     1      28.198  45.324  55.587  1.00  0.00     0.001 A 
HETATM   25  C   UNL     1      28.381  46.700  55.485  1.00  0.00     0.000 A 
HETATM   26  C   UNL     1      27.543  47.449  54.664  1.00  0.00     0.001 A 
HETATM   27  C   UNL     1      26.519  46.825  53.943  1.00  0.00     0.007 A 
ENDBRANCH  21  22
ENDBRANCH  20  21
ENDBRANCH   1  20
BRANCH   5  28
HETATM   28  C   UNL     1      27.505  42.589  51.729  1.00  0.00     0.045 A 
HETATM   29  C   UNL     1      27.784  41.483  52.553  1.00  0.00     0.079 A 
HETATM   30  C   UNL     1      28.960  41.412  53.298  1.00  0.00     0.037 A 
HETATM   31  C   UNL     1      29.872  42.462  53.255  1.00  0.00     0.003 A 
HETATM   32  C   UNL     1      29.597  43.587  52.481  1.00  0.00     0.001 A 
HETATM   33  C   UNL     1      28.416  43.656  51.734  1.00  0.00     0.018 A 
BRANCH  29  34
HETATM   34  O   UNL     1      26.920  40.426  52.687  1.00  0.00    -0.360 OA
HETATM   35  H   UNL     1      26.404  40.349  51.857  1.00  0.00     0.217 HD
ENDBRANCH  29  34
ENDBRANCH   5  28
TORSDOF 8
ENDMDL
