MODEL 1
REMARK VINA RESULT:     -10.2      0.000      0.000
REMARK  2 active torsions:
REMARK  status: ('A' for Active; 'I' for Inactive)
REMARK    1  A    between atoms: O_2  and  C_3 
REMARK    2  A    between atoms: C_7  and  N_8 
REMARK       I    between atoms: N_8  and  C_9 
REMARK       I    between atoms: C_9  and  N_10 
ROOT
HETATM    1  N   UNL     1      26.023  46.598  51.557  1.00  0.00    -0.309 N 
HETATM    2  C   UNL     1      26.012  46.881  52.904  1.00  0.00     0.323 C 
HETATM    3  N   UNL     1      26.609  45.924  53.716  1.00  0.00    -0.328 N 
HETATM    4  C   UNL     1      26.761  46.268  55.137  1.00  0.00     0.185 C 
HETATM    5  C   UNL     1      28.022  45.647  55.632  1.00  0.00     0.035 A 
HETATM    6  C   UNL     1      28.789  44.696  54.988  1.00  0.00    -0.020 A 
HETATM    7  C   UNL     1      28.405  44.180  53.645  1.00  0.00     0.061 C 
HETATM    8  C   UNL     1      26.925  44.519  53.365  1.00  0.00     0.132 C 
HETATM    9  N   UNL     1      28.622  45.944  56.824  1.00  0.00    -0.357 N 
HETATM   10  H   UNL     1      28.288  46.615  57.502  1.00  0.00     0.166 HD
HETATM   11  C   UNL     1      29.779  45.205  56.959  1.00  0.00     0.043 A 
HETATM   12  C   UNL     1      29.908  44.412  55.814  1.00  0.00    -0.001 A 
HETATM   13  C   UNL     1      30.716  45.188  57.999  1.00  0.00     0.030 A 
HETATM   14  C   UNL     1      31.819  44.339  57.864  1.00  0.00     0.002 A 
HETATM   15  C   UNL     1      31.976  43.541  56.734  1.00  0.00     0.001 A 
HETATM   16  C   UNL     1      31.029  43.567  55.703  1.00  0.00     0.014 A 
HETATM   17  O   UNL     1      25.541  47.908  53.388  1.00  0.00    -0.247 OA
HETATM   18  H   UNL     1      26.576  45.810  51.274  1.00  0.00     0.170 HD
ENDROOT
BRANCH   1  19
HETATM   19  C   UNL     1      25.516  47.387  50.501  1.00  0.00     0.038 A 
HETATM   20  C   UNL     1      24.210  47.309  50.012  1.00  0.00     0.056 A 
HETATM   21  C   UNL     1      23.785  48.158  48.984  1.00  0.00     0.069 A 
HETATM   22  C   UNL     1      24.660  49.102  48.432  1.00  0.00     0.090 A 
HETATM   23 CL   UNL     1      22.147  48.035  48.443  1.00  0.00    -0.081 Cl
HETATM   24  C   UNL     1      25.978  49.154  48.888  1.00  0.00     0.041 A 
HETATM   25  C   UNL     1      26.397  48.308  49.920  1.00  0.00     0.032 A 
BRANCH  22  26
HETATM   26  O   UNL     1      24.202  49.900  47.416  1.00  0.00    -0.354 OA
HETATM   27  C   UNL     1      23.419  51.009  47.851  1.00  0.00     0.210 C 
ENDBRANCH  22  26
ENDBRANCH   1  19
TORSDOF 2
ENDMDL
MODEL 2
REMARK VINA RESULT:      -8.7      3.877     10.297
REMARK  2 active torsions:
REMARK  status: ('A' for Active; 'I' for Inactive)
REMARK    1  A    between atoms: O_2  and  C_3 
REMARK    2  A    between atoms: C_7  and  N_8 
REMARK       I    between atoms: N_8  and  C_9 
REMARK       I    between atoms: C_9  and  N_10 
ROOT
HETATM    1  N   UNL     1      24.262  46.184  50.218  1.00  0.00    -0.309 N 
HETATM    2  C   UNL     1      24.367  47.495  49.813  1.00  0.00     0.323 C 
HETATM    3  N   UNL     1      23.315  47.961  49.034  1.00  0.00    -0.328 N 
HETATM    4  C   UNL     1      23.313  49.398  48.721  1.00  0.00     0.185 C 
HETATM    5  C   UNL     1      21.896  49.858  48.664  1.00  0.00     0.035 A 
HETATM    6  C   UNL     1      20.766  49.065  48.632  1.00  0.00    -0.020 A 
HETATM    7  C   UNL     1      20.867  47.580  48.667  1.00  0.00     0.061 C 
HETATM    8  C   UNL     1      22.307  47.152  48.309  1.00  0.00     0.132 C 
HETATM    9  N   UNL     1      21.501  51.166  48.644  1.00  0.00    -0.357 N 
HETATM   10  H   UNL     1      22.116  51.969  48.667  1.00  0.00     0.166 HD
HETATM   11  C   UNL     1      20.125  51.236  48.609  1.00  0.00     0.043 A 
HETATM   12  C   UNL     1      19.636  49.926  48.604  1.00  0.00    -0.001 A 
HETATM   13  C   UNL     1      19.283  52.355  48.592  1.00  0.00     0.030 A 
HETATM   14  C   UNL     1      17.903  52.129  48.572  1.00  0.00     0.002 A 
HETATM   15  C   UNL     1      17.388  50.834  48.570  1.00  0.00     0.001 A 
HETATM   16  C   UNL     1      18.243  49.725  48.586  1.00  0.00     0.014 A 
HETATM   17  O   UNL     1      25.297  48.239  50.121  1.00  0.00    -0.247 OA
HETATM   18  H   UNL     1      23.383  45.733  50.038  1.00  0.00     0.170 HD
ENDROOT
BRANCH   1  19
HETATM   19  C   UNL     1      25.158  45.452  51.028  1.00  0.00     0.038 A 
HETATM   20  C   UNL     1      24.923  45.119  52.364  1.00  0.00     0.056 A 
HETATM   21  C   UNL     1      25.855  44.356  53.079  1.00  0.00     0.069 A 
HETATM   22  C   UNL     1      27.033  43.911  52.466  1.00  0.00     0.090 A 
HETATM   23 CL   UNL     1      25.494  43.950  54.721  1.00  0.00    -0.081 Cl
HETATM   24  C   UNL     1      27.290  44.278  51.144  1.00  0.00     0.041 A 
HETATM   25  C   UNL     1      26.354  45.034  50.431  1.00  0.00     0.032 A 
BRANCH  22  26
HETATM   26  O   UNL     1      27.921  43.181  53.213  1.00  0.00    -0.354 OA
HETATM   27  C   UNL     1      29.248  43.167  52.693  1.00  0.00     0.210 C 
ENDBRANCH  22  26
ENDBRANCH   1  19
TORSDOF 2
ENDMDL
MODEL 3
REMARK VINA RESULT:      -8.7      3.219      5.177
REMARK  2 active torsions:
REMARK  status: ('A' for Active; 'I' for Inactive)
REMARK    1  A    between atoms: O_2  and  C_3 
REMARK    2  A    between atoms: C_7  and  N_8 
REMARK       I    between atoms: N_8  and  C_9 
REMARK       I    between atoms: C_9  and  N_10 
ROOT
HETATM    1  N   UNL     1      23.031  48.551  49.588  1.00  0.00    -0.309 N 
HETATM    2  C   UNL     1      23.435  47.299  49.182  1.00  0.00     0.323 C 
HETATM    3  N   UNL     1      24.653  46.874  49.699  1.00  0.00    -0.328 N 
HETATM    4  C   UNL     1      25.037  45.482  49.420  1.00  0.00     0.185 C 
HETATM    5  C   UNL     1      25.794  44.965  50.595  1.00  0.00     0.035 A 
HETATM    6  C   UNL     1      26.299  45.702  51.648  1.00  0.00    -0.020 A 
HETATM    7  C   UNL     1      26.108  47.178  51.715  1.00  0.00     0.061 C 
HETATM    8  C   UNL     1      25.706  47.710  50.322  1.00  0.00     0.132 C 
HETATM    9  N   UNL     1      26.098  43.650  50.810  1.00  0.00    -0.357 N 
HETATM   10  H   UNL     1      25.847  42.880  50.205  1.00  0.00     0.166 HD
HETATM   11  C   UNL     1      26.787  43.519  51.997  1.00  0.00     0.043 A 
HETATM   12  C   UNL     1      26.924  44.798  52.547  1.00  0.00    -0.001 A 
HETATM   13  C   UNL     1      27.287  42.372  52.624  1.00  0.00     0.030 A 
HETATM   14  C   UNL     1      27.941  42.533  53.849  1.00  0.00     0.002 A 
HETATM   15  C   UNL     1      28.090  43.794  54.421  1.00  0.00     0.001 A 
HETATM   16  C   UNL     1      27.587  44.934  53.782  1.00  0.00     0.014 A 
HETATM   17  O   UNL     1      22.780  46.571  48.440  1.00  0.00    -0.247 OA
HETATM   18  H   UNL     1      23.572  48.978  50.318  1.00  0.00     0.170 HD
ENDROOT
BRANCH   1  19
HETATM   19  C   UNL     1      21.840  49.230  49.248  1.00  0.00     0.038 A 
HETATM   20  C   UNL     1      20.564  48.666  49.307  1.00  0.00     0.056 A 
HETATM   21  C   UNL     1      19.435  49.430  48.986  1.00  0.00     0.069 A 
HETATM   22  C   UNL     1      19.566  50.771  48.605  1.00  0.00     0.090 A 
HETATM   23 CL   UNL     1      17.879  48.684  49.108  1.00  0.00    -0.081 Cl
HETATM   24  C   UNL     1      20.843  51.326  48.503  1.00  0.00     0.041 A 
HETATM   25  C   UNL     1      21.968  50.562  48.832  1.00  0.00     0.032 A 
BRANCH  22  26
HETATM   26  O   UNL     1      18.433  51.471  48.284  1.00  0.00    -0.354 OA
HETATM   27  C   UNL     1      18.077  52.473  49.234  1.00  0.00     0.210 C 
ENDBRANCH  22  26
ENDBRANCH   1  19
TORSDOF 2
ENDMDL
MODEL 4
REMARK VINA RESULT:      -8.6      5.476      5.987
REMARK  2 active torsions:
REMARK  status: ('A' for Active; 'I' for Inactive)
REMARK    1  A    between atoms: O_2  and  C_3 
REMARK    2  A    between atoms: C_7  and  N_8 
REMARK       I    between atoms: N_8  and  C_9 
REMARK       I    between atoms: C_9  and  N_10 
ROOT
HETATM    1  N   UNL     1      27.296  41.339  49.412  1.00  0.00    -0.309 N 
HETATM    2  C   UNL     1      26.788  42.386  50.147  1.00  0.00     0.323 C 
HETATM    3  N   UNL     1      27.119  42.377  51.498  1.00  0.00    -0.328 N 
HETATM    4  C   UNL     1      26.733  43.561  52.278  1.00  0.00     0.185 C 
HETATM    5  C   UNL     1      27.773  43.789  53.321  1.00  0.00     0.035 A 
HETATM    6  C   UNL     1      28.779  42.920  53.695  1.00  0.00    -0.020 A 
HETATM    7  C   UNL     1      28.932  41.593  53.037  1.00  0.00     0.061 C 
HETATM    8  C   UNL     1      27.630  41.233  52.290  1.00  0.00     0.132 C 
HETATM    9  N   UNL     1      27.890  44.926  54.071  1.00  0.00    -0.357 N 
HETATM   10  H   UNL     1      27.293  45.739  54.007  1.00  0.00     0.166 HD
HETATM   11  C   UNL     1      28.968  44.812  54.923  1.00  0.00     0.043 A 
HETATM   12  C   UNL     1      29.548  43.558  54.704  1.00  0.00    -0.001 A 
HETATM   13  C   UNL     1      29.473  45.723  55.858  1.00  0.00     0.030 A 
HETATM   14  C   UNL     1      30.605  45.346  56.587  1.00  0.00     0.002 A 
HETATM   15  C   UNL     1      31.205  44.105  56.388  1.00  0.00     0.001 A 
HETATM   16  C   UNL     1      30.687  43.202  55.451  1.00  0.00     0.014 A 
HETATM   17  O   UNL     1      26.110  43.295  49.674  1.00  0.00    -0.247 OA
HETATM   18  H   UNL     1      27.964  40.752  49.878  1.00  0.00     0.170 HD
ENDROOT
BRANCH   1  19
HETATM   19  C   UNL     1      27.148  41.099  48.028  1.00  0.00     0.038 A 
HETATM   20  C   UNL     1      25.926  40.877  47.391  1.00  0.00     0.056 A 
HETATM   21  C   UNL     1      25.872  40.684  46.006  1.00  0.00     0.069 A 
HETATM   22  C   UNL     1      27.042  40.714  45.236  1.00  0.00     0.090 A 
HETATM   23 CL   UNL     1      24.326  40.443  45.270  1.00  0.00    -0.081 Cl
HETATM   24  C   UNL     1      28.270  40.894  45.874  1.00  0.00     0.041 A 
HETATM   25  C   UNL     1      28.318  41.093  47.258  1.00  0.00     0.032 A 
BRANCH  22  26
HETATM   26  O   UNL     1      26.939  40.504  43.885  1.00  0.00    -0.354 OA
HETATM   27  C   UNL     1      27.063  41.685  43.099  1.00  0.00     0.210 C 
ENDBRANCH  22  26
ENDBRANCH   1  19
TORSDOF 2
ENDMDL
MODEL 5
REMARK VINA RESULT:      -8.2      6.279      9.571
REMARK  2 active torsions:
REMARK  status: ('A' for Active; 'I' for Inactive)
REMARK    1  A    between atoms: O_2  and  C_3 
REMARK    2  A    between atoms: C_7  and  N_8 
REMARK       I    between atoms: N_8  and  C_9 
REMARK       I    between atoms: C_9  and  N_10 
ROOT
HETATM    1  N   UNL     1      28.355  43.167  52.976  1.00  0.00    -0.309 N 
HETATM    2  C   UNL     1      28.251  41.817  52.730  1.00  0.00     0.323 C 
HETATM    3  N   UNL     1      27.619  41.479  51.539  1.00  0.00    -0.328 N 
HETATM    4  C   UNL     1      27.636  40.057  51.166  1.00  0.00     0.185 C 
HETATM    5  C   UNL     1      27.714  39.968  49.681  1.00  0.00     0.035 A 
HETATM    6  C   UNL     1      27.530  40.995  48.776  1.00  0.00    -0.020 A 
HETATM    7  C   UNL     1      27.229  42.380  49.236  1.00  0.00     0.061 C 
HETATM    8  C   UNL     1      26.753  42.345  50.704  1.00  0.00     0.132 C 
HETATM    9  N   UNL     1      27.995  38.828  48.981  1.00  0.00    -0.357 N 
HETATM   10  H   UNL     1      28.184  37.920  49.383  1.00  0.00     0.166 HD
HETATM   11  C   UNL     1      28.008  39.103  47.629  1.00  0.00     0.043 A 
HETATM   12  C   UNL     1      27.720  40.463  47.473  1.00  0.00    -0.001 A 
HETATM   13  C   UNL     1      28.259  38.256  46.543  1.00  0.00     0.030 A 
HETATM   14  C   UNL     1      28.220  38.814  45.262  1.00  0.00     0.002 A 
HETATM   15  C   UNL     1      27.939  40.166  45.077  1.00  0.00     0.001 A 
HETATM   16  C   UNL     1      27.688  41.001  46.172  1.00  0.00     0.014 A 
HETATM   17  O   UNL     1      28.697  40.945  53.473  1.00  0.00    -0.247 OA
HETATM   18  H   UNL     1      28.097  43.777  52.222  1.00  0.00     0.170 HD
ENDROOT
BRANCH   1  19
HETATM   19  C   UNL     1      28.961  43.804  54.082  1.00  0.00     0.038 A 
HETATM   20  C   UNL     1      30.038  43.282  54.801  1.00  0.00     0.056 A 
HETATM   21  C   UNL     1      30.598  44.004  55.862  1.00  0.00     0.069 A 
HETATM   22  C   UNL     1      30.091  45.259  56.218  1.00  0.00     0.090 A 
HETATM   23 CL   UNL     1      31.950  43.319  56.696  1.00  0.00    -0.081 Cl
HETATM   24  C   UNL     1      28.987  45.765  55.529  1.00  0.00     0.041 A 
HETATM   25  C   UNL     1      28.434  45.045  54.464  1.00  0.00     0.032 A 
BRANCH  22  26
HETATM   26  O   UNL     1      30.663  45.919  57.274  1.00  0.00    -0.354 OA
HETATM   27  C   UNL     1      30.029  45.676  58.527  1.00  0.00     0.210 C 
ENDBRANCH  22  26
ENDBRANCH   1  19
TORSDOF 2
ENDMDL
MODEL 6
REMARK VINA RESULT:      -8.1      6.385      9.980
REMARK  2 active torsions:
REMARK  status: ('A' for Active; 'I' for Inactive)
REMARK    1  A    between atoms: O_2  and  C_3 
REMARK    2  A    between atoms: C_7  and  N_8 
REMARK       I    between atoms: N_8  and  C_9 
REMARK       I    between atoms: C_9  and  N_10 
ROOT
HETATM    1  N   UNL     1      18.529  51.279  48.209  1.00  0.00    -0.309 N 
HETATM    2  C   UNL     1      18.926  50.066  48.723  1.00  0.00     0.323 C 
HETATM    3  N   UNL     1      20.159  49.607  48.273  1.00  0.00    -0.328 N 
HETATM    4  C   UNL     1      20.689  48.399  48.923  1.00  0.00     0.185 C 
HETATM    5  C   UNL     1      22.173  48.517  48.982  1.00  0.00     0.035 A 
HETATM    6  C   UNL     1      22.960  49.438  48.320  1.00  0.00    -0.020 A 
HETATM    7  C   UNL     1      22.355  50.474  47.438  1.00  0.00     0.061 C 
HETATM    8  C   UNL     1      20.909  50.068  47.081  1.00  0.00     0.132 C 
HETATM    9  N   UNL     1      22.990  47.714  49.727  1.00  0.00    -0.357 N 
HETATM   10  H   UNL     1      22.689  46.954  50.322  1.00  0.00     0.166 HD
HETATM   11  C   UNL     1      24.302  48.108  49.567  1.00  0.00     0.043 A 
HETATM   12  C   UNL     1      24.311  49.195  48.687  1.00  0.00    -0.001 A 
HETATM   13  C   UNL     1      25.471  47.592  50.139  1.00  0.00     0.030 A 
HETATM   14  C   UNL     1      26.683  48.205  49.807  1.00  0.00     0.002 A 
HETATM   15  C   UNL     1      26.721  49.292  48.936  1.00  0.00     0.001 A 
HETATM   16  C   UNL     1      25.544  49.796  48.370  1.00  0.00     0.014 A 
HETATM   17  O   UNL     1      18.277  49.418  49.542  1.00  0.00    -0.247 OA
HETATM   18  H   UNL     1      19.215  51.782  47.676  1.00  0.00     0.170 HD
ENDROOT
BRANCH   1  19
HETATM   19  C   UNL     1      17.347  51.998  48.496  1.00  0.00     0.038 A 
HETATM   20  C   UNL     1      16.364  52.310  47.555  1.00  0.00     0.056 A 
HETATM   21  C   UNL     1      15.206  52.995  47.941  1.00  0.00     0.069 A 
HETATM   22  C   UNL     1      15.013  53.376  49.274  1.00  0.00     0.090 A 
HETATM   23 CL   UNL     1      14.010  53.326  46.736  1.00  0.00    -0.081 Cl
HETATM   24  C   UNL     1      16.013  53.103  50.209  1.00  0.00     0.041 A 
HETATM   25  C   UNL     1      17.166  52.411  49.822  1.00  0.00     0.032 A 
BRANCH  22  26
HETATM   26  O   UNL     1      13.870  54.060  49.599  1.00  0.00    -0.354 OA
HETATM   27  C   UNL     1      14.002  55.478  49.545  1.00  0.00     0.210 C 
ENDBRANCH  22  26
ENDBRANCH   1  19
TORSDOF 2
ENDMDL
MODEL 7
REMARK VINA RESULT:      -7.9      5.096      9.396
REMARK  2 active torsions:
REMARK  status: ('A' for Active; 'I' for Inactive)
REMARK    1  A    between atoms: O_2  and  C_3 
REMARK    2  A    between atoms: C_7  and  N_8 
REMARK       I    between atoms: N_8  and  C_9 
REMARK       I    between atoms: C_9  and  N_10 
ROOT
HETATM    1  N   UNL     1      27.958  44.089  52.616  1.00  0.00    -0.309 N 
HETATM    2  C   UNL     1      26.588  44.106  52.495  1.00  0.00     0.323 C 
HETATM    3  N   UNL     1      26.105  43.949  51.201  1.00  0.00    -0.328 N 
HETATM    4  C   UNL     1      24.649  43.798  51.055  1.00  0.00     0.185 C 
HETATM    5  C   UNL     1      24.391  42.879  49.911  1.00  0.00     0.035 A 
HETATM    6  C   UNL     1      25.304  42.447  48.969  1.00  0.00    -0.020 A 
HETATM    7  C   UNL     1      26.728  42.881  49.023  1.00  0.00     0.061 C 
HETATM    8  C   UNL     1      26.856  44.121  49.935  1.00  0.00     0.132 C 
HETATM    9  N   UNL     1      23.182  42.308  49.626  1.00  0.00    -0.357 N 
HETATM   10  H   UNL     1      22.330  42.438  50.153  1.00  0.00     0.166 HD
HETATM   11  C   UNL     1      23.299  41.500  48.515  1.00  0.00     0.043 A 
HETATM   12  C   UNL     1      24.628  41.567  48.083  1.00  0.00    -0.001 A 
HETATM   13  C   UNL     1      22.336  40.713  47.872  1.00  0.00     0.030 A 
HETATM   14  C   UNL     1      22.742  39.971  46.758  1.00  0.00     0.002 A 
HETATM   15  C   UNL     1      24.059  40.018  46.307  1.00  0.00     0.001 A 
HETATM   16  C   UNL     1      25.011  40.810  46.959  1.00  0.00     0.014 A 
HETATM   17  O   UNL     1      25.814  44.222  53.443  1.00  0.00    -0.247 OA
HETATM   18  H   UNL     1      28.473  43.828  51.794  1.00  0.00     0.170 HD
ENDROOT
BRANCH   1  19
HETATM   19  C   UNL     1      28.727  44.202  53.796  1.00  0.00     0.038 A 
HETATM   20  C   UNL     1      28.479  45.124  54.815  1.00  0.00     0.056 A 
HETATM   21  C   UNL     1      29.274  45.137  55.967  1.00  0.00     0.069 A 
HETATM   22  C   UNL     1      30.326  44.225  56.119  1.00  0.00     0.090 A 
HETATM   23 CL   UNL     1      28.899  46.282  57.208  1.00  0.00    -0.081 Cl
HETATM   24  C   UNL     1      30.603  43.331  55.084  1.00  0.00     0.041 A 
HETATM   25  C   UNL     1      29.802  43.316  53.937  1.00  0.00     0.032 A 
BRANCH  22  26
HETATM   26  O   UNL     1      31.085  44.289  57.258  1.00  0.00    -0.354 OA
HETATM   27  C   UNL     1      32.129  43.320  57.320  1.00  0.00     0.210 C 
ENDBRANCH  22  26
ENDBRANCH   1  19
TORSDOF 2
ENDMDL
MODEL 8
REMARK VINA RESULT:      -7.9      6.248     12.024
REMARK  2 active torsions:
REMARK  status: ('A' for Active; 'I' for Inactive)
REMARK    1  A    between atoms: O_2  and  C_3 
REMARK    2  A    between atoms: C_7  and  N_8 
REMARK       I    between atoms: N_8  and  C_9 
REMARK       I    between atoms: C_9  and  N_10 
ROOT
HETATM    1  N   UNL     1      21.794  48.677  49.434  1.00  0.00    -0.309 N 
HETATM    2  C   UNL     1      20.912  48.669  48.379  1.00  0.00     0.323 C 
HETATM    3  N   UNL     1      19.603  49.012  48.698  1.00  0.00    -0.328 N 
HETATM    4  C   UNL     1      18.671  49.173  47.572  1.00  0.00     0.185 C 
HETATM    5  C   UNL     1      17.701  50.248  47.922  1.00  0.00     0.035 A 
HETATM    6  C   UNL     1      17.508  50.820  49.164  1.00  0.00    -0.020 A 
HETATM    7  C   UNL     1      18.314  50.393  50.342  1.00  0.00     0.061 C 
HETATM    8  C   UNL     1      18.983  49.034  50.044  1.00  0.00     0.132 C 
HETATM    9  N   UNL     1      16.847  50.847  47.039  1.00  0.00    -0.357 N 
HETATM   10  H   UNL     1      16.774  50.635  46.053  1.00  0.00     0.166 HD
HETATM   11  C   UNL     1      16.105  51.811  47.689  1.00  0.00     0.043 A 
HETATM   12  C   UNL     1      16.505  51.817  49.029  1.00  0.00    -0.001 A 
HETATM   13  C   UNL     1      15.125  52.677  47.191  1.00  0.00     0.030 A 
HETATM   14  C   UNL     1      14.538  53.577  48.085  1.00  0.00     0.002 A 
HETATM   15  C   UNL     1      14.918  53.607  49.425  1.00  0.00     0.001 A 
HETATM   16  C   UNL     1      15.899  52.734  49.910  1.00  0.00     0.014 A 
HETATM   17  O   UNL     1      21.227  48.409  47.219  1.00  0.00    -0.247 OA
HETATM   18  H   UNL     1      21.452  49.060  50.297  1.00  0.00     0.170 HD
ENDROOT
BRANCH   1  19
HETATM   19  C   UNL     1      23.179  48.397  49.410  1.00  0.00     0.038 A 
HETATM   20  C   UNL     1      23.742  47.168  49.756  1.00  0.00     0.056 A 
HETATM   21  C   UNL     1      25.125  46.971  49.665  1.00  0.00     0.069 A 
HETATM   22  C   UNL     1      25.965  48.001  49.224  1.00  0.00     0.090 A 
HETATM   23 CL   UNL     1      25.761  45.416  50.078  1.00  0.00    -0.081 Cl
HETATM   24  C   UNL     1      25.410  49.245  48.919  1.00  0.00     0.041 A 
HETATM   25  C   UNL     1      24.027  49.435  49.003  1.00  0.00     0.032 A 
BRANCH  22  26
HETATM   26  O   UNL     1      27.314  47.764  49.169  1.00  0.00    -0.354 OA
HETATM   27  C   UNL     1      28.115  48.943  49.183  1.00  0.00     0.210 C 
ENDBRANCH  22  26
ENDBRANCH   1  19
TORSDOF 2
ENDMDL
MODEL 9
REMARK VINA RESULT:      -7.9      3.714      9.681
REMARK  2 active torsions:
REMARK  status: ('A' for Active; 'I' for Inactive)
REMARK    1  A    between atoms: O_2  and  C_3 
REMARK    2  A    between atoms: C_7  and  N_8 
REMARK       I    between atoms: N_8  and  C_9 
REMARK       I    between atoms: C_9  and  N_10 
ROOT
HETATM    1  N   UNL     1      26.146  45.190  51.429  1.00  0.00    -0.309 N 
HETATM    2  C   UNL     1      25.745  46.430  50.987  1.00  0.00     0.323 C 
HETATM    3  N   UNL     1      24.811  46.419  49.957  1.00  0.00    -0.328 N 
HETATM    4  C   UNL     1      24.240  47.718  49.573  1.00  0.00     0.185 C 
HETATM    5  C   UNL     1      22.825  47.498  49.159  1.00  0.00     0.035 A 
HETATM    6  C   UNL     1      22.212  46.287  48.907  1.00  0.00    -0.020 A 
HETATM    7  C   UNL     1      22.956  45.004  49.048  1.00  0.00     0.061 C 
HETATM    8  C   UNL     1      24.474  45.287  49.063  1.00  0.00     0.132 C 
HETATM    9  N   UNL     1      21.904  48.490  48.973  1.00  0.00    -0.357 N 
HETATM   10  H   UNL     1      22.069  49.480  49.095  1.00  0.00     0.166 HD
HETATM   11  C   UNL     1      20.692  47.939  48.612  1.00  0.00     0.043 A 
HETATM   12  C   UNL     1      20.859  46.551  48.567  1.00  0.00    -0.001 A 
HETATM   13  C   UNL     1      19.469  48.561  48.335  1.00  0.00     0.030 A 
HETATM   14  C   UNL     1      18.384  47.743  48.005  1.00  0.00     0.002 A 
HETATM   15  C   UNL     1      18.520  46.358  47.954  1.00  0.00     0.001 A 
HETATM   16  C   UNL     1      19.750  45.749  48.233  1.00  0.00     0.014 A 
HETATM   17  O   UNL     1      26.142  47.492  51.462  1.00  0.00    -0.247 OA
HETATM   18  H   UNL     1      25.632  44.404  51.073  1.00  0.00     0.170 HD
ENDROOT
BRANCH   1  19
HETATM   19  C   UNL     1      27.056  44.891  52.467  1.00  0.00     0.038 A 
HETATM   20  C   UNL     1      28.100  43.970  52.361  1.00  0.00     0.056 A 
HETATM   21  C   UNL     1      28.978  43.767  53.433  1.00  0.00     0.069 A 
HETATM   22  C   UNL     1      28.826  44.484  54.625  1.00  0.00     0.090 A 
HETATM   23 CL   UNL     1      30.270  42.635  53.230  1.00  0.00    -0.081 Cl
HETATM   24  C   UNL     1      27.758  45.375  54.750  1.00  0.00     0.041 A 
HETATM   25  C   UNL     1      26.888  45.581  53.674  1.00  0.00     0.032 A 
BRANCH  22  26
HETATM   26  O   UNL     1      29.701  44.237  55.651  1.00  0.00    -0.354 OA
HETATM   27  C   UNL     1      30.146  45.406  56.334  1.00  0.00     0.210 C 
ENDBRANCH  22  26
ENDBRANCH   1  19
TORSDOF 2
ENDMDL
MODEL 10
REMARK VINA RESULT:      -7.8      5.476     11.806
REMARK  2 active torsions:
REMARK  status: ('A' for Active; 'I' for Inactive)
REMARK    1  A    between atoms: O_2  and  C_3 
REMARK    2  A    between atoms: C_7  and  N_8 
REMARK       I    between atoms: N_8  and  C_9 
REMARK       I    between atoms: C_9  and  N_10 
ROOT
HETATM    1  N   UNL     1      21.974  47.183  49.138  1.00  0.00    -0.309 N 
HETATM    2  C   UNL     1      21.262  47.417  47.984  1.00  0.00     0.323 C 
HETATM    3  N   UNL     1      19.942  47.810  48.172  1.00  0.00    -0.328 N 
HETATM    4  C   UNL     1      19.201  48.226  46.972  1.00  0.00     0.185 C 
HETATM    5  C   UNL     1      18.253  49.307  47.363  1.00  0.00     0.035 A 
HETATM    6  C   UNL     1      17.908  49.685  48.645  1.00  0.00    -0.020 A 
HETATM    7  C   UNL     1      18.501  49.010  49.833  1.00  0.00     0.061 C 
HETATM    8  C   UNL     1      19.128  47.666  49.402  1.00  0.00     0.132 C 
HETATM    9  N   UNL     1      17.578  50.107  46.485  1.00  0.00    -0.357 N 
HETATM   10  H   UNL     1      17.641  50.064  45.477  1.00  0.00     0.166 HD
HETATM   11  C   UNL     1      16.803  51.012  47.181  1.00  0.00     0.043 A 
HETATM   12  C   UNL     1      16.995  50.769  48.545  1.00  0.00    -0.001 A 
HETATM   13  C   UNL     1      15.960  52.024  46.707  1.00  0.00     0.030 A 
HETATM   14  C   UNL     1      15.298  52.814  47.651  1.00  0.00     0.002 A 
HETATM   15  C   UNL     1      15.473  52.597  49.016  1.00  0.00     0.001 A 
HETATM   16  C   UNL     1      16.318  51.579  49.476  1.00  0.00     0.014 A 
HETATM   17  O   UNL     1      21.733  47.322  46.852  1.00  0.00    -0.247 OA
HETATM   18  H   UNL     1      21.528  47.449  49.997  1.00  0.00     0.170 HD
ENDROOT
BRANCH   1  19
HETATM   19  C   UNL     1      23.328  46.798  49.259  1.00  0.00     0.038 A 
HETATM   20  C   UNL     1      24.382  47.682  49.499  1.00  0.00     0.056 A 
HETATM   21  C   UNL     1      25.690  47.203  49.642  1.00  0.00     0.069 A 
HETATM   22  C   UNL     1      25.962  45.833  49.549  1.00  0.00     0.090 A 
HETATM   23 CL   UNL     1      26.949  48.343  49.969  1.00  0.00    -0.081 Cl
HETATM   24  C   UNL     1      24.918  44.951  49.266  1.00  0.00     0.041 A 
HETATM   25  C   UNL     1      23.611  45.432  49.132  1.00  0.00     0.032 A 
BRANCH  22  26
HETATM   26  O   UNL     1      27.261  45.416  49.679  1.00  0.00    -0.354 OA
HETATM   27  C   UNL     1      27.442  44.344  50.601  1.00  0.00     0.210 C 
ENDBRANCH  22  26
ENDBRANCH   1  19
TORSDOF 2
ENDMDL
