MODEL 1
REMARK VINA RESULT:     -10.2      0.000      0.000
REMARK  5 active torsions:
REMARK  status: ('A' for Active; 'I' for Inactive)
REMARK    1  A    between atoms: O_2  and  C_3 
REMARK    2  A    between atoms: C_4  and  O_5 
REMARK    3  A    between atoms: C_8  and  C_9 
REMARK    4  A    between atoms: C_13  and  C_14 
REMARK       I    between atoms: C_14  and  N_15 
REMARK    5  A    between atoms: N_15  and  N_16 
ROOT
HETATM    1  C   UNL     1      27.745  43.392  52.508  1.00  0.00     0.069 A 
HETATM    2  N   UNL     1      27.616  42.064  52.290  1.00  0.00    -0.248 NA
HETATM    3  C   UNL     1      26.955  41.624  51.209  1.00  0.00     0.068 A 
HETATM    4  C   UNL     1      26.344  42.482  50.269  1.00  0.00     0.009 A 
HETATM    5  C   UNL     1      26.385  43.865  50.582  1.00  0.00     0.048 A 
HETATM    6  C   UNL     1      27.109  44.312  51.695  1.00  0.00     0.050 A 
HETATM    7  C   UNL     1      26.905  40.251  51.013  1.00  0.00     0.032 A 
HETATM    8  C   UNL     1      26.301  39.684  49.890  1.00  0.00     0.002 A 
HETATM    9  C   UNL     1      25.752  40.509  48.923  1.00  0.00     0.001 A 
HETATM   10  C   UNL     1      25.783  41.892  49.103  1.00  0.00     0.015 A 
ENDROOT
BRANCH   5  11
HETATM   11  C   UNL     1      25.707  44.945  49.804  1.00  0.00     0.271 C 
HETATM   12  N   UNL     1      24.409  45.253  50.157  1.00  0.00    -0.252 N 
HETATM   13  H   UNL     1      24.066  45.014  51.084  1.00  0.00     0.191 HD
HETATM   14  O   UNL     1      26.347  45.566  48.959  1.00  0.00    -0.266 OA
BRANCH  12  15
HETATM   15  N   UNL     1      23.844  46.401  49.611  1.00  0.00    -0.167 N 
HETATM   16  C   UNL     1      23.087  46.361  48.471  1.00  0.00     0.345 C 
HETATM   17  O   UNL     1      22.733  45.370  47.852  1.00  0.00    -0.245 OA
HETATM   18  N   UNL     1      22.848  47.663  48.078  1.00  0.00    -0.323 N 
HETATM   19  C   UNL     1      23.364  48.621  49.044  1.00  0.00     0.117 C 
HETATM   20  H   UNL     1      22.246  47.870  47.290  1.00  0.00     0.165 HD
HETATM   21  C   UNL     1      22.227  49.144  49.935  1.00  0.00     0.041 C 
HETATM   22  C   UNL     1      24.154  49.756  48.394  1.00  0.00     0.041 C 
HETATM   23  C   UNL     1      24.275  47.683  49.868  1.00  0.00     0.275 C 
HETATM   24  C   UNL     1      21.326  50.125  49.186  1.00  0.00     0.003 C 
HETATM   25  C   UNL     1      22.130  51.266  48.571  1.00  0.00     0.000 C 
HETATM   26  C   UNL     1      23.249  50.752  47.670  1.00  0.00     0.003 C 
HETATM   27  O   UNL     1      25.187  48.045  50.599  1.00  0.00    -0.268 OA
ENDBRANCH  12  15
ENDBRANCH   5  11
BRANCH   1  28
HETATM   28  C   UNL     1      28.629  43.775  53.628  1.00  0.00    -0.004 A 
HETATM   29  C   UNL     1      28.346  44.910  54.418  1.00  0.00     0.053 A 
HETATM   30  C   UNL     1      29.138  45.264  55.522  1.00  0.00     0.102 A 
HETATM   31  C   UNL     1      30.222  44.444  55.863  1.00  0.00     0.101 A 
HETATM   32  C   UNL     1      30.545  43.340  55.075  1.00  0.00     0.040 A 
HETATM   33  C   UNL     1      29.752  43.005  53.976  1.00  0.00     0.017 A 
BRANCH  30  34
HETATM   34  O   UNL     1      28.926  46.372  56.301  1.00  0.00    -0.353 OA
HETATM   35  C   UNL     1      27.783  47.165  56.017  1.00  0.00     0.210 C 
ENDBRANCH  30  34
BRANCH  31  36
HETATM   36  O   UNL     1      31.067  44.665  56.923  1.00  0.00    -0.353 OA
HETATM   37  C   UNL     1      31.802  43.503  57.303  1.00  0.00     0.210 C 
ENDBRANCH  31  36
ENDBRANCH   1  28
TORSDOF 5
ENDMDL
MODEL 2
REMARK VINA RESULT:     -10.1      2.339      3.065
REMARK  5 active torsions:
REMARK  status: ('A' for Active; 'I' for Inactive)
REMARK    1  A    between atoms: O_2  and  C_3 
REMARK    2  A    between atoms: C_4  and  O_5 
REMARK    3  A    between atoms: C_8  and  C_9 
REMARK    4  A    between atoms: C_13  and  C_14 
REMARK       I    between atoms: C_14  and  N_15 
REMARK    5  A    between atoms: N_15  and  N_16 
ROOT
HETATM    1  C   UNL     1      28.604  42.812  52.992  1.00  0.00     0.069 A 
HETATM    2  N   UNL     1      29.104  41.560  52.889  1.00  0.00    -0.248 NA
HETATM    3  C   UNL     1      28.777  40.792  51.839  1.00  0.00     0.068 A 
HETATM    4  C   UNL     1      27.897  41.208  50.817  1.00  0.00     0.009 A 
HETATM    5  C   UNL     1      27.289  42.476  51.007  1.00  0.00     0.048 A 
HETATM    6  C   UNL     1      27.667  43.280  52.090  1.00  0.00     0.050 A 
HETATM    7  C   UNL     1      29.367  39.539  51.763  1.00  0.00     0.032 A 
HETATM    8  C   UNL     1      29.150  38.681  50.684  1.00  0.00     0.002 A 
HETATM    9  C   UNL     1      28.343  39.095  49.638  1.00  0.00     0.001 A 
HETATM   10  C   UNL     1      27.732  40.348  49.696  1.00  0.00     0.015 A 
ENDROOT
BRANCH   5  11
HETATM   11  C   UNL     1      26.240  43.070  50.125  1.00  0.00     0.271 C 
HETATM   12  N   UNL     1      25.025  43.370  50.708  1.00  0.00    -0.252 N 
HETATM   13  H   UNL     1      24.966  43.503  51.714  1.00  0.00     0.191 HD
HETATM   14  O   UNL     1      26.522  43.346  48.961  1.00  0.00    -0.266 OA
BRANCH  12  15
HETATM   15  N   UNL     1      24.124  44.132  49.972  1.00  0.00    -0.167 N 
HETATM   16  C   UNL     1      24.094  45.497  50.058  1.00  0.00     0.345 C 
HETATM   17  O   UNL     1      24.862  46.217  50.676  1.00  0.00    -0.245 OA
HETATM   18  N   UNL     1      22.975  45.938  49.379  1.00  0.00    -0.323 N 
HETATM   19  C   UNL     1      22.283  44.845  48.714  1.00  0.00     0.117 C 
HETATM   20  H   UNL     1      22.792  46.927  49.257  1.00  0.00     0.165 HD
HETATM   21  C   UNL     1      22.640  44.818  47.220  1.00  0.00     0.041 C 
HETATM   22  C   UNL     1      20.773  44.869  48.944  1.00  0.00     0.041 C 
HETATM   23  C   UNL     1      22.955  43.650  49.427  1.00  0.00     0.275 C 
HETATM   24  C   UNL     1      21.954  45.948  46.453  1.00  0.00     0.003 C 
HETATM   25  C   UNL     1      20.444  45.935  46.671  1.00  0.00     0.000 C 
HETATM   26  C   UNL     1      20.083  45.981  48.153  1.00  0.00     0.003 C 
HETATM   27  O   UNL     1      22.509  42.512  49.471  1.00  0.00    -0.268 OA
ENDBRANCH  12  15
ENDBRANCH   5  11
BRANCH   1  28
HETATM   28  C   UNL     1      29.153  43.634  54.091  1.00  0.00    -0.004 A 
HETATM   29  C   UNL     1      28.505  44.819  54.502  1.00  0.00     0.053 A 
HETATM   30  C   UNL     1      28.975  45.588  55.578  1.00  0.00     0.102 A 
HETATM   31  C   UNL     1      30.102  45.143  56.282  1.00  0.00     0.101 A 
HETATM   32  C   UNL     1      30.781  43.996  55.871  1.00  0.00     0.040 A 
HETATM   33  C   UNL     1      30.307  43.246  54.793  1.00  0.00     0.017 A 
BRANCH  30  34
HETATM   34  O   UNL     1      28.403  46.761  55.996  1.00  0.00    -0.353 OA
HETATM   35  C   UNL     1      27.608  47.475  55.060  1.00  0.00     0.210 C 
ENDBRANCH  30  34
BRANCH  31  36
HETATM   36  O   UNL     1      30.656  45.789  57.359  1.00  0.00    -0.353 OA
HETATM   37  C   UNL     1      31.093  44.895  58.382  1.00  0.00     0.210 C 
ENDBRANCH  31  36
ENDBRANCH   1  28
TORSDOF 5
ENDMDL
MODEL 3
REMARK VINA RESULT:     -10.0      2.242      3.729
REMARK  5 active torsions:
REMARK  status: ('A' for Active; 'I' for Inactive)
REMARK    1  A    between atoms: O_2  and  C_3 
REMARK    2  A    between atoms: C_4  and  O_5 
REMARK    3  A    between atoms: C_8  and  C_9 
REMARK    4  A    between atoms: C_13  and  C_14 
REMARK       I    between atoms: C_14  and  N_15 
REMARK    5  A    between atoms: N_15  and  N_16 
ROOT
HETATM    1  C   UNL     1      25.714  45.526  51.885  1.00  0.00     0.069 A 
HETATM    2  N   UNL     1      25.526  44.277  51.402  1.00  0.00    -0.248 NA
HETATM    3  C   UNL     1      24.815  44.094  50.279  1.00  0.00     0.068 A 
HETATM    4  C   UNL     1      24.211  45.149  49.561  1.00  0.00     0.009 A 
HETATM    5  C   UNL     1      24.318  46.434  50.152  1.00  0.00     0.048 A 
HETATM    6  C   UNL     1      25.092  46.615  51.305  1.00  0.00     0.050 A 
HETATM    7  C   UNL     1      24.704  42.795  49.805  1.00  0.00     0.032 A 
HETATM    8  C   UNL     1      24.044  42.495  48.613  1.00  0.00     0.002 A 
HETATM    9  C   UNL     1      23.500  43.521  47.859  1.00  0.00     0.001 A 
HETATM   10  C   UNL     1      23.592  44.834  48.320  1.00  0.00     0.015 A 
ENDROOT
BRANCH   5  11
HETATM   11  C   UNL     1      23.661  47.675  49.641  1.00  0.00     0.271 C 
HETATM   12  N   UNL     1      22.776  47.530  48.591  1.00  0.00    -0.252 N 
HETATM   13  H   UNL     1      22.345  46.627  48.414  1.00  0.00     0.191 HD
HETATM   14  O   UNL     1      23.861  48.740  50.219  1.00  0.00    -0.266 OA
BRANCH  12  15
HETATM   15  N   UNL     1      21.984  48.623  48.256  1.00  0.00    -0.167 N 
HETATM   16  C   UNL     1      22.502  49.726  47.632  1.00  0.00     0.345 C 
HETATM   17  O   UNL     1      23.640  49.873  47.213  1.00  0.00    -0.245 OA
HETATM   18  N   UNL     1      21.527  50.703  47.622  1.00  0.00    -0.323 N 
HETATM   19  C   UNL     1      20.266  50.211  48.157  1.00  0.00     0.117 C 
HETATM   20  H   UNL     1      21.673  51.585  47.145  1.00  0.00     0.165 HD
HETATM   21  C   UNL     1      19.305  49.854  47.013  1.00  0.00     0.041 C 
HETATM   22  C   UNL     1      19.632  51.168  49.164  1.00  0.00     0.041 C 
HETATM   23  C   UNL     1      20.768  48.913  48.831  1.00  0.00     0.275 C 
HETATM   24  C   UNL     1      18.731  51.105  46.345  1.00  0.00     0.003 C 
HETATM   25  C   UNL     1      18.076  52.032  47.365  1.00  0.00     0.000 C 
HETATM   26  C   UNL     1      19.033  52.403  48.493  1.00  0.00     0.003 C 
HETATM   27  O   UNL     1      20.170  48.291  49.698  1.00  0.00    -0.268 OA
ENDBRANCH  12  15
ENDBRANCH   5  11
BRANCH   1  28
HETATM   28  C   UNL     1      26.647  45.637  53.027  1.00  0.00    -0.004 A 
HETATM   29  C   UNL     1      27.641  44.659  53.248  1.00  0.00     0.053 A 
HETATM   30  C   UNL     1      28.573  44.770  54.291  1.00  0.00     0.102 A 
HETATM   31  C   UNL     1      28.532  45.904  55.114  1.00  0.00     0.101 A 
HETATM   32  C   UNL     1      27.535  46.864  54.939  1.00  0.00     0.040 A 
HETATM   33  C   UNL     1      26.610  46.736  53.902  1.00  0.00     0.017 A 
BRANCH  30  34
HETATM   34  O   UNL     1      29.536  43.835  54.568  1.00  0.00    -0.353 OA
HETATM   35  C   UNL     1      29.223  42.474  54.310  1.00  0.00     0.210 C 
ENDBRANCH  30  34
BRANCH  31  36
HETATM   36  O   UNL     1      29.391  46.144  56.157  1.00  0.00    -0.353 OA
HETATM   37  C   UNL     1      28.733  46.188  57.423  1.00  0.00     0.210 C 
ENDBRANCH  31  36
ENDBRANCH   1  28
TORSDOF 5
ENDMDL
MODEL 4
REMARK VINA RESULT:     -10.0      2.106      2.531
REMARK  5 active torsions:
REMARK  status: ('A' for Active; 'I' for Inactive)
REMARK    1  A    between atoms: O_2  and  C_3 
REMARK    2  A    between atoms: C_4  and  O_5 
REMARK    3  A    between atoms: C_8  and  C_9 
REMARK    4  A    between atoms: C_13  and  C_14 
REMARK       I    between atoms: C_14  and  N_15 
REMARK    5  A    between atoms: N_15  and  N_16 
ROOT
HETATM    1  C   UNL     1      27.935  42.801  52.681  1.00  0.00     0.069 A 
HETATM    2  N   UNL     1      28.470  41.628  52.273  1.00  0.00    -0.248 NA
HETATM    3  C   UNL     1      27.943  40.981  51.222  1.00  0.00     0.068 A 
HETATM    4  C   UNL     1      26.818  41.445  50.509  1.00  0.00     0.009 A 
HETATM    5  C   UNL     1      26.198  42.611  51.028  1.00  0.00     0.048 A 
HETATM    6  C   UNL     1      26.779  43.295  52.104  1.00  0.00     0.050 A 
HETATM    7  C   UNL     1      28.572  39.811  50.820  1.00  0.00     0.032 A 
HETATM    8  C   UNL     1      28.150  39.090  49.702  1.00  0.00     0.002 A 
HETATM    9  C   UNL     1      27.089  39.562  48.949  1.00  0.00     0.001 A 
HETATM   10  C   UNL     1      26.436  40.731  49.339  1.00  0.00     0.015 A 
ENDROOT
BRANCH   5  11
HETATM   11  C   UNL     1      24.932  43.215  50.516  1.00  0.00     0.271 C 
HETATM   12  N   UNL     1      25.022  43.993  49.379  1.00  0.00    -0.252 N 
HETATM   13  H   UNL     1      25.813  43.878  48.749  1.00  0.00     0.191 HD
HETATM   14  O   UNL     1      23.868  42.931  51.061  1.00  0.00    -0.266 OA
BRANCH  12  15
HETATM   15  N   UNL     1      23.838  44.369  48.755  1.00  0.00    -0.167 N 
HETATM   16  C   UNL     1      23.377  43.731  47.636  1.00  0.00     0.345 C 
HETATM   17  O   UNL     1      23.848  42.739  47.103  1.00  0.00    -0.245 OA
HETATM   18  N   UNL     1      22.309  44.456  47.146  1.00  0.00    -0.323 N 
HETATM   19  C   UNL     1      21.961  45.563  48.023  1.00  0.00     0.117 C 
HETATM   20  H   UNL     1      21.770  44.125  46.355  1.00  0.00     0.165 HD
HETATM   21  C   UNL     1      20.748  45.193  48.891  1.00  0.00     0.041 C 
HETATM   22  C   UNL     1      21.753  46.877  47.273  1.00  0.00     0.041 C 
HETATM   23  C   UNL     1      23.232  45.597  48.902  1.00  0.00     0.275 C 
HETATM   24  C   UNL     1      19.451  45.201  48.083  1.00  0.00     0.003 C 
HETATM   25  C   UNL     1      19.246  46.532  47.366  1.00  0.00     0.000 C 
HETATM   26  C   UNL     1      20.441  46.894  46.489  1.00  0.00     0.003 C 
HETATM   27  O   UNL     1      23.593  46.545  49.586  1.00  0.00    -0.268 OA
ENDBRANCH  12  15
ENDBRANCH   5  11
BRANCH   1  28
HETATM   28  C   UNL     1      28.684  43.516  53.734  1.00  0.00    -0.004 A 
HETATM   29  C   UNL     1      28.252  44.776  54.202  1.00  0.00     0.053 A 
HETATM   30  C   UNL     1      28.914  45.451  55.240  1.00  0.00     0.102 A 
HETATM   31  C   UNL     1      30.017  44.835  55.848  1.00  0.00     0.101 A 
HETATM   32  C   UNL     1      30.485  43.609  55.377  1.00  0.00     0.040 A 
HETATM   33  C   UNL     1      29.822  42.953  54.339  1.00  0.00     0.017 A 
BRANCH  30  34
HETATM   34  O   UNL     1      28.555  46.688  55.709  1.00  0.00    -0.353 OA
HETATM   35  C   UNL     1      27.566  47.403  54.983  1.00  0.00     0.210 C 
ENDBRANCH  30  34
BRANCH  31  36
HETATM   36  O   UNL     1      30.743  45.376  56.879  1.00  0.00    -0.353 OA
HETATM   37  C   UNL     1      31.200  44.398  57.813  1.00  0.00     0.210 C 
ENDBRANCH  31  36
ENDBRANCH   1  28
TORSDOF 5
ENDMDL
MODEL 5
REMARK VINA RESULT:      -9.9      2.663      9.124
REMARK  5 active torsions:
REMARK  status: ('A' for Active; 'I' for Inactive)
REMARK    1  A    between atoms: O_2  and  C_3 
REMARK    2  A    between atoms: C_4  and  O_5 
REMARK    3  A    between atoms: C_8  and  C_9 
REMARK    4  A    between atoms: C_13  and  C_14 
REMARK       I    between atoms: C_14  and  N_15 
REMARK    5  A    between atoms: N_15  and  N_16 
ROOT
HETATM    1  C   UNL     1      25.892  46.916  51.391  1.00  0.00     0.069 A 
HETATM    2  N   UNL     1      25.908  47.526  52.598  1.00  0.00    -0.248 NA
HETATM    3  C   UNL     1      26.584  46.975  53.618  1.00  0.00     0.068 A 
HETATM    4  C   UNL     1      27.278  45.751  53.518  1.00  0.00     0.009 A 
HETATM    5  C   UNL     1      27.146  45.067  52.282  1.00  0.00     0.048 A 
HETATM    6  C   UNL     1      26.467  45.671  51.216  1.00  0.00     0.050 A 
HETATM    7  C   UNL     1      26.607  47.678  54.814  1.00  0.00     0.032 A 
HETATM    8  C   UNL     1      27.330  47.233  55.921  1.00  0.00     0.002 A 
HETATM    9  C   UNL     1      28.072  46.067  55.825  1.00  0.00     0.001 A 
HETATM   10  C   UNL     1      28.057  45.340  54.636  1.00  0.00     0.015 A 
ENDROOT
BRANCH   5  11
HETATM   11  C   UNL     1      27.688  43.707  51.986  1.00  0.00     0.271 C 
HETATM   12  N   UNL     1      26.772  42.688  51.823  1.00  0.00    -0.252 N 
HETATM   13  H   UNL     1      25.810  42.907  51.577  1.00  0.00     0.191 HD
HETATM   14  O   UNL     1      28.897  43.568  51.815  1.00  0.00    -0.266 OA
BRANCH  12  15
HETATM   15  N   UNL     1      27.234  41.476  51.320  1.00  0.00    -0.167 N 
HETATM   16  C   UNL     1      27.963  40.608  52.086  1.00  0.00     0.345 C 
HETATM   17  O   UNL     1      28.222  40.708  53.275  1.00  0.00    -0.245 OA
HETATM   18  N   UNL     1      28.440  39.612  51.257  1.00  0.00    -0.323 N 
HETATM   19  C   UNL     1      27.925  39.745  49.903  1.00  0.00     0.117 C 
HETATM   20  H   UNL     1      28.952  38.821  51.629  1.00  0.00     0.165 HD
HETATM   21  C   UNL     1      26.759  38.770  49.678  1.00  0.00     0.041 C 
HETATM   22  C   UNL     1      29.009  39.602  48.837  1.00  0.00     0.041 C 
HETATM   23  C   UNL     1      27.381  41.190  49.982  1.00  0.00     0.275 C 
HETATM   24  C   UNL     1      27.246  37.328  49.535  1.00  0.00     0.003 C 
HETATM   25  C   UNL     1      28.306  37.202  48.444  1.00  0.00     0.000 C 
HETATM   26  C   UNL     1      29.475  38.155  48.674  1.00  0.00     0.003 C 
HETATM   27  O   UNL     1      27.136  41.906  49.020  1.00  0.00    -0.268 OA
ENDBRANCH  12  15
ENDBRANCH   5  11
BRANCH   1  28
HETATM   28  C   UNL     1      25.265  47.681  50.294  1.00  0.00    -0.004 A 
HETATM   29  C   UNL     1      23.899  47.512  49.982  1.00  0.00     0.053 A 
HETATM   30  C   UNL     1      23.266  48.267  48.981  1.00  0.00     0.102 A 
HETATM   31  C   UNL     1      24.010  49.238  48.298  1.00  0.00     0.101 A 
HETATM   32  C   UNL     1      25.370  49.397  48.562  1.00  0.00     0.040 A 
HETATM   33  C   UNL     1      25.988  48.633  49.554  1.00  0.00     0.017 A 
BRANCH  30  34
HETATM   34  O   UNL     1      21.952  48.120  48.618  1.00  0.00    -0.353 OA
HETATM   35  C   UNL     1      21.550  46.857  48.107  1.00  0.00     0.210 C 
ENDBRANCH  30  34
BRANCH  31  36
HETATM   36  O   UNL     1      23.513  50.053  47.311  1.00  0.00    -0.353 OA
HETATM   37  C   UNL     1      22.921  51.248  47.819  1.00  0.00     0.210 C 
ENDBRANCH  31  36
ENDBRANCH   1  28
TORSDOF 5
ENDMDL
MODEL 6
REMARK VINA RESULT:      -9.8      3.286      7.626
REMARK  5 active torsions:
REMARK  status: ('A' for Active; 'I' for Inactive)
REMARK    1  A    between atoms: O_2  and  C_3 
REMARK    2  A    between atoms: C_4  and  O_5 
REMARK    3  A    between atoms: C_8  and  C_9 
REMARK    4  A    between atoms: C_13  and  C_14 
REMARK       I    between atoms: C_14  and  N_15 
REMARK    5  A    between atoms: N_15  and  N_16 
ROOT
HETATM    1  C   UNL     1      27.845  43.811  52.575  1.00  0.00     0.069 A 
HETATM    2  N   UNL     1      27.098  44.894  52.264  1.00  0.00    -0.248 NA
HETATM    3  C   UNL     1      26.128  44.795  51.342  1.00  0.00     0.068 A 
HETATM    4  C   UNL     1      25.845  43.607  50.636  1.00  0.00     0.009 A 
HETATM    5  C   UNL     1      26.720  42.519  50.888  1.00  0.00     0.048 A 
HETATM    6  C   UNL     1      27.705  42.625  51.878  1.00  0.00     0.050 A 
HETATM    7  C   UNL     1      25.361  45.927  51.108  1.00  0.00     0.032 A 
HETATM    8  C   UNL     1      24.285  45.923  50.219  1.00  0.00     0.002 A 
HETATM    9  C   UNL     1      23.948  44.751  49.564  1.00  0.00     0.001 A 
HETATM   10  C   UNL     1      24.710  43.602  49.778  1.00  0.00     0.015 A 
ENDROOT
BRANCH   5  11
HETATM   11  C   UNL     1      26.691  41.206  50.176  1.00  0.00     0.271 C 
HETATM   12  N   UNL     1      27.669  40.984  49.228  1.00  0.00    -0.252 N 
HETATM   13  H   UNL     1      28.535  41.517  49.260  1.00  0.00     0.191 HD
HETATM   14  O   UNL     1      25.870  40.357  50.516  1.00  0.00    -0.266 OA
BRANCH  12  15
HETATM   15  N   UNL     1      27.804  39.695  48.725  1.00  0.00    -0.167 N 
HETATM   16  C   UNL     1      28.600  38.762  49.332  1.00  0.00     0.345 C 
HETATM   17  O   UNL     1      29.199  38.877  50.390  1.00  0.00    -0.245 OA
HETATM   18  N   UNL     1      28.685  37.669  48.493  1.00  0.00    -0.323 N 
HETATM   19  C   UNL     1      27.827  37.816  47.328  1.00  0.00     0.117 C 
HETATM   20  H   UNL     1      29.172  36.827  48.777  1.00  0.00     0.165 HD
HETATM   21  C   UNL     1      26.527  37.020  47.518  1.00  0.00     0.041 C 
HETATM   22  C   UNL     1      28.533  37.462  46.020  1.00  0.00     0.041 C 
HETATM   23  C   UNL     1      27.524  39.329  47.427  1.00  0.00     0.275 C 
HETATM   24  C   UNL     1      26.758  35.516  47.371  1.00  0.00     0.003 C 
HETATM   25  C   UNL     1      27.436  35.180  46.046  1.00  0.00     0.000 C 
HETATM   26  C   UNL     1      28.737  35.955  45.861  1.00  0.00     0.003 C 
HETATM   27  O   UNL     1      27.111  40.028  46.513  1.00  0.00    -0.268 OA
ENDBRANCH  12  15
ENDBRANCH   5  11
BRANCH   1  28
HETATM   28  C   UNL     1      28.771  43.976  53.715  1.00  0.00    -0.004 A 
HETATM   29  C   UNL     1      28.656  45.082  54.586  1.00  0.00     0.053 A 
HETATM   30  C   UNL     1      29.485  45.234  55.708  1.00  0.00     0.102 A 
HETATM   31  C   UNL     1      30.432  44.238  55.985  1.00  0.00     0.101 A 
HETATM   32  C   UNL     1      30.590  43.157  55.118  1.00  0.00     0.040 A 
HETATM   33  C   UNL     1      29.763  43.024  54.002  1.00  0.00     0.017 A 
BRANCH  30  34
HETATM   34  O   UNL     1      29.436  46.302  56.566  1.00  0.00    -0.353 OA
HETATM   35  C   UNL     1      28.718  46.137  57.780  1.00  0.00     0.210 C 
ENDBRANCH  30  34
BRANCH  31  36
HETATM   36  O   UNL     1      31.294  44.254  57.053  1.00  0.00    -0.353 OA
HETATM   37  C   UNL     1      32.036  43.043  57.191  1.00  0.00     0.210 C 
ENDBRANCH  31  36
ENDBRANCH   1  28
TORSDOF 5
ENDMDL
MODEL 7
REMARK VINA RESULT:      -9.5      3.474      9.113
REMARK  5 active torsions:
REMARK  status: ('A' for Active; 'I' for Inactive)
REMARK    1  A    between atoms: O_2  and  C_3 
REMARK    2  A    between atoms: C_4  and  O_5 
REMARK    3  A    between atoms: C_8  and  C_9 
REMARK    4  A    between atoms: C_13  and  C_14 
REMARK       I    between atoms: C_14  and  N_15 
REMARK    5  A    between atoms: N_15  and  N_16 
ROOT
HETATM    1  C   UNL     1      26.367  44.696  50.975  1.00  0.00     0.069 A 
HETATM    2  N   UNL     1      27.044  44.879  52.130  1.00  0.00    -0.248 NA
HETATM    3  C   UNL     1      27.810  43.892  52.620  1.00  0.00     0.068 A 
HETATM    4  C   UNL     1      27.939  42.629  52.004  1.00  0.00     0.009 A 
HETATM    5  C   UNL     1      27.125  42.417  50.862  1.00  0.00     0.048 A 
HETATM    6  C   UNL     1      26.357  43.467  50.342  1.00  0.00     0.050 A 
HETATM    7  C   UNL     1      28.523  44.161  53.780  1.00  0.00     0.032 A 
HETATM    8  C   UNL     1      29.399  43.233  54.343  1.00  0.00     0.002 A 
HETATM    9  C   UNL     1      29.591  42.012  53.719  1.00  0.00     0.001 A 
HETATM   10  C   UNL     1      28.879  41.716  52.557  1.00  0.00     0.015 A 
ENDROOT
BRANCH   5  11
HETATM   11  C   UNL     1      27.002  41.127  50.118  1.00  0.00     0.271 C 
HETATM   12  N   UNL     1      28.034  40.794  49.263  1.00  0.00    -0.252 N 
HETATM   13  H   UNL     1      28.952  41.213  49.392  1.00  0.00     0.191 HD
HETATM   14  O   UNL     1      26.053  40.385  50.357  1.00  0.00    -0.266 OA
BRANCH  12  15
HETATM   15  N   UNL     1      28.055  39.504  48.744  1.00  0.00    -0.167 N 
HETATM   16  C   UNL     1      28.814  38.513  49.305  1.00  0.00     0.345 C 
HETATM   17  O   UNL     1      29.470  38.575  50.333  1.00  0.00    -0.245 OA
HETATM   18  N   UNL     1      28.783  37.426  48.455  1.00  0.00    -0.323 N 
HETATM   19  C   UNL     1      27.882  37.644  47.333  1.00  0.00     0.117 C 
HETATM   20  H   UNL     1      29.225  36.550  48.708  1.00  0.00     0.165 HD
HETATM   21  C   UNL     1      26.541  36.936  47.581  1.00  0.00     0.041 C 
HETATM   22  C   UNL     1      28.497  37.257  45.990  1.00  0.00     0.041 C 
HETATM   23  C   UNL     1      27.688  39.173  47.460  1.00  0.00     0.275 C 
HETATM   24  C   UNL     1      26.661  35.421  47.412  1.00  0.00     0.003 C 
HETATM   25  C   UNL     1      27.249  35.055  46.053  1.00  0.00     0.000 C 
HETATM   26  C   UNL     1      28.590  35.742  45.810  1.00  0.00     0.003 C 
HETATM   27  O   UNL     1      27.281  39.909  46.572  1.00  0.00    -0.268 OA
ENDBRANCH  12  15
ENDBRANCH   5  11
BRANCH   1  28
HETATM   28  C   UNL     1      25.689  45.892  50.433  1.00  0.00    -0.004 A 
HETATM   29  C   UNL     1      26.422  47.055  50.109  1.00  0.00     0.053 A 
HETATM   30  C   UNL     1      25.811  48.184  49.541  1.00  0.00     0.102 A 
HETATM   31  C   UNL     1      24.439  48.138  49.261  1.00  0.00     0.101 A 
HETATM   32  C   UNL     1      23.687  47.016  49.608  1.00  0.00     0.040 A 
HETATM   33  C   UNL     1      24.307  45.903  50.179  1.00  0.00     0.017 A 
BRANCH  30  34
HETATM   34  O   UNL     1      26.470  49.347  49.237  1.00  0.00    -0.353 OA
HETATM   35  C   UNL     1      27.876  49.275  49.047  1.00  0.00     0.210 C 
ENDBRANCH  30  34
BRANCH  31  36
HETATM   36  O   UNL     1      23.722  49.163  48.695  1.00  0.00    -0.353 OA
HETATM   37  C   UNL     1      22.310  48.990  48.816  1.00  0.00     0.210 C 
ENDBRANCH  31  36
ENDBRANCH   1  28
TORSDOF 5
ENDMDL
MODEL 8
REMARK VINA RESULT:      -9.4      2.987      9.283
REMARK  5 active torsions:
REMARK  status: ('A' for Active; 'I' for Inactive)
REMARK    1  A    between atoms: O_2  and  C_3 
REMARK    2  A    between atoms: C_4  and  O_5 
REMARK    3  A    between atoms: C_8  and  C_9 
REMARK    4  A    between atoms: C_13  and  C_14 
REMARK       I    between atoms: C_14  and  N_15 
REMARK    5  A    between atoms: N_15  and  N_16 
ROOT
HETATM    1  C   UNL     1      24.559  46.863  50.298  1.00  0.00     0.069 A 
HETATM    2  N   UNL     1      24.824  47.284  51.555  1.00  0.00    -0.248 NA
HETATM    3  C   UNL     1      25.674  46.592  52.328  1.00  0.00     0.068 A 
HETATM    4  C   UNL     1      26.311  45.403  51.912  1.00  0.00     0.009 A 
HETATM    5  C   UNL     1      25.925  44.914  50.637  1.00  0.00     0.048 A 
HETATM    6  C   UNL     1      25.063  45.665  49.828  1.00  0.00     0.050 A 
HETATM    7  C   UNL     1      25.946  47.106  53.588  1.00  0.00     0.032 A 
HETATM    8  C   UNL     1      26.862  46.506  54.452  1.00  0.00     0.002 A 
HETATM    9  C   UNL     1      27.547  45.375  54.039  1.00  0.00     0.001 A 
HETATM   10  C   UNL     1      27.285  44.836  52.780  1.00  0.00     0.015 A 
ENDROOT
BRANCH   5  11
HETATM   11  C   UNL     1      26.372  43.619  50.039  1.00  0.00     0.271 C 
HETATM   12  N   UNL     1      25.671  42.487  50.400  1.00  0.00    -0.252 N 
HETATM   13  H   UNL     1      24.724  42.571  50.761  1.00  0.00     0.191 HD
HETATM   14  O   UNL     1      27.268  43.625  49.199  1.00  0.00    -0.266 OA
BRANCH  12  15
HETATM   15  N   UNL     1      25.914  41.319  49.685  1.00  0.00    -0.167 N 
HETATM   16  C   UNL     1      24.988  40.793  48.825  1.00  0.00     0.345 C 
HETATM   17  O   UNL     1      23.919  41.283  48.500  1.00  0.00    -0.245 OA
HETATM   18  N   UNL     1      25.435  39.546  48.435  1.00  0.00    -0.323 N 
HETATM   19  C   UNL     1      26.762  39.261  48.959  1.00  0.00     0.117 C 
HETATM   20  H   UNL     1      24.934  39.003  47.742  1.00  0.00     0.165 HD
HETATM   21  C   UNL     1      27.825  39.499  47.875  1.00  0.00     0.041 C 
HETATM   22  C   UNL     1      26.873  37.869  49.577  1.00  0.00     0.041 C 
HETATM   23  C   UNL     1      26.857  40.375  50.026  1.00  0.00     0.275 C 
HETATM   24  C   UNL     1      27.816  38.392  46.820  1.00  0.00     0.003 C 
HETATM   25  C   UNL     1      27.958  37.012  47.456  1.00  0.00     0.000 C 
HETATM   26  C   UNL     1      26.893  36.765  48.521  1.00  0.00     0.003 C 
HETATM   27  O   UNL     1      27.635  40.385  50.970  1.00  0.00    -0.268 OA
ENDBRANCH  12  15
ENDBRANCH   5  11
BRANCH   1  28
HETATM   28  C   UNL     1      23.745  47.780  49.473  1.00  0.00    -0.004 A 
HETATM   29  C   UNL     1      22.523  47.355  48.910  1.00  0.00     0.053 A 
HETATM   30  C   UNL     1      21.704  48.222  48.169  1.00  0.00     0.102 A 
HETATM   31  C   UNL     1      22.102  49.556  48.015  1.00  0.00     0.101 A 
HETATM   32  C   UNL     1      23.324  49.990  48.528  1.00  0.00     0.040 A 
HETATM   33  C   UNL     1      24.132  49.114  49.256  1.00  0.00     0.017 A 
BRANCH  30  34
HETATM   34  O   UNL     1      20.525  47.851  47.576  1.00  0.00    -0.353 OA
HETATM   35  C   UNL     1      19.525  47.276  48.405  1.00  0.00     0.210 C 
ENDBRANCH  30  34
BRANCH  31  36
HETATM   36  O   UNL     1      21.392  50.510  47.329  1.00  0.00    -0.353 OA
HETATM   37  C   UNL     1      20.512  51.260  48.166  1.00  0.00     0.210 C 
ENDBRANCH  31  36
ENDBRANCH   1  28
TORSDOF 5
ENDMDL
MODEL 9
REMARK VINA RESULT:      -9.4      2.673      4.166
REMARK  5 active torsions:
REMARK  status: ('A' for Active; 'I' for Inactive)
REMARK    1  A    between atoms: O_2  and  C_3 
REMARK    2  A    between atoms: C_4  and  O_5 
REMARK    3  A    between atoms: C_8  and  C_9 
REMARK    4  A    between atoms: C_13  and  C_14 
REMARK       I    between atoms: C_14  and  N_15 
REMARK    5  A    between atoms: N_15  and  N_16 
ROOT
HETATM    1  C   UNL     1      24.665  44.616  50.047  1.00  0.00     0.069 A 
HETATM    2  N   UNL     1      24.770  43.456  49.361  1.00  0.00    -0.248 NA
HETATM    3  C   UNL     1      24.102  43.297  48.208  1.00  0.00     0.068 A 
HETATM    4  C   UNL     1      23.252  44.282  47.661  1.00  0.00     0.009 A 
HETATM    5  C   UNL     1      23.061  45.441  48.457  1.00  0.00     0.048 A 
HETATM    6  C   UNL     1      23.791  45.607  49.641  1.00  0.00     0.050 A 
HETATM    7  C   UNL     1      24.294  42.105  47.525  1.00  0.00     0.032 A 
HETATM    8  C   UNL     1      23.702  41.858  46.286  1.00  0.00     0.002 A 
HETATM    9  C   UNL     1      22.918  42.835  45.699  1.00  0.00     0.001 A 
HETATM   10  C   UNL     1      22.703  44.039  46.371  1.00  0.00     0.015 A 
ENDROOT
BRANCH   5  11
HETATM   11  C   UNL     1      22.120  46.557  48.142  1.00  0.00     0.271 C 
HETATM   12  N   UNL     1      21.038  46.722  48.983  1.00  0.00    -0.252 N 
HETATM   13  H   UNL     1      21.069  46.345  49.927  1.00  0.00     0.191 HD
HETATM   14  O   UNL     1      22.387  47.325  47.221  1.00  0.00    -0.266 OA
BRANCH  12  15
HETATM   15  N   UNL     1      20.286  47.885  48.851  1.00  0.00    -0.167 N 
HETATM   16  C   UNL     1      19.263  47.984  47.948  1.00  0.00     0.345 C 
HETATM   17  O   UNL     1      18.818  47.099  47.235  1.00  0.00    -0.245 OA
HETATM   18  N   UNL     1      18.856  49.303  47.914  1.00  0.00    -0.323 N 
HETATM   19  C   UNL     1      19.549  50.106  48.909  1.00  0.00     0.117 C 
HETATM   20  H   UNL     1      18.059  49.591  47.360  1.00  0.00     0.165 HD
HETATM   21  C   UNL     1      18.655  50.318  50.141  1.00  0.00     0.041 C 
HETATM   22  C   UNL     1      20.077  51.425  48.348  1.00  0.00     0.041 C 
HETATM   23  C   UNL     1      20.695  49.132  49.266  1.00  0.00     0.275 C 
HETATM   24  C   UNL     1      17.535  51.320  49.862  1.00  0.00     0.003 C 
HETATM   25  C   UNL     1      18.085  52.640  49.331  1.00  0.00     0.000 C 
HETATM   26  C   UNL     1      18.959  52.437  48.097  1.00  0.00     0.003 C 
HETATM   27  O   UNL     1      21.743  49.444  49.814  1.00  0.00    -0.268 OA
ENDBRANCH  12  15
ENDBRANCH   5  11
BRANCH   1  28
HETATM   28  C   UNL     1      25.565  44.756  51.211  1.00  0.00    -0.004 A 
HETATM   29  C   UNL     1      25.197  45.551  52.319  1.00  0.00     0.053 A 
HETATM   30  C   UNL     1      26.008  45.656  53.460  1.00  0.00     0.102 A 
HETATM   31  C   UNL     1      27.201  44.922  53.508  1.00  0.00     0.101 A 
HETATM   32  C   UNL     1      27.604  44.161  52.411  1.00  0.00     0.040 A 
HETATM   33  C   UNL     1      26.791  44.072  51.280  1.00  0.00     0.017 A 
BRANCH  30  34
HETATM   34  O   UNL     1      25.714  46.437  54.547  1.00  0.00    -0.353 OA
HETATM   35  C   UNL     1      26.056  47.814  54.479  1.00  0.00     0.210 C 
ENDBRANCH  30  34
BRANCH  31  36
HETATM   36  O   UNL     1      28.077  44.922  54.565  1.00  0.00    -0.353 OA
HETATM   37  C   UNL     1      29.152  43.998  54.400  1.00  0.00     0.210 C 
ENDBRANCH  31  36
ENDBRANCH   1  28
TORSDOF 5
ENDMDL
MODEL 10
REMARK VINA RESULT:      -9.3      3.028      5.814
REMARK  5 active torsions:
REMARK  status: ('A' for Active; 'I' for Inactive)
REMARK    1  A    between atoms: O_2  and  C_3 
REMARK    2  A    between atoms: C_4  and  O_5 
REMARK    3  A    between atoms: C_8  and  C_9 
REMARK    4  A    between atoms: C_13  and  C_14 
REMARK       I    between atoms: C_14  and  N_15 
REMARK    5  A    between atoms: N_15  and  N_16 
ROOT
HETATM    1  C   UNL     1      25.676  46.351  50.473  1.00  0.00     0.069 A 
HETATM    2  N   UNL     1      26.671  47.199  50.127  1.00  0.00    -0.248 NA
HETATM    3  C   UNL     1      26.394  48.299  49.411  1.00  0.00     0.068 A 
HETATM    4  C   UNL     1      25.098  48.626  48.958  1.00  0.00     0.009 A 
HETATM    5  C   UNL     1      24.092  47.662  49.226  1.00  0.00     0.048 A 
HETATM    6  C   UNL     1      24.389  46.536  50.005  1.00  0.00     0.050 A 
HETATM    7  C   UNL     1      27.449  49.157  49.135  1.00  0.00     0.032 A 
HETATM    8  C   UNL     1      27.267  50.361  48.454  1.00  0.00     0.002 A 
HETATM    9  C   UNL     1      25.994  50.733  48.058  1.00  0.00     0.001 A 
HETATM   10  C   UNL     1      24.919  49.883  48.316  1.00  0.00     0.015 A 
ENDROOT
BRANCH   5  11
HETATM   11  C   UNL     1      22.680  47.732  48.744  1.00  0.00     0.271 C 
HETATM   12  N   UNL     1      21.763  48.344  49.574  1.00  0.00    -0.252 N 
HETATM   13  H   UNL     1      22.082  48.997  50.286  1.00  0.00     0.191 HD
HETATM   14  O   UNL     1      22.412  47.332  47.613  1.00  0.00    -0.266 OA
BRANCH  12  15
HETATM   15  N   UNL     1      20.505  48.628  49.052  1.00  0.00    -0.167 N 
HETATM   16  C   UNL     1      19.563  47.653  48.868  1.00  0.00     0.345 C 
HETATM   17  O   UNL     1      19.637  46.481  49.199  1.00  0.00    -0.245 OA
HETATM   18  N   UNL     1      18.517  48.206  48.156  1.00  0.00    -0.323 N 
HETATM   19  C   UNL     1      18.704  49.634  47.946  1.00  0.00     0.117 C 
HETATM   20  H   UNL     1      17.675  47.677  47.966  1.00  0.00     0.165 HD
HETATM   21  C   UNL     1      17.865  50.435  48.955  1.00  0.00     0.041 C 
HETATM   22  C   UNL     1      18.436  50.065  46.506  1.00  0.00     0.041 C 
HETATM   23  C   UNL     1      20.201  49.749  48.314  1.00  0.00     0.275 C 
HETATM   24  C   UNL     1      16.377  50.403  48.606  1.00  0.00     0.003 C 
HETATM   25  C   UNL     1      16.129  50.865  47.173  1.00  0.00     0.000 C 
HETATM   26  C   UNL     1      16.945  50.061  46.166  1.00  0.00     0.003 C 
HETATM   27  O   UNL     1      20.936  50.674  47.998  1.00  0.00    -0.268 OA
ENDBRANCH  12  15
ENDBRANCH   5  11
BRANCH   1  28
HETATM   28  C   UNL     1      26.054  45.264  51.400  1.00  0.00    -0.004 A 
HETATM   29  C   UNL     1      26.222  43.942  50.934  1.00  0.00     0.053 A 
HETATM   30  C   UNL     1      26.634  42.901  51.782  1.00  0.00     0.102 A 
HETATM   31  C   UNL     1      26.918  43.198  53.122  1.00  0.00     0.101 A 
HETATM   32  C   UNL     1      26.722  44.488  53.614  1.00  0.00     0.040 A 
HETATM   33  C   UNL     1      26.304  45.510  52.761  1.00  0.00     0.017 A 
BRANCH  30  34
HETATM   34  O   UNL     1      26.781  41.597  51.388  1.00  0.00    -0.353 OA
HETATM   35  C   UNL     1      27.981  41.246  50.715  1.00  0.00     0.210 C 
ENDBRANCH  30  34
BRANCH  31  36
HETATM   36  O   UNL     1      27.342  42.282  54.053  1.00  0.00    -0.353 OA
HETATM   37  C   UNL     1      28.748  42.336  54.289  1.00  0.00     0.210 C 
ENDBRANCH  31  36
ENDBRANCH   1  28
TORSDOF 5
ENDMDL
