MODEL 1
REMARK VINA RESULT:      -8.1      0.000      0.000
REMARK  4 active torsions:
REMARK  status: ('A' for Active; 'I' for Inactive)
REMARK    1  A    between atoms: C_2  and  C_3 
REMARK    2  A    between atoms: C_5  and  C_6 
REMARK       I    between atoms: C_6  and  N_7 
REMARK    3  A    between atoms: N_7  and  C_8 
REMARK    4  A    between atoms: C_10  and  C_11 
ROOT
HETATM    1  C   UNL     1      26.077  46.123  52.016  1.00  0.00     0.035 A 
HETATM    2  C   UNL     1      26.098  47.193  51.116  1.00  0.00     0.042 A 
HETATM    3  C   UNL     1      25.154  47.287  50.078  1.00  0.00    -0.021 A 
HETATM    4  C   UNL     1      24.196  46.274  49.941  1.00  0.00     0.012 A 
HETATM    5  C   UNL     1      24.172  45.200  50.830  1.00  0.00     0.003 A 
HETATM    6  C   UNL     1      25.105  45.127  51.864  1.00  0.00     0.029 A 
ENDROOT
BRANCH   1   7
HETATM    7  N   UNL     1      26.973  45.982  53.092  1.00  0.00    -0.321 N 
HETATM    8  C   UNL     1      26.843  46.448  54.389  1.00  0.00     0.279 C 
HETATM    9  O   UNL     1      25.914  47.126  54.815  1.00  0.00    -0.265 OA
HETATM   10  H   UNL     1      27.832  45.472  52.916  1.00  0.00     0.169 HD
BRANCH   8  11
HETATM   11  C   UNL     1      27.956  46.052  55.236  1.00  0.00     0.143 A 
HETATM   12  O   UNL     1      28.809  45.065  54.808  1.00  0.00    -0.310 OA
HETATM   13  C   UNL     1      29.730  44.874  55.795  1.00  0.00     0.053 A 
HETATM   14  C   UNL     1      29.493  45.739  56.841  1.00  0.00     0.036 A 
HETATM   15  C   UNL     1      28.351  46.493  56.484  1.00  0.00     0.045 A 
BRANCH  13  16
HETATM   16  C   UNL     1      30.744  43.817  55.559  1.00  0.00     0.060 C 
HETATM   17  C   UNL     1      31.478  43.458  56.842  1.00  0.00     0.012 C 
ENDBRANCH  13  16
ENDBRANCH   8  11
ENDBRANCH   1   7
BRANCH   3  18
HETATM   18  C   UNL     1      25.158  48.413  49.156  1.00  0.00     0.010 A 
HETATM   19  C   UNL     1      24.101  49.055  48.467  1.00  0.00     0.152 A 
HETATM   20  N   UNL     1      24.515  50.084  47.721  1.00  0.00    -0.187 NA
HETATM   21  N   UNL     1      25.842  50.104  47.925  1.00  0.00    -0.289 N 
HETATM   22  H   UNL     1      26.391  50.814  47.453  1.00  0.00     0.188 HD
HETATM   23  C   UNL     1      26.275  49.132  48.778  1.00  0.00     0.123 A 
ENDBRANCH   3  18
TORSDOF 4
ENDMDL
MODEL 2
REMARK VINA RESULT:      -8.0      4.786      8.291
REMARK  4 active torsions:
REMARK  status: ('A' for Active; 'I' for Inactive)
REMARK    1  A    between atoms: C_2  and  C_3 
REMARK    2  A    between atoms: C_5  and  C_6 
REMARK       I    between atoms: C_6  and  N_7 
REMARK    3  A    between atoms: N_7  and  C_8 
REMARK    4  A    between atoms: C_10  and  C_11 
ROOT
HETATM    1  C   UNL     1      28.482  44.005  53.512  1.00  0.00     0.035 A 
HETATM    2  C   UNL     1      29.387  43.937  54.576  1.00  0.00     0.042 A 
HETATM    3  C   UNL     1      29.365  44.891  55.609  1.00  0.00    -0.021 A 
HETATM    4  C   UNL     1      28.431  45.932  55.549  1.00  0.00     0.012 A 
HETATM    5  C   UNL     1      27.528  46.012  54.488  1.00  0.00     0.003 A 
HETATM    6  C   UNL     1      27.552  45.050  53.478  1.00  0.00     0.029 A 
ENDROOT
BRANCH   1   7
HETATM    7  N   UNL     1      28.430  43.070  52.461  1.00  0.00    -0.321 N 
HETATM    8  C   UNL     1      28.071  41.734  52.512  1.00  0.00     0.279 C 
HETATM    9  O   UNL     1      27.773  41.113  53.526  1.00  0.00    -0.265 OA
HETATM   10  H   UNL     1      28.684  43.399  51.536  1.00  0.00     0.169 HD
BRANCH   8  11
HETATM   11  C   UNL     1      28.084  41.105  51.202  1.00  0.00     0.143 A 
HETATM   12  O   UNL     1      28.726  39.902  51.039  1.00  0.00    -0.310 OA
HETATM   13  C   UNL     1      28.612  39.559  49.725  1.00  0.00     0.053 A 
HETATM   14  C   UNL     1      27.888  40.514  49.045  1.00  0.00     0.036 A 
HETATM   15  C   UNL     1      27.552  41.510  49.993  1.00  0.00     0.045 A 
BRANCH  13  16
HETATM   16  C   UNL     1      29.269  38.295  49.311  1.00  0.00     0.060 C 
HETATM   17  C   UNL     1      29.886  37.577  50.501  1.00  0.00     0.012 C 
ENDBRANCH  13  16
ENDBRANCH   8  11
ENDBRANCH   1   7
BRANCH   3  18
HETATM   18  C   UNL     1      30.289  44.807  56.730  1.00  0.00     0.010 A 
HETATM   19  C   UNL     1      31.346  43.904  56.998  1.00  0.00     0.152 A 
HETATM   20  N   UNL     1      31.987  44.176  58.140  1.00  0.00    -0.187 NA
HETATM   21  N   UNL     1      31.341  45.255  58.610  1.00  0.00    -0.289 N 
HETATM   22  H   UNL     1      31.652  45.658  59.487  1.00  0.00     0.188 HD
HETATM   23  C   UNL     1      30.324  45.675  57.803  1.00  0.00     0.123 A 
ENDBRANCH   3  18
TORSDOF 4
ENDMDL
MODEL 3
REMARK VINA RESULT:      -8.0      2.809      8.039
REMARK  4 active torsions:
REMARK  status: ('A' for Active; 'I' for Inactive)
REMARK    1  A    between atoms: C_2  and  C_3 
REMARK    2  A    between atoms: C_5  and  C_6 
REMARK       I    between atoms: C_6  and  N_7 
REMARK    3  A    between atoms: N_7  and  C_8 
REMARK    4  A    between atoms: C_10  and  C_11 
ROOT
HETATM    1  C   UNL     1      28.551  44.117  53.226  1.00  0.00     0.035 A 
HETATM    2  C   UNL     1      28.876  44.672  54.467  1.00  0.00     0.042 A 
HETATM    3  C   UNL     1      29.939  44.163  55.235  1.00  0.00    -0.021 A 
HETATM    4  C   UNL     1      30.662  43.068  54.745  1.00  0.00     0.012 A 
HETATM    5  C   UNL     1      30.340  42.503  53.511  1.00  0.00     0.003 A 
HETATM    6  C   UNL     1      29.293  43.028  52.754  1.00  0.00     0.029 A 
ENDROOT
BRANCH   1   7
HETATM    7  N   UNL     1      27.520  44.595  52.396  1.00  0.00    -0.321 N 
HETATM    8  C   UNL     1      26.154  44.579  52.620  1.00  0.00     0.279 C 
HETATM    9  O   UNL     1      25.596  44.085  53.594  1.00  0.00    -0.265 OA
HETATM   10  H   UNL     1      27.793  45.011  51.511  1.00  0.00     0.169 HD
BRANCH   8  11
HETATM   11  C   UNL     1      25.408  45.220  51.550  1.00  0.00     0.143 A 
HETATM   12  O   UNL     1      25.789  46.465  51.116  1.00  0.00    -0.310 OA
HETATM   13  C   UNL     1      24.912  46.839  50.142  1.00  0.00     0.053 A 
HETATM   14  C   UNL     1      23.984  45.842  49.930  1.00  0.00     0.036 A 
HETATM   15  C   UNL     1      24.300  44.804  50.837  1.00  0.00     0.045 A 
BRANCH  13  16
HETATM   16  C   UNL     1      25.116  48.182  49.546  1.00  0.00     0.060 C 
HETATM   17  C   UNL     1      26.595  48.485  49.361  1.00  0.00     0.012 C 
ENDBRANCH  13  16
ENDBRANCH   8  11
ENDBRANCH   1   7
BRANCH   3  18
HETATM   18  C   UNL     1      30.295  44.756  56.515  1.00  0.00     0.010 A 
HETATM   19  C   UNL     1      29.836  45.932  57.155  1.00  0.00     0.152 A 
HETATM   20  N   UNL     1      30.396  46.126  58.353  1.00  0.00    -0.187 NA
HETATM   21  N   UNL     1      31.221  45.075  58.485  1.00  0.00    -0.289 N 
HETATM   22  H   UNL     1      31.771  44.998  59.334  1.00  0.00     0.188 HD
HETATM   23  C   UNL     1      31.193  44.225  57.419  1.00  0.00     0.123 A 
ENDBRANCH   3  18
TORSDOF 4
ENDMDL
MODEL 4
REMARK VINA RESULT:      -7.9      4.633      7.036
REMARK  4 active torsions:
REMARK  status: ('A' for Active; 'I' for Inactive)
REMARK    1  A    between atoms: C_2  and  C_3 
REMARK    2  A    between atoms: C_5  and  C_6 
REMARK       I    between atoms: C_6  and  N_7 
REMARK    3  A    between atoms: N_7  and  C_8 
REMARK    4  A    between atoms: C_10  and  C_11 
ROOT
HETATM    1  C   UNL     1      28.967  43.182  53.228  1.00  0.00     0.035 A 
HETATM    2  C   UNL     1      28.109  44.278  53.362  1.00  0.00     0.042 A 
HETATM    3  C   UNL     1      28.255  45.187  54.425  1.00  0.00    -0.021 A 
HETATM    4  C   UNL     1      29.267  44.969  55.368  1.00  0.00     0.012 A 
HETATM    5  C   UNL     1      30.124  43.875  55.245  1.00  0.00     0.003 A 
HETATM    6  C   UNL     1      29.976  42.989  54.178  1.00  0.00     0.029 A 
ENDROOT
BRANCH   1   7
HETATM    7  N   UNL     1      28.895  42.250  52.175  1.00  0.00    -0.321 N 
HETATM    8  C   UNL     1      27.786  41.854  51.448  1.00  0.00     0.279 C 
HETATM    9  O   UNL     1      26.635  42.230  51.639  1.00  0.00    -0.265 OA
HETATM   10  H   UNL     1      29.760  41.798  51.897  1.00  0.00     0.169 HD
BRANCH   8  11
HETATM   11  C   UNL     1      28.120  40.909  50.396  1.00  0.00     0.143 A 
HETATM   12  O   UNL     1      28.699  39.709  50.728  1.00  0.00    -0.310 OA
HETATM   13  C   UNL     1      28.931  39.038  49.564  1.00  0.00     0.053 A 
HETATM   14  C   UNL     1      28.491  39.781  48.490  1.00  0.00     0.036 A 
HETATM   15  C   UNL     1      27.974  40.985  49.024  1.00  0.00     0.045 A 
BRANCH  13  16
HETATM   16  C   UNL     1      29.590  37.714  49.683  1.00  0.00     0.060 C 
HETATM   17  C   UNL     1      29.990  37.423  51.121  1.00  0.00     0.012 C 
ENDBRANCH  13  16
ENDBRANCH   8  11
ENDBRANCH   1   7
BRANCH   3  18
HETATM   18  C   UNL     1      27.379  46.342  54.552  1.00  0.00     0.010 A 
HETATM   19  C   UNL     1      26.214  46.709  53.837  1.00  0.00     0.152 A 
HETATM   20  N   UNL     1      25.671  47.850  54.274  1.00  0.00    -0.187 NA
HETATM   21  N   UNL     1      26.489  48.222  55.272  1.00  0.00    -0.289 N 
HETATM   22  H   UNL     1      26.280  49.079  55.772  1.00  0.00     0.188 HD
HETATM   23  C   UNL     1      27.520  47.353  55.482  1.00  0.00     0.123 A 
ENDBRANCH   3  18
TORSDOF 4
ENDMDL
MODEL 5
REMARK VINA RESULT:      -7.8      3.019      8.217
REMARK  4 active torsions:
REMARK  status: ('A' for Active; 'I' for Inactive)
REMARK    1  A    between atoms: C_2  and  C_3 
REMARK    2  A    between atoms: C_5  and  C_6 
REMARK       I    between atoms: C_6  and  N_7 
REMARK    3  A    between atoms: N_7  and  C_8 
REMARK    4  A    between atoms: C_10  and  C_11 
ROOT
HETATM    1  C   UNL     1      26.084  46.432  52.578  1.00  0.00     0.035 A 
HETATM    2  C   UNL     1      26.746  45.212  52.409  1.00  0.00     0.042 A 
HETATM    3  C   UNL     1      27.571  44.687  53.420  1.00  0.00    -0.021 A 
HETATM    4  C   UNL     1      27.740  45.418  54.602  1.00  0.00     0.012 A 
HETATM    5  C   UNL     1      27.089  46.639  54.777  1.00  0.00     0.003 A 
HETATM    6  C   UNL     1      26.262  47.140  53.772  1.00  0.00     0.029 A 
ENDROOT
BRANCH   1   7
HETATM    7  N   UNL     1      25.224  47.000  51.620  1.00  0.00    -0.321 N 
HETATM    8  C   UNL     1      25.536  47.496  50.366  1.00  0.00     0.279 C 
HETATM    9  O   UNL     1      26.662  47.565  49.885  1.00  0.00    -0.265 OA
HETATM   10  H   UNL     1      24.240  47.063  51.861  1.00  0.00     0.169 HD
BRANCH   8  11
HETATM   11  C   UNL     1      24.362  47.951  49.640  1.00  0.00     0.143 A 
HETATM   12  O   UNL     1      24.223  49.287  49.355  1.00  0.00    -0.310 OA
HETATM   13  C   UNL     1      23.034  49.438  48.704  1.00  0.00     0.053 A 
HETATM   14  C   UNL     1      22.418  48.216  48.550  1.00  0.00     0.036 A 
HETATM   15  C   UNL     1      23.269  47.261  49.155  1.00  0.00     0.045 A 
BRANCH  13  16
HETATM   16  C   UNL     1      22.659  50.822  48.324  1.00  0.00     0.060 C 
HETATM   17  C   UNL     1      21.248  51.158  48.782  1.00  0.00     0.012 C 
ENDBRANCH  13  16
ENDBRANCH   8  11
ENDBRANCH   1   7
BRANCH   3  18
HETATM   18  C   UNL     1      28.240  43.405  53.255  1.00  0.00     0.010 A 
HETATM   19  C   UNL     1      27.865  42.102  53.660  1.00  0.00     0.152 A 
HETATM   20  N   UNL     1      28.750  41.168  53.297  1.00  0.00    -0.187 NA
HETATM   21  N   UNL     1      29.700  41.870  52.658  1.00  0.00    -0.289 N 
HETATM   22  H   UNL     1      30.497  41.370  52.281  1.00  0.00     0.188 HD
HETATM   23  C   UNL     1      29.439  43.209  52.601  1.00  0.00     0.123 A 
ENDBRANCH   3  18
TORSDOF 4
ENDMDL
MODEL 6
REMARK VINA RESULT:      -7.6      2.279      3.265
REMARK  4 active torsions:
REMARK  status: ('A' for Active; 'I' for Inactive)
REMARK    1  A    between atoms: C_2  and  C_3 
REMARK    2  A    between atoms: C_5  and  C_6 
REMARK       I    between atoms: C_6  and  N_7 
REMARK    3  A    between atoms: N_7  and  C_8 
REMARK    4  A    between atoms: C_10  and  C_11 
ROOT
HETATM    1  C   UNL     1      25.846  47.617  50.387  1.00  0.00     0.035 A 
HETATM    2  C   UNL     1      24.537  47.901  49.985  1.00  0.00     0.042 A 
HETATM    3  C   UNL     1      24.275  48.850  48.981  1.00  0.00    -0.021 A 
HETATM    4  C   UNL     1      25.351  49.528  48.396  1.00  0.00     0.012 A 
HETATM    5  C   UNL     1      26.660  49.256  48.794  1.00  0.00     0.003 A 
HETATM    6  C   UNL     1      26.905  48.302  49.782  1.00  0.00     0.029 A 
ENDROOT
BRANCH   1   7
HETATM    7  N   UNL     1      26.179  46.661  51.365  1.00  0.00    -0.321 N 
HETATM    8  C   UNL     1      25.993  46.727  52.735  1.00  0.00     0.279 C 
HETATM    9  O   UNL     1      25.531  47.684  53.348  1.00  0.00    -0.265 OA
HETATM   10  H   UNL     1      26.614  45.802  51.043  1.00  0.00     0.169 HD
BRANCH   8  11
HETATM   11  C   UNL     1      26.415  45.513  53.412  1.00  0.00     0.143 A 
HETATM   12  O   UNL     1      27.755  45.273  53.592  1.00  0.00    -0.310 OA
HETATM   13  C   UNL     1      27.868  44.067  54.218  1.00  0.00     0.053 A 
HETATM   14  C   UNL     1      26.620  43.539  54.462  1.00  0.00     0.036 A 
HETATM   15  C   UNL     1      25.686  44.466  53.941  1.00  0.00     0.045 A 
BRANCH  13  16
HETATM   16  C   UNL     1      29.246  43.587  54.485  1.00  0.00     0.060 C 
HETATM   17  C   UNL     1      29.846  42.918  53.259  1.00  0.00     0.012 C 
ENDBRANCH  13  16
ENDBRANCH   8  11
ENDBRANCH   1   7
BRANCH   3  18
HETATM   18  C   UNL     1      22.916  49.128  48.544  1.00  0.00     0.010 A 
HETATM   19  C   UNL     1      22.379  50.211  47.808  1.00  0.00     0.152 A 
HETATM   20  N   UNL     1      21.067  50.090  47.583  1.00  0.00    -0.187 NA
HETATM   21  N   UNL     1      20.755  48.927  48.178  1.00  0.00    -0.289 N 
HETATM   22  H   UNL     1      19.792  48.612  48.143  1.00  0.00     0.188 HD
HETATM   23  C   UNL     1      21.824  48.311  48.761  1.00  0.00     0.123 A 
ENDBRANCH   3  18
TORSDOF 4
ENDMDL
MODEL 7
REMARK VINA RESULT:      -7.5      3.999      7.916
REMARK  4 active torsions:
REMARK  status: ('A' for Active; 'I' for Inactive)
REMARK    1  A    between atoms: C_2  and  C_3 
REMARK    2  A    between atoms: C_5  and  C_6 
REMARK       I    between atoms: C_6  and  N_7 
REMARK    3  A    between atoms: N_7  and  C_8 
REMARK    4  A    between atoms: C_10  and  C_11 
ROOT
HETATM    1  C   UNL     1      27.628  45.027  53.827  1.00  0.00     0.035 A 
HETATM    2  C   UNL     1      28.617  44.617  54.725  1.00  0.00     0.042 A 
HETATM    3  C   UNL     1      29.052  45.461  55.762  1.00  0.00    -0.021 A 
HETATM    4  C   UNL     1      28.491  46.740  55.872  1.00  0.00     0.012 A 
HETATM    5  C   UNL     1      27.508  47.160  54.977  1.00  0.00     0.003 A 
HETATM    6  C   UNL     1      27.076  46.306  53.962  1.00  0.00     0.029 A 
ENDROOT
BRANCH   1   7
HETATM    7  N   UNL     1      27.127  44.223  52.785  1.00  0.00    -0.321 N 
HETATM    8  C   UNL     1      25.823  43.821  52.556  1.00  0.00     0.279 C 
HETATM    9  O   UNL     1      24.862  44.070  53.276  1.00  0.00    -0.265 OA
HETATM   10  H   UNL     1      27.795  43.885  52.100  1.00  0.00     0.169 HD
BRANCH   8  11
HETATM   11  C   UNL     1      25.688  43.039  51.338  1.00  0.00     0.143 A 
HETATM   12  O   UNL     1      26.815  42.567  50.713  1.00  0.00    -0.310 OA
HETATM   13  C   UNL     1      26.407  41.902  49.595  1.00  0.00     0.053 A 
HETATM   14  C   UNL     1      25.033  41.924  49.504  1.00  0.00     0.036 A 
HETATM   15  C   UNL     1      24.571  42.658  50.622  1.00  0.00     0.045 A 
BRANCH  13  16
HETATM   16  C   UNL     1      27.475  41.330  48.738  1.00  0.00     0.060 C 
HETATM   17  C   UNL     1      28.317  40.321  49.504  1.00  0.00     0.012 C 
ENDBRANCH  13  16
ENDBRANCH   8  11
ENDBRANCH   1   7
BRANCH   3  18
HETATM   18  C   UNL     1      30.064  45.026  56.713  1.00  0.00     0.010 A 
HETATM   19  C   UNL     1      31.013  43.978  56.647  1.00  0.00     0.152 A 
HETATM   20  N   UNL     1      31.795  43.914  57.729  1.00  0.00    -0.187 NA
HETATM   21  N   UNL     1      31.348  44.920  58.497  1.00  0.00    -0.289 N 
HETATM   22  H   UNL     1      31.795  45.077  59.393  1.00  0.00     0.188 HD
HETATM   23  C   UNL     1      30.320  45.619  57.933  1.00  0.00     0.123 A 
ENDBRANCH   3  18
TORSDOF 4
ENDMDL
MODEL 8
REMARK VINA RESULT:      -7.5      4.291      8.271
REMARK  4 active torsions:
REMARK  status: ('A' for Active; 'I' for Inactive)
REMARK    1  A    between atoms: C_2  and  C_3 
REMARK    2  A    between atoms: C_5  and  C_6 
REMARK       I    between atoms: C_6  and  N_7 
REMARK    3  A    between atoms: N_7  and  C_8 
REMARK    4  A    between atoms: C_10  and  C_11 
ROOT
HETATM    1  C   UNL     1      27.673  44.636  53.879  1.00  0.00     0.035 A 
HETATM    2  C   UNL     1      28.653  44.374  54.840  1.00  0.00     0.042 A 
HETATM    3  C   UNL     1      29.071  45.369  55.742  1.00  0.00    -0.021 A 
HETATM    4  C   UNL     1      28.501  46.645  55.651  1.00  0.00     0.012 A 
HETATM    5  C   UNL     1      27.526  46.918  54.691  1.00  0.00     0.003 A 
HETATM    6  C   UNL     1      27.112  45.917  53.813  1.00  0.00     0.029 A 
ENDROOT
BRANCH   1   7
HETATM    7  N   UNL     1      27.190  43.680  52.965  1.00  0.00    -0.321 N 
HETATM    8  C   UNL     1      27.384  43.620  51.596  1.00  0.00     0.279 C 
HETATM    9  O   UNL     1      27.992  44.447  50.924  1.00  0.00    -0.265 OA
HETATM   10  H   UNL     1      26.624  42.926  53.340  1.00  0.00     0.169 HD
BRANCH   8  11
HETATM   11  C   UNL     1      26.772  42.445  50.999  1.00  0.00     0.143 A 
HETATM   12  O   UNL     1      25.779  42.604  50.065  1.00  0.00    -0.310 OA
HETATM   13  C   UNL     1      25.368  41.357  49.698  1.00  0.00     0.053 A 
HETATM   14  C   UNL     1      26.098  40.399  50.368  1.00  0.00     0.036 A 
HETATM   15  C   UNL     1      26.998  41.098  51.206  1.00  0.00     0.045 A 
BRANCH  13  16
HETATM   16  C   UNL     1      24.264  41.287  48.710  1.00  0.00     0.060 C 
HETATM   17  C   UNL     1      23.124  42.221  49.088  1.00  0.00     0.012 C 
ENDBRANCH  13  16
ENDBRANCH   8  11
ENDBRANCH   1   7
BRANCH   3  18
HETATM   18  C   UNL     1      30.073  45.090  56.760  1.00  0.00     0.010 A 
HETATM   19  C   UNL     1      31.062  44.081  56.839  1.00  0.00     0.152 A 
HETATM   20  N   UNL     1      31.817  44.176  57.938  1.00  0.00    -0.187 NA
HETATM   21  N   UNL     1      31.313  45.248  58.571  1.00  0.00    -0.289 N 
HETATM   22  H   UNL     1      31.730  45.527  59.451  1.00  0.00     0.188 HD
HETATM   23  C   UNL     1      30.275  45.833  57.906  1.00  0.00     0.123 A 
ENDBRANCH   3  18
TORSDOF 4
ENDMDL
MODEL 9
REMARK VINA RESULT:      -7.4      2.774      7.788
REMARK  4 active torsions:
REMARK  status: ('A' for Active; 'I' for Inactive)
REMARK    1  A    between atoms: C_2  and  C_3 
REMARK    2  A    between atoms: C_5  and  C_6 
REMARK       I    between atoms: C_6  and  N_7 
REMARK    3  A    between atoms: N_7  and  C_8 
REMARK    4  A    between atoms: C_10  and  C_11 
ROOT
HETATM    1  C   UNL     1      26.213  46.551  53.412  1.00  0.00     0.035 A 
HETATM    2  C   UNL     1      27.255  45.670  53.716  1.00  0.00     0.042 A 
HETATM    3  C   UNL     1      28.066  45.867  54.848  1.00  0.00    -0.021 A 
HETATM    4  C   UNL     1      27.828  46.980  55.664  1.00  0.00     0.012 A 
HETATM    5  C   UNL     1      26.795  47.869  55.365  1.00  0.00     0.003 A 
HETATM    6  C   UNL     1      25.989  47.652  54.246  1.00  0.00     0.029 A 
ENDROOT
BRANCH   1   7
HETATM    7  N   UNL     1      25.348  46.398  52.312  1.00  0.00    -0.321 N 
HETATM    8  C   UNL     1      25.382  47.046  51.090  1.00  0.00     0.279 C 
HETATM    9  O   UNL     1      26.174  47.927  50.770  1.00  0.00    -0.265 OA
HETATM   10  H   UNL     1      24.593  45.726  52.408  1.00  0.00     0.169 HD
BRANCH   8  11
HETATM   11  C   UNL     1      24.350  46.576  50.182  1.00  0.00     0.143 A 
HETATM   12  O   UNL     1      24.007  45.246  50.183  1.00  0.00    -0.310 OA
HETATM   13  C   UNL     1      23.049  45.076  49.227  1.00  0.00     0.053 A 
HETATM   14  C   UNL     1      22.757  46.281  48.627  1.00  0.00     0.036 A 
HETATM   15  C   UNL     1      23.595  47.244  49.238  1.00  0.00     0.045 A 
BRANCH  13  16
HETATM   16  C   UNL     1      22.550  43.693  49.029  1.00  0.00     0.060 C 
HETATM   17  C   UNL     1      23.332  42.697  49.872  1.00  0.00     0.012 C 
ENDBRANCH  13  16
ENDBRANCH   8  11
ENDBRANCH   1   7
BRANCH   3  18
HETATM   18  C   UNL     1      29.135  44.937  55.180  1.00  0.00     0.010 A 
HETATM   19  C   UNL     1      29.451  43.660  54.659  1.00  0.00     0.152 A 
HETATM   20  N   UNL     1      30.541  43.124  55.217  1.00  0.00    -0.187 NA
HETATM   21  N   UNL     1      30.928  44.057  56.103  1.00  0.00    -0.289 N 
HETATM   22  H   UNL     1      31.753  43.875  56.663  1.00  0.00     0.188 HD
HETATM   23  C   UNL     1      30.125  45.160  56.115  1.00  0.00     0.123 A 
ENDBRANCH   3  18
TORSDOF 4
ENDMDL
MODEL 10
REMARK VINA RESULT:      -7.4      3.603      8.300
REMARK  4 active torsions:
REMARK  status: ('A' for Active; 'I' for Inactive)
REMARK    1  A    between atoms: C_2  and  C_3 
REMARK    2  A    between atoms: C_5  and  C_6 
REMARK       I    between atoms: C_6  and  N_7 
REMARK    3  A    between atoms: N_7  and  C_8 
REMARK    4  A    between atoms: C_10  and  C_11 
ROOT
HETATM    1  C   UNL     1      27.349  45.360  53.777  1.00  0.00     0.035 A 
HETATM    2  C   UNL     1      28.361  44.712  54.491  1.00  0.00     0.042 A 
HETATM    3  C   UNL     1      29.089  45.384  55.489  1.00  0.00    -0.021 A 
HETATM    4  C   UNL     1      28.798  46.729  55.748  1.00  0.00     0.012 A 
HETATM    5  C   UNL     1      27.794  47.385  55.036  1.00  0.00     0.003 A 
HETATM    6  C   UNL     1      27.070  46.702  54.059  1.00  0.00     0.029 A 
ENDROOT
BRANCH   1   7
HETATM    7  N   UNL     1      26.564  44.740  52.785  1.00  0.00    -0.321 N 
HETATM    8  C   UNL     1      25.301  44.187  52.905  1.00  0.00     0.279 C 
HETATM    9  O   UNL     1      24.655  44.101  53.944  1.00  0.00    -0.265 OA
HETATM   10  H   UNL     1      26.958  44.683  51.852  1.00  0.00     0.169 HD
BRANCH   8  11
HETATM   11  C   UNL     1      24.790  43.690  51.639  1.00  0.00     0.143 A 
HETATM   12  O   UNL     1      23.700  44.299  51.067  1.00  0.00    -0.310 OA
HETATM   13  C   UNL     1      23.417  43.622  49.918  1.00  0.00     0.053 A 
HETATM   14  C   UNL     1      24.322  42.600  49.733  1.00  0.00     0.036 A 
HETATM   15  C   UNL     1      25.202  42.641  50.841  1.00  0.00     0.045 A 
BRANCH  13  16
HETATM   16  C   UNL     1      22.243  44.094  49.145  1.00  0.00     0.060 C 
HETATM   17  C   UNL     1      22.653  44.600  47.770  1.00  0.00     0.012 C 
ENDBRANCH  13  16
ENDBRANCH   8  11
ENDBRANCH   1   7
BRANCH   3  18
HETATM   18  C   UNL     1      30.126  44.705  56.251  1.00  0.00     0.010 A 
HETATM   19  C   UNL     1      30.911  43.568  55.944  1.00  0.00     0.152 A 
HETATM   20  N   UNL     1      31.786  43.263  56.908  1.00  0.00    -0.187 NA
HETATM   21  N   UNL     1      31.563  44.202  57.840  1.00  0.00    -0.289 N 
HETATM   22  H   UNL     1      32.118  44.181  58.688  1.00  0.00     0.188 HD
HETATM   23  C   UNL     1      30.587  45.090  57.494  1.00  0.00     0.123 A 
ENDBRANCH   3  18
TORSDOF 4
ENDMDL
