MODEL 1
REMARK VINA RESULT:      -8.8      0.000      0.000
REMARK  7 active torsions:
REMARK  status: ('A' for Active; 'I' for Inactive)
REMARK    1  A    between atoms: C_2  and  C_3 
REMARK    2  A    between atoms: C_3  and  C_4 
REMARK    3  A    between atoms: C_7  and  C_8 
REMARK    4  A    between atoms: C_14  and  C_15 
REMARK    5  A    between atoms: C_18  and  O_19 
REMARK    6  A    between atoms: O_19  and  C_20 
REMARK       I    between atoms: C_20  and  N_21 
REMARK    7  A    between atoms: C_33  and  N_34 
ROOT
HETATM    1  C   UNL     1      24.613  49.437  48.814  1.00  0.00     0.099 A 
HETATM    2  N   UNL     1      25.694  50.050  48.289  1.00  0.00    -0.172 NA
HETATM    3  N   UNL     1      26.701  49.173  48.444  1.00  0.00    -0.256 N 
HETATM    4  H   UNL     1      27.628  49.432  48.128  1.00  0.00     0.191 HD
HETATM    5  C   UNL     1      26.303  48.016  49.022  1.00  0.00     0.175 A 
HETATM    6  C   UNL     1      24.960  48.135  49.279  1.00  0.00     0.040 A 
HETATM    7  C   UNL     1      24.237  46.997  49.918  1.00  0.00     0.106 A 
HETATM    8  C   UNL     1      25.201  45.852  50.239  1.00  0.00     0.081 A 
HETATM    9  C   UNL     1      24.662  44.743  50.956  1.00  0.00     0.100 C 
HETATM   10  N   UNL     1      24.231  43.843  51.547  1.00  0.00    -0.191 NA
HETATM   11  C   UNL     1      26.525  45.888  49.923  1.00  0.00     0.140 A 
HETATM   12  O   UNL     1      27.104  46.987  49.269  1.00  0.00    -0.279 OA
ENDROOT
BRANCH   7  13
HETATM   13  C   UNL     1      23.121  46.580  48.968  1.00  0.00    -0.044 A 
HETATM   14  C   UNL     1      23.297  45.605  47.969  1.00  0.00     0.011 A 
HETATM   15  C   UNL     1      22.241  45.246  47.127  1.00  0.00     0.038 A 
HETATM   16  C   UNL     1      20.993  45.837  47.301  1.00  0.00     0.081 A 
HETATM   17  C   UNL     1      20.789  46.800  48.285  1.00  0.00     0.038 A 
HETATM   18  C   UNL     1      21.845  47.158  49.122  1.00  0.00     0.011 A 
BRANCH  16  19
HETATM   19  O   UNL     1      19.987  45.504  46.382  1.00  0.00    -0.261 OA
BRANCH  19  20
HETATM   20  C   UNL     1      18.661  45.670  46.777  1.00  0.00     0.368 C 
HETATM   21  N   UNL     1      18.114  46.850  46.296  1.00  0.00    -0.324 N 
HETATM   22  C   UNL     1      16.678  47.075  46.446  1.00  0.00     0.154 C 
HETATM   23  C   UNL     1      18.770  47.673  45.280  1.00  0.00     0.154 C 
HETATM   24  C   UNL     1      16.350  48.568  46.509  1.00  0.00     0.187 C 
HETATM   25  O   UNL     1      16.917  49.271  45.392  1.00  0.00    -0.388 OA
HETATM   26  C   UNL     1      18.346  49.140  45.393  1.00  0.00     0.187 C 
HETATM   27  O   UNL     1      18.039  44.876  47.476  1.00  0.00    -0.238 OA
ENDBRANCH  19  20
ENDBRANCH  16  19
ENDBRANCH   7  13
BRANCH  11  28
HETATM   28  N   UNL     1      27.439  44.895  50.196  1.00  0.00    -0.282 NA
HETATM   29  H   UNL     1      27.400  44.082  49.586  1.00  0.00     0.126 HD
HETATM   30  H   UNL     1      28.381  45.261  50.311  1.00  0.00     0.126 HD
ENDBRANCH  11  28
BRANCH   1  31
HETATM   31  C   UNL     1      23.311  50.110  48.807  1.00  0.00    -0.005 A 
HETATM   32  C   UNL     1      22.609  50.246  47.602  1.00  0.00     0.014 A 
HETATM   33  C   UNL     1      21.358  50.869  47.566  1.00  0.00     0.008 A 
HETATM   34  C   UNL     1      20.782  51.366  48.740  1.00  0.00    -0.058 A 
HETATM   35  C   UNL     1      21.487  51.245  49.943  1.00  0.00     0.008 A 
HETATM   36  C   UNL     1      22.745  50.631  49.975  1.00  0.00     0.014 A 
BRANCH  34  37
HETATM   37  C   UNL     1      19.419  52.015  48.706  1.00  0.00     0.042 C 
BRANCH  37  38
HETATM   38  C   UNL     1      18.453  51.484  49.784  1.00  0.00    -0.019 C 
HETATM   39  C   UNL     1      18.063  50.024  49.543  1.00  0.00     0.010 C 
HETATM   40  C   UNL     1      17.192  52.352  49.817  1.00  0.00     0.010 C 
ENDBRANCH  37  38
ENDBRANCH  34  37
ENDBRANCH   1  31
TORSDOF 7
ENDMDL
MODEL 2
REMARK VINA RESULT:      -8.4      1.897      2.696
REMARK  7 active torsions:
REMARK  status: ('A' for Active; 'I' for Inactive)
REMARK    1  A    between atoms: C_2  and  C_3 
REMARK    2  A    between atoms: C_3  and  C_4 
REMARK    3  A    between atoms: C_7  and  C_8 
REMARK    4  A    between atoms: C_14  and  C_15 
REMARK    5  A    between atoms: C_18  and  O_19 
REMARK    6  A    between atoms: O_19  and  C_20 
REMARK       I    between atoms: C_20  and  N_21 
REMARK    7  A    between atoms: C_33  and  N_34 
ROOT
HETATM    1  C   UNL     1      24.299  49.578  48.862  1.00  0.00     0.099 A 
HETATM    2  N   UNL     1      25.374  50.240  48.385  1.00  0.00    -0.172 NA
HETATM    3  N   UNL     1      26.396  49.375  48.500  1.00  0.00    -0.256 N 
HETATM    4  H   UNL     1      27.321  49.670  48.210  1.00  0.00     0.191 HD
HETATM    5  C   UNL     1      26.015  48.179  49.005  1.00  0.00     0.175 A 
HETATM    6  C   UNL     1      24.668  48.258  49.254  1.00  0.00     0.040 A 
HETATM    7  C   UNL     1      23.961  47.071  49.818  1.00  0.00     0.106 A 
HETATM    8  C   UNL     1      24.944  45.927  50.083  1.00  0.00     0.081 A 
HETATM    9  C   UNL     1      24.420  44.769  50.728  1.00  0.00     0.100 C 
HETATM   10  N   UNL     1      24.000  43.828  51.260  1.00  0.00    -0.191 NA
HETATM   11  C   UNL     1      26.270  46.007  49.783  1.00  0.00     0.140 A 
HETATM   12  O   UNL     1      26.834  47.153  49.201  1.00  0.00    -0.279 OA
ENDROOT
BRANCH   7  13
HETATM   13  C   UNL     1      22.862  46.689  48.834  1.00  0.00    -0.044 A 
HETATM   14  C   UNL     1      21.539  47.154  48.952  1.00  0.00     0.011 A 
HETATM   15  C   UNL     1      20.566  46.787  48.019  1.00  0.00     0.038 A 
HETATM   16  C   UNL     1      20.919  45.979  46.942  1.00  0.00     0.081 A 
HETATM   17  C   UNL     1      22.221  45.509  46.797  1.00  0.00     0.038 A 
HETATM   18  C   UNL     1      23.189  45.875  47.731  1.00  0.00     0.011 A 
BRANCH  16  19
HETATM   19  O   UNL     1      19.892  45.572  46.077  1.00  0.00    -0.261 OA
BRANCH  19  20
HETATM   20  C   UNL     1      19.505  44.233  46.110  1.00  0.00     0.368 C 
HETATM   21  N   UNL     1      19.633  43.619  44.873  1.00  0.00    -0.324 N 
HETATM   22  C   UNL     1      19.467  42.170  44.784  1.00  0.00     0.154 C 
HETATM   23  C   UNL     1      20.344  44.233  43.752  1.00  0.00     0.154 C 
HETATM   24  C   UNL     1      18.977  41.748  43.397  1.00  0.00     0.187 C 
HETATM   25  O   UNL     1      19.822  42.283  42.366  1.00  0.00    -0.388 OA
HETATM   26  C   UNL     1      19.817  43.717  42.409  1.00  0.00     0.187 C 
HETATM   27  O   UNL     1      19.088  43.654  47.108  1.00  0.00    -0.238 OA
ENDBRANCH  19  20
ENDBRANCH  16  19
ENDBRANCH   7  13
BRANCH  11  28
HETATM   28  N   UNL     1      27.201  45.017  50.009  1.00  0.00    -0.282 NA
HETATM   29  H   UNL     1      27.570  44.970  50.955  1.00  0.00     0.126 HD
HETATM   30  H   UNL     1      26.893  44.114  49.657  1.00  0.00     0.126 HD
ENDBRANCH  11  28
BRANCH   1  31
HETATM   31  C   UNL     1      22.985  50.225  48.880  1.00  0.00    -0.005 A 
HETATM   32  C   UNL     1      22.285  50.403  47.679  1.00  0.00     0.014 A 
HETATM   33  C   UNL     1      21.022  51.002  47.666  1.00  0.00     0.008 A 
HETATM   34  C   UNL     1      20.433  51.434  48.858  1.00  0.00    -0.058 A 
HETATM   35  C   UNL     1      21.135  51.272  50.059  1.00  0.00     0.008 A 
HETATM   36  C   UNL     1      22.405  50.682  50.068  1.00  0.00     0.014 A 
BRANCH  34  37
HETATM   37  C   UNL     1      19.057  52.057  48.849  1.00  0.00     0.042 C 
BRANCH  37  38
HETATM   38  C   UNL     1      18.048  51.347  49.772  1.00  0.00    -0.019 C 
HETATM   39  C   UNL     1      17.728  49.927  49.297  1.00  0.00     0.010 C 
HETATM   40  C   UNL     1      16.756  52.165  49.848  1.00  0.00     0.010 C 
ENDBRANCH  37  38
ENDBRANCH  34  37
ENDBRANCH   1  31
TORSDOF 7
ENDMDL
MODEL 3
REMARK VINA RESULT:      -8.4      4.326      8.102
REMARK  7 active torsions:
REMARK  status: ('A' for Active; 'I' for Inactive)
REMARK    1  A    between atoms: C_2  and  C_3 
REMARK    2  A    between atoms: C_3  and  C_4 
REMARK    3  A    between atoms: C_7  and  C_8 
REMARK    4  A    between atoms: C_14  and  C_15 
REMARK    5  A    between atoms: C_18  and  O_19 
REMARK    6  A    between atoms: O_19  and  C_20 
REMARK       I    between atoms: C_20  and  N_21 
REMARK    7  A    between atoms: C_33  and  N_34 
ROOT
HETATM    1  C   UNL     1      26.849  41.580  48.476  1.00  0.00     0.099 A 
HETATM    2  N   UNL     1      27.931  41.454  47.678  1.00  0.00    -0.172 NA
HETATM    3  N   UNL     1      27.470  40.876  46.556  1.00  0.00    -0.256 N 
HETATM    4  H   UNL     1      28.124  40.670  45.809  1.00  0.00     0.191 HD
HETATM    5  C   UNL     1      26.136  40.652  46.591  1.00  0.00     0.175 A 
HETATM    6  C   UNL     1      25.687  41.092  47.811  1.00  0.00     0.040 A 
HETATM    7  C   UNL     1      24.236  40.975  48.138  1.00  0.00     0.106 A 
HETATM    8  C   UNL     1      23.474  40.293  46.997  1.00  0.00     0.081 A 
HETATM    9  C   UNL     1      22.095  40.016  47.225  1.00  0.00     0.100 C 
HETATM   10  N   UNL     1      20.974  39.781  47.408  1.00  0.00    -0.191 NA
HETATM   11  C   UNL     1      24.072  39.905  45.838  1.00  0.00     0.140 A 
HETATM   12  O   UNL     1      25.441  40.107  45.601  1.00  0.00    -0.279 OA
ENDROOT
BRANCH   7  13
HETATM   13  C   UNL     1      23.724  42.381  48.431  1.00  0.00    -0.044 A 
HETATM   14  C   UNL     1      23.364  42.806  49.724  1.00  0.00     0.011 A 
HETATM   15  C   UNL     1      22.910  44.108  49.948  1.00  0.00     0.038 A 
HETATM   16  C   UNL     1      22.846  45.004  48.885  1.00  0.00     0.081 A 
HETATM   17  C   UNL     1      23.201  44.613  47.597  1.00  0.00     0.038 A 
HETATM   18  C   UNL     1      23.651  43.312  47.376  1.00  0.00     0.011 A 
BRANCH  16  19
HETATM   19  O   UNL     1      22.309  46.274  49.144  1.00  0.00    -0.261 OA
BRANCH  19  20
HETATM   20  C   UNL     1      23.191  47.351  49.224  1.00  0.00     0.368 C 
HETATM   21  N   UNL     1      22.565  48.562  48.969  1.00  0.00    -0.324 N 
HETATM   22  C   UNL     1      23.298  49.801  49.215  1.00  0.00     0.154 C 
HETATM   23  C   UNL     1      21.111  48.704  48.895  1.00  0.00     0.154 C 
HETATM   24  C   UNL     1      22.802  50.933  48.313  1.00  0.00     0.187 C 
HETATM   25  O   UNL     1      21.378  51.091  48.416  1.00  0.00    -0.388 OA
HETATM   26  C   UNL     1      20.711  49.887  48.008  1.00  0.00     0.187 C 
HETATM   27  O   UNL     1      24.387  47.253  49.482  1.00  0.00    -0.238 OA
ENDBRANCH  19  20
ENDBRANCH  16  19
ENDBRANCH   7  13
BRANCH  11  28
HETATM   28  N   UNL     1      23.442  39.278  44.785  1.00  0.00    -0.282 NA
HETATM   29  H   UNL     1      22.620  39.754  44.419  1.00  0.00     0.126 HD
HETATM   30  H   UNL     1      24.096  38.998  44.059  1.00  0.00     0.126 HD
ENDBRANCH  11  28
BRANCH   1  31
HETATM   31  C   UNL     1      26.981  42.191  49.801  1.00  0.00    -0.005 A 
HETATM   32  C   UNL     1      27.099  41.371  50.932  1.00  0.00     0.014 A 
HETATM   33  C   UNL     1      27.243  41.924  52.207  1.00  0.00     0.008 A 
HETATM   34  C   UNL     1      27.273  43.312  52.377  1.00  0.00    -0.058 A 
HETATM   35  C   UNL     1      27.141  44.134  51.251  1.00  0.00     0.008 A 
HETATM   36  C   UNL     1      26.985  43.578  49.976  1.00  0.00     0.014 A 
BRANCH  34  37
HETATM   37  C   UNL     1      27.455  43.910  53.751  1.00  0.00     0.042 C 
BRANCH  37  38
HETATM   38  C   UNL     1      28.904  44.344  54.053  1.00  0.00    -0.019 C 
HETATM   39  C   UNL     1      29.785  43.165  54.473  1.00  0.00     0.010 C 
HETATM   40  C   UNL     1      28.904  45.404  55.157  1.00  0.00     0.010 C 
ENDBRANCH  37  38
ENDBRANCH  34  37
ENDBRANCH   1  31
TORSDOF 7
ENDMDL
MODEL 4
REMARK VINA RESULT:      -8.2      2.483      7.401
REMARK  7 active torsions:
REMARK  status: ('A' for Active; 'I' for Inactive)
REMARK    1  A    between atoms: C_2  and  C_3 
REMARK    2  A    between atoms: C_3  and  C_4 
REMARK    3  A    between atoms: C_7  and  C_8 
REMARK    4  A    between atoms: C_14  and  C_15 
REMARK    5  A    between atoms: C_18  and  O_19 
REMARK    6  A    between atoms: O_19  and  C_20 
REMARK       I    between atoms: C_20  and  N_21 
REMARK    7  A    between atoms: C_33  and  N_34 
ROOT
HETATM    1  C   UNL     1      20.038  49.970  49.044  1.00  0.00     0.099 A 
HETATM    2  N   UNL     1      19.576  50.651  50.114  1.00  0.00    -0.172 NA
HETATM    3  N   UNL     1      18.239  50.540  50.046  1.00  0.00    -0.256 N 
HETATM    4  H   UNL     1      17.674  50.994  50.754  1.00  0.00     0.191 HD
HETATM    5  C   UNL     1      17.827  49.795  48.994  1.00  0.00     0.175 A 
HETATM    6  C   UNL     1      18.954  49.402  48.315  1.00  0.00     0.040 A 
HETATM    7  C   UNL     1      18.810  48.554  47.095  1.00  0.00     0.106 A 
HETATM    8  C   UNL     1      17.332  48.309  46.775  1.00  0.00     0.081 A 
HETATM    9  C   UNL     1      17.048  47.606  45.567  1.00  0.00     0.100 C 
HETATM   10  N   UNL     1      16.811  47.041  44.582  1.00  0.00    -0.191 NA
HETATM   11  C   UNL     1      16.319  48.778  47.552  1.00  0.00     0.140 A 
HETATM   12  O   UNL     1      16.558  49.525  48.717  1.00  0.00    -0.279 OA
ENDROOT
BRANCH   7  13
HETATM   13  C   UNL     1      19.581  47.264  47.348  1.00  0.00    -0.044 A 
HETATM   14  C   UNL     1      20.650  46.844  46.533  1.00  0.00     0.011 A 
HETATM   15  C   UNL     1      21.336  45.659  46.808  1.00  0.00     0.038 A 
HETATM   16  C   UNL     1      20.979  44.903  47.921  1.00  0.00     0.081 A 
HETATM   17  C   UNL     1      19.931  45.296  48.747  1.00  0.00     0.038 A 
HETATM   18  C   UNL     1      19.246  46.479  48.468  1.00  0.00     0.011 A 
BRANCH  16  19
HETATM   19  O   UNL     1      21.643  43.682  48.111  1.00  0.00    -0.261 OA
BRANCH  19  20
HETATM   20  C   UNL     1      22.992  43.613  47.765  1.00  0.00     0.368 C 
HETATM   21  N   UNL     1      23.823  43.715  48.871  1.00  0.00    -0.324 N 
HETATM   22  C   UNL     1      25.251  43.454  48.707  1.00  0.00     0.154 C 
HETATM   23  C   UNL     1      23.329  43.631  50.246  1.00  0.00     0.154 C 
HETATM   24  C   UNL     1      26.081  44.218  49.741  1.00  0.00     0.187 C 
HETATM   25  O   UNL     1      25.610  43.960  51.074  1.00  0.00    -0.388 OA
HETATM   26  C   UNL     1      24.247  44.385  51.213  1.00  0.00     0.187 C 
HETATM   27  O   UNL     1      23.411  43.484  46.619  1.00  0.00    -0.238 OA
ENDBRANCH  19  20
ENDBRANCH  16  19
ENDBRANCH   7  13
BRANCH  11  28
HETATM   28  N   UNL     1      14.975  48.599  47.307  1.00  0.00    -0.282 NA
HETATM   29  H   UNL     1      14.391  48.480  48.132  1.00  0.00     0.126 HD
HETATM   30  H   UNL     1      14.608  49.289  46.657  1.00  0.00     0.126 HD
ENDBRANCH  11  28
BRANCH   1  31
HETATM   31  C   UNL     1      21.480  49.871  48.802  1.00  0.00    -0.005 A 
HETATM   32  C   UNL     1      22.165  48.705  49.169  1.00  0.00     0.014 A 
HETATM   33  C   UNL     1      23.537  48.574  48.937  1.00  0.00     0.008 A 
HETATM   34  C   UNL     1      24.252  49.610  48.329  1.00  0.00    -0.058 A 
HETATM   35  C   UNL     1      23.575  50.783  47.974  1.00  0.00     0.008 A 
HETATM   36  C   UNL     1      22.203  50.916  48.218  1.00  0.00     0.014 A 
BRANCH  34  37
HETATM   37  C   UNL     1      25.729  49.460  48.053  1.00  0.00     0.042 C 
BRANCH  37  38
HETATM   38  C   UNL     1      26.575  49.211  49.318  1.00  0.00    -0.019 C 
HETATM   39  C   UNL     1      28.025  49.666  49.144  1.00  0.00     0.010 C 
HETATM   40  C   UNL     1      26.544  47.721  49.673  1.00  0.00     0.010 C 
ENDBRANCH  37  38
ENDBRANCH  34  37
ENDBRANCH   1  31
TORSDOF 7
ENDMDL
MODEL 5
REMARK VINA RESULT:      -8.2      3.906      7.339
REMARK  7 active torsions:
REMARK  status: ('A' for Active; 'I' for Inactive)
REMARK    1  A    between atoms: C_2  and  C_3 
REMARK    2  A    between atoms: C_3  and  C_4 
REMARK    3  A    between atoms: C_7  and  C_8 
REMARK    4  A    between atoms: C_14  and  C_15 
REMARK    5  A    between atoms: C_18  and  O_19 
REMARK    6  A    between atoms: O_19  and  C_20 
REMARK       I    between atoms: C_20  and  N_21 
REMARK    7  A    between atoms: C_33  and  N_34 
ROOT
HETATM    1  C   UNL     1      18.844  48.537  46.041  1.00  0.00     0.099 A 
HETATM    2  N   UNL     1      18.606  47.222  45.850  1.00  0.00    -0.172 NA
HETATM    3  N   UNL     1      19.487  46.590  46.644  1.00  0.00    -0.256 N 
HETATM    4  H   UNL     1      19.499  45.577  46.651  1.00  0.00     0.191 HD
HETATM    5  C   UNL     1      20.259  47.445  47.354  1.00  0.00     0.175 A 
HETATM    6  C   UNL     1      19.881  48.716  47.001  1.00  0.00     0.040 A 
HETATM    7  C   UNL     1      20.566  49.881  47.635  1.00  0.00     0.106 A 
HETATM    8  C   UNL     1      21.672  49.412  48.584  1.00  0.00     0.081 A 
HETATM    9  C   UNL     1      22.483  50.426  49.173  1.00  0.00     0.100 C 
HETATM   10  N   UNL     1      23.151  51.247  49.648  1.00  0.00    -0.191 NA
HETATM   11  C   UNL     1      21.931  48.098  48.826  1.00  0.00     0.140 A 
HETATM   12  O   UNL     1      21.193  47.069  48.219  1.00  0.00    -0.279 OA
ENDROOT
BRANCH   7  13
HETATM   13  C   UNL     1      19.495  50.706  48.339  1.00  0.00    -0.044 A 
HETATM   14  C   UNL     1      19.272  52.066  48.053  1.00  0.00     0.011 A 
HETATM   15  C   UNL     1      18.271  52.781  48.716  1.00  0.00     0.038 A 
HETATM   16  C   UNL     1      17.463  52.130  49.645  1.00  0.00     0.081 A 
HETATM   17  C   UNL     1      17.658  50.785  49.943  1.00  0.00     0.038 A 
HETATM   18  C   UNL     1      18.660  50.075  49.281  1.00  0.00     0.011 A 
BRANCH  16  19
HETATM   19  O   UNL     1      16.527  52.908  50.342  1.00  0.00    -0.261 OA
BRANCH  19  20
HETATM   20  C   UNL     1      15.330  53.218  49.698  1.00  0.00     0.368 C 
HETATM   21  N   UNL     1      14.582  54.151  50.402  1.00  0.00    -0.324 N 
HETATM   22  C   UNL     1      13.404  54.736  49.766  1.00  0.00     0.154 C 
HETATM   23  C   UNL     1      15.118  54.907  51.534  1.00  0.00     0.154 C 
HETATM   24  C   UNL     1      12.368  55.172  50.803  1.00  0.00     0.187 C 
HETATM   25  O   UNL     1      12.956  56.028  51.796  1.00  0.00    -0.388 OA
HETATM   26  C   UNL     1      14.004  55.338  52.492  1.00  0.00     0.187 C 
HETATM   27  O   UNL     1      14.963  52.725  48.636  1.00  0.00    -0.238 OA
ENDBRANCH  19  20
ENDBRANCH  16  19
ENDBRANCH   7  13
BRANCH  11  28
HETATM   28  N   UNL     1      22.918  47.618  49.658  1.00  0.00    -0.282 NA
HETATM   29  H   UNL     1      23.274  46.693  49.429  1.00  0.00     0.126 HD
HETATM   30  H   UNL     1      23.656  48.301  49.812  1.00  0.00     0.126 HD
ENDBRANCH  11  28
BRANCH   1  31
HETATM   31  C   UNL     1      18.047  49.539  45.329  1.00  0.00    -0.005 A 
HETATM   32  C   UNL     1      16.696  49.713  45.661  1.00  0.00     0.014 A 
HETATM   33  C   UNL     1      15.915  50.672  45.011  1.00  0.00     0.008 A 
HETATM   34  C   UNL     1      16.471  51.480  44.014  1.00  0.00    -0.058 A 
HETATM   35  C   UNL     1      17.816  51.300  43.669  1.00  0.00     0.008 A 
HETATM   36  C   UNL     1      18.594  50.331  44.313  1.00  0.00     0.014 A 
BRANCH  34  37
HETATM   37  C   UNL     1      15.635  52.535  43.330  1.00  0.00     0.042 C 
BRANCH  37  38
HETATM   38  C   UNL     1      15.754  53.932  43.970  1.00  0.00    -0.019 C 
HETATM   39  C   UNL     1      14.843  54.090  45.190  1.00  0.00     0.010 C 
HETATM   40  C   UNL     1      15.410  55.005  42.932  1.00  0.00     0.010 C 
ENDBRANCH  37  38
ENDBRANCH  34  37
ENDBRANCH   1  31
TORSDOF 7
ENDMDL
MODEL 6
REMARK VINA RESULT:      -8.0      1.793      2.244
REMARK  7 active torsions:
REMARK  status: ('A' for Active; 'I' for Inactive)
REMARK    1  A    between atoms: C_2  and  C_3 
REMARK    2  A    between atoms: C_3  and  C_4 
REMARK    3  A    between atoms: C_7  and  C_8 
REMARK    4  A    between atoms: C_14  and  C_15 
REMARK    5  A    between atoms: C_18  and  O_19 
REMARK    6  A    between atoms: O_19  and  C_20 
REMARK       I    between atoms: C_20  and  N_21 
REMARK    7  A    between atoms: C_33  and  N_34 
ROOT
HETATM    1  C   UNL     1      23.635  49.384  49.049  1.00  0.00     0.099 A 
HETATM    2  N   UNL     1      24.793  50.038  48.818  1.00  0.00    -0.172 NA
HETATM    3  N   UNL     1      25.749  49.100  48.917  1.00  0.00    -0.256 N 
HETATM    4  H   UNL     1      26.717  49.373  48.793  1.00  0.00     0.191 HD
HETATM    5  C   UNL     1      25.250  47.869  49.176  1.00  0.00     0.175 A 
HETATM    6  C   UNL     1      23.887  47.999  49.268  1.00  0.00     0.040 A 
HETATM    7  C   UNL     1      23.057  46.790  49.547  1.00  0.00     0.106 A 
HETATM    8  C   UNL     1      23.942  45.556  49.744  1.00  0.00     0.081 A 
HETATM    9  C   UNL     1      23.285  44.352  50.129  1.00  0.00     0.100 C 
HETATM   10  N   UNL     1      22.755  43.371  50.450  1.00  0.00    -0.191 NA
HETATM   11  C   UNL     1      25.298  45.592  49.625  1.00  0.00     0.140 A 
HETATM   12  O   UNL     1      25.986  46.773  49.305  1.00  0.00    -0.279 OA
ENDROOT
BRANCH   7  13
HETATM   13  C   UNL     1      22.080  46.636  48.387  1.00  0.00    -0.044 A 
HETATM   14  C   UNL     1      20.767  47.142  48.426  1.00  0.00     0.011 A 
HETATM   15  C   UNL     1      19.908  46.987  47.335  1.00  0.00     0.038 A 
HETATM   16  C   UNL     1      20.369  46.354  46.184  1.00  0.00     0.081 A 
HETATM   17  C   UNL     1      21.664  45.848  46.116  1.00  0.00     0.038 A 
HETATM   18  C   UNL     1      22.518  46.003  47.208  1.00  0.00     0.011 A 
BRANCH  16  19
HETATM   19  O   UNL     1      19.447  46.151  45.146  1.00  0.00    -0.261 OA
BRANCH  19  20
HETATM   20  C   UNL     1      18.507  45.133  45.299  1.00  0.00     0.368 C 
HETATM   21  N   UNL     1      17.438  45.271  44.426  1.00  0.00    -0.324 N 
HETATM   22  C   UNL     1      16.474  44.180  44.315  1.00  0.00     0.154 C 
HETATM   23  C   UNL     1      17.443  46.214  43.308  1.00  0.00     0.154 C 
HETATM   24  C   UNL     1      15.095  44.693  43.894  1.00  0.00     0.187 C 
HETATM   25  O   UNL     1      15.182  45.493  42.703  1.00  0.00    -0.388 OA
HETATM   26  C   UNL     1      16.020  46.635  42.929  1.00  0.00     0.187 C 
HETATM   27  O   UNL     1      18.598  44.220  46.113  1.00  0.00    -0.238 OA
ENDBRANCH  19  20
ENDBRANCH  16  19
ENDBRANCH   7  13
BRANCH  11  28
HETATM   28  N   UNL     1      26.144  44.519  49.802  1.00  0.00    -0.282 NA
HETATM   29  H   UNL     1      26.688  44.528  50.661  1.00  0.00     0.126 HD
HETATM   30  H   UNL     1      25.677  43.631  49.635  1.00  0.00     0.126 HD
ENDBRANCH  11  28
BRANCH   1  31
HETATM   31  C   UNL     1      22.362  50.108  49.009  1.00  0.00    -0.005 A 
HETATM   32  C   UNL     1      21.750  50.500  50.208  1.00  0.00     0.014 A 
HETATM   33  C   UNL     1      20.544  51.205  50.201  1.00  0.00     0.008 A 
HETATM   34  C   UNL     1      19.925  51.536  48.991  1.00  0.00    -0.058 A 
HETATM   35  C   UNL     1      20.525  51.134  47.792  1.00  0.00     0.008 A 
HETATM   36  C   UNL     1      21.727  50.417  47.801  1.00  0.00     0.014 A 
BRANCH  34  37
HETATM   37  C   UNL     1      18.636  52.322  48.983  1.00  0.00     0.042 C 
BRANCH  37  38
HETATM   38  C   UNL     1      17.459  51.591  49.660  1.00  0.00    -0.019 C 
HETATM   39  C   UNL     1      16.923  50.440  48.806  1.00  0.00     0.010 C 
HETATM   40  C   UNL     1      16.331  52.587  49.946  1.00  0.00     0.010 C 
ENDBRANCH  37  38
ENDBRANCH  34  37
ENDBRANCH   1  31
TORSDOF 7
ENDMDL
MODEL 7
REMARK VINA RESULT:      -7.7      2.980      5.204
REMARK  7 active torsions:
REMARK  status: ('A' for Active; 'I' for Inactive)
REMARK    1  A    between atoms: C_2  and  C_3 
REMARK    2  A    between atoms: C_3  and  C_4 
REMARK    3  A    between atoms: C_7  and  C_8 
REMARK    4  A    between atoms: C_14  and  C_15 
REMARK    5  A    between atoms: C_18  and  O_19 
REMARK    6  A    between atoms: O_19  and  C_20 
REMARK       I    between atoms: C_20  and  N_21 
REMARK    7  A    between atoms: C_33  and  N_34 
ROOT
HETATM    1  C   UNL     1      20.875  49.606  48.487  1.00  0.00     0.099 A 
HETATM    2  N   UNL     1      22.154  50.039  48.476  1.00  0.00    -0.172 NA
HETATM    3  N   UNL     1      22.875  48.984  48.060  1.00  0.00    -0.256 N 
HETATM    4  H   UNL     1      23.881  49.078  47.989  1.00  0.00     0.191 HD
HETATM    5  C   UNL     1      22.109  47.904  47.779  1.00  0.00     0.175 A 
HETATM    6  C   UNL     1      20.808  48.256  48.037  1.00  0.00     0.040 A 
HETATM    7  C   UNL     1      19.725  47.254  47.811  1.00  0.00     0.106 A 
HETATM    8  C   UNL     1      20.310  45.914  47.356  1.00  0.00     0.081 A 
HETATM    9  C   UNL     1      19.393  44.832  47.212  1.00  0.00     0.100 C 
HETATM   10  N   UNL     1      18.653  43.946  47.102  1.00  0.00    -0.191 NA
HETATM   11  C   UNL     1      21.641  45.720  47.149  1.00  0.00     0.140 A 
HETATM   12  O   UNL     1      22.581  46.745  47.337  1.00  0.00    -0.279 OA
ENDROOT
BRANCH   7  13
HETATM   13  C   UNL     1      18.760  47.853  46.796  1.00  0.00    -0.044 A 
HETATM   14  C   UNL     1      17.450  48.247  47.130  1.00  0.00     0.011 A 
HETATM   15  C   UNL     1      16.603  48.802  46.168  1.00  0.00     0.038 A 
HETATM   16  C   UNL     1      17.072  48.998  44.872  1.00  0.00     0.081 A 
HETATM   17  C   UNL     1      18.363  48.622  44.514  1.00  0.00     0.038 A 
HETATM   18  C   UNL     1      19.206  48.066  45.477  1.00  0.00     0.011 A 
BRANCH  16  19
HETATM   19  O   UNL     1      16.160  49.483  43.923  1.00  0.00    -0.261 OA
BRANCH  19  20
HETATM   20  C   UNL     1      15.981  50.863  43.836  1.00  0.00     0.368 C 
HETATM   21  N   UNL     1      16.621  51.406  42.732  1.00  0.00    -0.324 N 
HETATM   22  C   UNL     1      16.362  52.801  42.382  1.00  0.00     0.154 C 
HETATM   23  C   UNL     1      17.179  50.588  41.655  1.00  0.00     0.154 C 
HETATM   24  C   UNL     1      17.550  53.422  41.645  1.00  0.00     0.187 C 
HETATM   25  O   UNL     1      17.936  52.620  40.517  1.00  0.00    -0.388 OA
HETATM   26  C   UNL     1      18.330  51.310  40.948  1.00  0.00     0.187 C 
HETATM   27  O   UNL     1      15.342  51.533  44.641  1.00  0.00    -0.238 OA
ENDBRANCH  19  20
ENDBRANCH  16  19
ENDBRANCH   7  13
BRANCH  11  28
HETATM   28  N   UNL     1      22.223  44.537  46.751  1.00  0.00    -0.282 NA
HETATM   29  H   UNL     1      22.506  43.913  47.504  1.00  0.00     0.126 HD
HETATM   30  H   UNL     1      21.684  44.068  46.027  1.00  0.00     0.126 HD
ENDBRANCH  11  28
BRANCH   1  31
HETATM   31  C   UNL     1      19.796  50.513  48.886  1.00  0.00    -0.005 A 
HETATM   32  C   UNL     1      19.696  51.776  48.287  1.00  0.00     0.014 A 
HETATM   33  C   UNL     1      18.667  52.656  48.635  1.00  0.00     0.008 A 
HETATM   34  C   UNL     1      17.715  52.288  49.591  1.00  0.00    -0.058 A 
HETATM   35  C   UNL     1      17.820  51.033  50.202  1.00  0.00     0.008 A 
HETATM   36  C   UNL     1      18.857  50.158  49.860  1.00  0.00     0.014 A 
BRANCH  34  37
HETATM   37  C   UNL     1      16.588  53.228  49.948  1.00  0.00     0.042 C 
BRANCH  37  38
HETATM   38  C   UNL     1      15.198  52.724  49.513  1.00  0.00    -0.019 C 
HETATM   39  C   UNL     1      14.800  53.245  48.130  1.00  0.00     0.010 C 
HETATM   40  C   UNL     1      14.149  53.152  50.543  1.00  0.00     0.010 C 
ENDBRANCH  37  38
ENDBRANCH  34  37
ENDBRANCH   1  31
TORSDOF 7
ENDMDL
MODEL 8
REMARK VINA RESULT:      -7.5      4.298      8.078
REMARK  7 active torsions:
REMARK  status: ('A' for Active; 'I' for Inactive)
REMARK    1  A    between atoms: C_2  and  C_3 
REMARK    2  A    between atoms: C_3  and  C_4 
REMARK    3  A    between atoms: C_7  and  C_8 
REMARK    4  A    between atoms: C_14  and  C_15 
REMARK    5  A    between atoms: C_18  and  O_19 
REMARK    6  A    between atoms: O_19  and  C_20 
REMARK       I    between atoms: C_20  and  N_21 
REMARK    7  A    between atoms: C_33  and  N_34 
ROOT
HETATM    1  C   UNL     1      27.319  41.471  50.885  1.00  0.00     0.099 A 
HETATM    2  N   UNL     1      27.654  40.516  51.779  1.00  0.00    -0.172 NA
HETATM    3  N   UNL     1      27.643  41.136  52.971  1.00  0.00    -0.256 N 
HETATM    4  H   UNL     1      27.883  40.605  53.800  1.00  0.00     0.191 HD
HETATM    5  C   UNL     1      27.290  42.439  52.881  1.00  0.00     0.175 A 
HETATM    6  C   UNL     1      27.068  42.705  51.553  1.00  0.00     0.040 A 
HETATM    7  C   UNL     1      26.655  44.079  51.144  1.00  0.00     0.106 A 
HETATM    8  C   UNL     1      26.604  45.015  52.355  1.00  0.00     0.081 A 
HETATM    9  C   UNL     1      26.333  46.389  52.092  1.00  0.00     0.100 C 
HETATM   10  N   UNL     1      26.120  47.510  51.882  1.00  0.00    -0.191 NA
HETATM   11  C   UNL     1      26.862  44.596  53.625  1.00  0.00     0.140 A 
HETATM   12  O   UNL     1      27.191  43.263  53.916  1.00  0.00    -0.279 OA
ENDROOT
BRANCH   7  13
HETATM   13  C   UNL     1      25.311  43.956  50.437  1.00  0.00    -0.044 A 
HETATM   14  C   UNL     1      24.210  43.287  51.006  1.00  0.00     0.011 A 
HETATM   15  C   UNL     1      22.992  43.208  50.325  1.00  0.00     0.038 A 
HETATM   16  C   UNL     1      22.858  43.827  49.086  1.00  0.00     0.081 A 
HETATM   17  C   UNL     1      23.927  44.499  48.502  1.00  0.00     0.038 A 
HETATM   18  C   UNL     1      25.142  44.575  49.183  1.00  0.00     0.011 A 
BRANCH  16  19
HETATM   19  O   UNL     1      21.643  43.652  48.406  1.00  0.00    -0.261 OA
BRANCH  19  20
HETATM   20  C   UNL     1      20.929  44.793  48.043  1.00  0.00     0.368 C 
HETATM   21  N   UNL     1      20.662  44.834  46.682  1.00  0.00    -0.324 N 
HETATM   22  C   UNL     1      19.749  45.854  46.173  1.00  0.00     0.154 C 
HETATM   23  C   UNL     1      20.871  43.688  45.798  1.00  0.00     0.154 C 
HETATM   24  C   UNL     1      20.061  46.206  44.718  1.00  0.00     0.187 C 
HETATM   25  O   UNL     1      20.104  45.028  43.897  1.00  0.00    -0.388 OA
HETATM   26  C   UNL     1      21.130  44.137  44.357  1.00  0.00     0.187 C 
HETATM   27  O   UNL     1      20.578  45.672  48.824  1.00  0.00    -0.238 OA
ENDBRANCH  19  20
ENDBRANCH  16  19
ENDBRANCH   7  13
BRANCH  11  28
HETATM   28  N   UNL     1      26.843  45.393  54.748  1.00  0.00    -0.282 NA
HETATM   29  H   UNL     1      26.632  46.375  54.586  1.00  0.00     0.126 HD
HETATM   30  H   UNL     1      26.289  44.985  55.498  1.00  0.00     0.126 HD
ENDBRANCH  11  28
BRANCH   1  31
HETATM   31  C   UNL     1      27.221  41.142  49.461  1.00  0.00    -0.005 A 
HETATM   32  C   UNL     1      25.963  40.907  48.889  1.00  0.00     0.014 A 
HETATM   33  C   UNL     1      25.836  40.608  47.530  1.00  0.00     0.008 A 
HETATM   34  C   UNL     1      26.969  40.540  46.712  1.00  0.00    -0.058 A 
HETATM   35  C   UNL     1      28.229  40.760  47.282  1.00  0.00     0.008 A 
HETATM   36  C   UNL     1      28.355  41.048  48.646  1.00  0.00     0.014 A 
BRANCH  34  37
HETATM   37  C   UNL     1      26.831  40.243  45.239  1.00  0.00     0.042 C 
BRANCH  37  38
HETATM   38  C   UNL     1      27.712  41.135  44.341  1.00  0.00    -0.019 C 
HETATM   39  C   UNL     1      26.893  41.889  43.291  1.00  0.00     0.010 C 
HETATM   40  C   UNL     1      28.772  40.276  43.644  1.00  0.00     0.010 C 
ENDBRANCH  37  38
ENDBRANCH  34  37
ENDBRANCH   1  31
TORSDOF 7
ENDMDL
MODEL 9
REMARK VINA RESULT:      -7.5      3.102      6.472
REMARK  7 active torsions:
REMARK  status: ('A' for Active; 'I' for Inactive)
REMARK    1  A    between atoms: C_2  and  C_3 
REMARK    2  A    between atoms: C_3  and  C_4 
REMARK    3  A    between atoms: C_7  and  C_8 
REMARK    4  A    between atoms: C_14  and  C_15 
REMARK    5  A    between atoms: C_18  and  O_19 
REMARK    6  A    between atoms: O_19  and  C_20 
REMARK       I    between atoms: C_20  and  N_21 
REMARK    7  A    between atoms: C_33  and  N_34 
ROOT
HETATM    1  C   UNL     1      19.872  46.548  47.887  1.00  0.00     0.099 A 
HETATM    2  N   UNL     1      19.978  45.332  48.462  1.00  0.00    -0.172 NA
HETATM    3  N   UNL     1      21.195  45.321  49.032  1.00  0.00    -0.256 N 
HETATM    4  H   UNL     1      21.501  44.486  49.518  1.00  0.00     0.191 HD
HETATM    5  C   UNL     1      21.860  46.488  48.868  1.00  0.00     0.175 A 
HETATM    6  C   UNL     1      21.046  47.316  48.136  1.00  0.00     0.040 A 
HETATM    7  C   UNL     1      21.519  48.691  47.800  1.00  0.00     0.106 A 
HETATM    8  C   UNL     1      22.940  48.920  48.322  1.00  0.00     0.081 A 
HETATM    9  C   UNL     1      23.558  50.156  47.972  1.00  0.00     0.100 C 
HETATM   10  N   UNL     1      24.069  51.157  47.683  1.00  0.00    -0.191 NA
HETATM   11  C   UNL     1      23.626  47.986  49.036  1.00  0.00     0.140 A 
HETATM   12  O   UNL     1      23.072  46.735  49.349  1.00  0.00    -0.279 OA
ENDROOT
BRANCH   7  13
HETATM   13  C   UNL     1      20.509  49.671  48.385  1.00  0.00    -0.044 A 
HETATM   14  C   UNL     1      20.159  49.680  49.748  1.00  0.00     0.011 A 
HETATM   15  C   UNL     1      19.236  50.605  50.243  1.00  0.00     0.038 A 
HETATM   16  C   UNL     1      18.683  51.550  49.383  1.00  0.00     0.081 A 
HETATM   17  C   UNL     1      19.015  51.568  48.032  1.00  0.00     0.038 A 
HETATM   18  C   UNL     1      19.935  50.642  47.541  1.00  0.00     0.011 A 
BRANCH  16  19
HETATM   19  O   UNL     1      17.703  52.404  49.909  1.00  0.00    -0.261 OA
BRANCH  19  20
HETATM   20  C   UNL     1      16.377  52.178  49.543  1.00  0.00     0.368 C 
HETATM   21  N   UNL     1      15.542  53.218  49.925  1.00  0.00    -0.324 N 
HETATM   22  C   UNL     1      14.165  53.234  49.437  1.00  0.00     0.154 C 
HETATM   23  C   UNL     1      16.046  54.504  50.406  1.00  0.00     0.154 C 
HETATM   24  C   UNL     1      13.238  53.973  50.404  1.00  0.00     0.187 C 
HETATM   25  O   UNL     1      13.744  55.283  50.707  1.00  0.00    -0.388 OA
HETATM   26  C   UNL     1      15.033  55.189  51.329  1.00  0.00     0.187 C 
HETATM   27  O   UNL     1      15.978  51.176  48.957  1.00  0.00    -0.238 OA
ENDBRANCH  19  20
ENDBRANCH  16  19
ENDBRANCH   7  13
BRANCH  11  28
HETATM   28  N   UNL     1      24.907  48.132  49.519  1.00  0.00    -0.282 NA
HETATM   29  H   UNL     1      25.034  48.868  50.210  1.00  0.00     0.126 HD
HETATM   30  H   UNL     1      25.313  47.245  49.805  1.00  0.00     0.126 HD
ENDBRANCH  11  28
BRANCH   1  31
HETATM   31  C   UNL     1      18.648  46.918  47.172  1.00  0.00    -0.005 A 
HETATM   32  C   UNL     1      17.604  47.547  47.864  1.00  0.00     0.014 A 
HETATM   33  C   UNL     1      16.432  47.926  47.205  1.00  0.00     0.008 A 
HETATM   34  C   UNL     1      16.280  47.685  45.836  1.00  0.00    -0.058 A 
HETATM   35  C   UNL     1      17.314  47.044  45.143  1.00  0.00     0.008 A 
HETATM   36  C   UNL     1      18.483  46.654  45.808  1.00  0.00     0.014 A 
BRANCH  34  37
HETATM   37  C   UNL     1      15.025  48.119  45.118  1.00  0.00     0.042 C 
BRANCH  37  38
HETATM   38  C   UNL     1      15.084  49.563  44.582  1.00  0.00    -0.019 C 
HETATM   39  C   UNL     1      13.803  50.345  44.882  1.00  0.00     0.010 C 
HETATM   40  C   UNL     1      15.330  49.542  43.070  1.00  0.00     0.010 C 
ENDBRANCH  37  38
ENDBRANCH  34  37
ENDBRANCH   1  31
TORSDOF 7
ENDMDL
MODEL 10
REMARK VINA RESULT:      -7.5      4.941      8.773
REMARK  7 active torsions:
REMARK  status: ('A' for Active; 'I' for Inactive)
REMARK    1  A    between atoms: C_2  and  C_3 
REMARK    2  A    between atoms: C_3  and  C_4 
REMARK    3  A    between atoms: C_7  and  C_8 
REMARK    4  A    between atoms: C_14  and  C_15 
REMARK    5  A    between atoms: C_18  and  O_19 
REMARK    6  A    between atoms: O_19  and  C_20 
REMARK       I    between atoms: C_20  and  N_21 
REMARK    7  A    between atoms: C_33  and  N_34 
ROOT
HETATM    1  C   UNL     1      26.969  42.558  52.508  1.00  0.00     0.099 A 
HETATM    2  N   UNL     1      27.075  42.167  53.795  1.00  0.00    -0.172 NA
HETATM    3  N   UNL     1      26.855  43.280  54.516  1.00  0.00    -0.256 N 
HETATM    4  H   UNL     1      26.901  43.225  55.527  1.00  0.00     0.191 HD
HETATM    5  C   UNL     1      26.585  44.359  53.745  1.00  0.00     0.175 A 
HETATM    6  C   UNL     1      26.645  43.944  52.438  1.00  0.00     0.040 A 
HETATM    7  C   UNL     1      26.383  44.929  51.348  1.00  0.00     0.106 A 
HETATM    8  C   UNL     1      26.134  46.325  51.926  1.00  0.00     0.081 A 
HETATM    9  C   UNL     1      25.981  47.388  50.988  1.00  0.00     0.100 C 
HETATM   10  N   UNL     1      25.865  48.258  50.229  1.00  0.00    -0.191 NA
HETATM   11  C   UNL     1      26.113  46.580  53.263  1.00  0.00     0.140 A 
HETATM   12  O   UNL     1      26.318  45.570  54.216  1.00  0.00    -0.279 OA
ENDROOT
BRANCH   7  13
HETATM   13  C   UNL     1      25.203  44.406  50.539  1.00  0.00    -0.044 A 
HETATM   14  C   UNL     1      23.938  44.164  51.107  1.00  0.00     0.011 A 
HETATM   15  C   UNL     1      22.880  43.694  50.324  1.00  0.00     0.038 A 
HETATM   16  C   UNL     1      23.073  43.494  48.960  1.00  0.00     0.081 A 
HETATM   17  C   UNL     1      24.312  43.729  48.371  1.00  0.00     0.038 A 
HETATM   18  C   UNL     1      25.366  44.197  49.155  1.00  0.00     0.011 A 
BRANCH  16  19
HETATM   19  O   UNL     1      22.007  42.946  48.231  1.00  0.00    -0.261 OA
BRANCH  19  20
HETATM   20  C   UNL     1      21.569  43.632  47.100  1.00  0.00     0.368 C 
HETATM   21  N   UNL     1      21.717  42.883  45.942  1.00  0.00    -0.324 N 
HETATM   22  C   UNL     1      21.118  43.374  44.703  1.00  0.00     0.154 C 
HETATM   23  C   UNL     1      22.038  41.456  45.955  1.00  0.00     0.154 C 
HETATM   24  C   UNL     1      21.880  42.869  43.476  1.00  0.00     0.187 C 
HETATM   25  O   UNL     1      22.022  41.439  43.506  1.00  0.00    -0.388 OA
HETATM   26  C   UNL     1      22.757  41.035  44.670  1.00  0.00     0.187 C 
HETATM   27  O   UNL     1      21.112  44.771  47.110  1.00  0.00    -0.238 OA
ENDBRANCH  19  20
ENDBRANCH  16  19
ENDBRANCH   7  13
BRANCH  11  28
HETATM   28  N   UNL     1      25.906  47.814  53.838  1.00  0.00    -0.282 NA
HETATM   29  H   UNL     1      26.739  48.382  53.969  1.00  0.00     0.126 HD
HETATM   30  H   UNL     1      25.144  48.321  53.394  1.00  0.00     0.126 HD
ENDBRANCH  11  28
BRANCH   1  31
HETATM   31  C   UNL     1      27.143  41.583  51.428  1.00  0.00    -0.005 A 
HETATM   32  C   UNL     1      26.024  41.138  50.709  1.00  0.00     0.014 A 
HETATM   33  C   UNL     1      26.160  40.222  49.663  1.00  0.00     0.008 A 
HETATM   34  C   UNL     1      27.422  39.732  49.312  1.00  0.00    -0.058 A 
HETATM   35  C   UNL     1      28.541  40.163  50.036  1.00  0.00     0.008 A 
HETATM   36  C   UNL     1      28.401  41.072  51.091  1.00  0.00     0.014 A 
BRANCH  34  37
HETATM   37  C   UNL     1      27.574  38.763  48.165  1.00  0.00     0.042 C 
BRANCH  37  38
HETATM   38  C   UNL     1      26.831  37.429  48.377  1.00  0.00    -0.019 C 
HETATM   39  C   UNL     1      27.256  36.729  49.670  1.00  0.00     0.010 C 
HETATM   40  C   UNL     1      27.086  36.502  47.185  1.00  0.00     0.010 C 
ENDBRANCH  37  38
ENDBRANCH  34  37
ENDBRANCH   1  31
TORSDOF 7
ENDMDL
