MODEL 1
REMARK VINA RESULT:      -9.5      0.000      0.000
REMARK  7 active torsions:
REMARK  status: ('A' for Active; 'I' for Inactive)
REMARK    1  A    between atoms: C_2  and  C_3 
REMARK       I    between atoms: C_3  and  N_4 
REMARK    2  A    between atoms: N_7  and  C_8 
REMARK    3  A    between atoms: C_9  and  N_10 
REMARK    4  A    between atoms: N_10  and  C_11 
REMARK    5  A    between atoms: C_11  and  N_12 
REMARK       I    between atoms: N_12  and  C_13 
REMARK    6  A    between atoms: C_13  and  C_14 
REMARK    7  A    between atoms: C_15  and  O_16 
ROOT
HETATM    1  C   UNL     1      23.237  48.247  48.801  1.00  0.00     0.037 A 
HETATM    2  C   UNL     1      24.308  47.678  49.544  1.00  0.00     0.057 A 
HETATM    3  C   UNL     1      25.585  48.246  49.508  1.00  0.00     0.055 A 
HETATM    4  C   UNL     1      25.800  49.406  48.771  1.00  0.00     0.036 A 
HETATM    5 CL   UNL     1      27.366  50.119  48.744  1.00  0.00    -0.084 Cl
HETATM    6  C   UNL     1      24.764  49.990  48.048  1.00  0.00     0.026 A 
HETATM    7  C   UNL     1      23.492  49.409  48.057  1.00  0.00     0.027 A 
ENDROOT
BRANCH   2   8
HETATM    8  N   UNL     1      24.030  46.473  50.229  1.00  0.00    -0.331 N 
HETATM    9  H   UNL     1      23.108  46.484  50.661  1.00  0.00     0.168 HD
BRANCH   8  10
HETATM   10  C   UNL     1      24.702  45.304  50.298  1.00  0.00     0.179 C 
HETATM   11  S   UNL     1      24.293  44.065  49.251  1.00  0.00    -0.040 SA
BRANCH  10  12
HETATM   12  N   UNL     1      25.672  45.072  51.228  1.00  0.00    -0.299 N 
HETATM   13  C   UNL     1      25.557  44.513  52.499  1.00  0.00     0.260 C 
HETATM   14  O   UNL     1      24.534  44.082  53.017  1.00  0.00    -0.267 OA
HETATM   15  H   UNL     1      26.605  45.038  50.832  1.00  0.00     0.171 HD
BRANCH  13  16
HETATM   16  C   UNL     1      26.829  44.431  53.261  1.00  0.00     0.066 A 
HETATM   17  C   UNL     1      27.908  43.633  52.853  1.00  0.00     0.089 A 
HETATM   18  C   UNL     1      29.122  43.660  53.559  1.00  0.00    -0.028 A 
HETATM   19  C   UNL     1      30.302  42.838  53.128  1.00  0.00     0.051 C 
HETATM   20  C   UNL     1      29.206  44.438  54.724  1.00  0.00     0.009 A 
HETATM   21  C   UNL     1      28.119  45.199  55.158  1.00  0.00     0.002 A 
HETATM   22  C   UNL     1      26.932  45.198  54.428  1.00  0.00     0.020 A 
BRANCH  17  23
HETATM   23  O   UNL     1      27.812  42.856  51.722  1.00  0.00    -0.354 OA
HETATM   24  C   UNL     1      27.367  41.538  52.070  1.00  0.00     0.210 C 
ENDBRANCH  17  23
ENDBRANCH  13  16
ENDBRANCH  10  12
ENDBRANCH   8  10
ENDBRANCH   2   8
BRANCH   1  25
HETATM   25  N   UNL     1      21.959  47.639  48.868  1.00  0.00    -0.278 NA
HETATM   26  C   UNL     1      21.635  46.627  47.839  1.00  0.00     0.115 C 
HETATM   27  C   UNL     1      20.328  45.905  48.212  1.00  0.00     0.140 C 
HETATM   28  N   UNL     1      19.217  46.824  48.507  1.00  0.00    -0.350 N 
HETATM   29  C   UNL     1      17.928  46.309  48.393  1.00  0.00     0.219 C 
HETATM   30  C   UNL     1      19.558  47.968  49.369  1.00  0.00     0.140 C 
HETATM   31  O   UNL     1      17.705  45.218  47.867  1.00  0.00    -0.273 OA
HETATM   32  C   UNL     1      20.879  48.656  48.973  1.00  0.00     0.115 C 
BRANCH  29  33
HETATM   33  C   UNL     1      16.797  47.171  48.936  1.00  0.00     0.098 C 
HETATM   34  C   UNL     1      16.111  47.984  47.850  1.00  0.00     0.014 C 
ENDBRANCH  29  33
ENDBRANCH   1  25
TORSDOF 7
ENDMDL
MODEL 2
REMARK VINA RESULT:      -8.6      3.642      8.931
REMARK  7 active torsions:
REMARK  status: ('A' for Active; 'I' for Inactive)
REMARK    1  A    between atoms: C_2  and  C_3 
REMARK       I    between atoms: C_3  and  N_4 
REMARK    2  A    between atoms: N_7  and  C_8 
REMARK    3  A    between atoms: C_9  and  N_10 
REMARK    4  A    between atoms: N_10  and  C_11 
REMARK    5  A    between atoms: C_11  and  N_12 
REMARK       I    between atoms: N_12  and  C_13 
REMARK    6  A    between atoms: C_13  and  C_14 
REMARK    7  A    between atoms: C_15  and  O_16 
ROOT
HETATM    1  C   UNL     1      28.013  41.911  51.786  1.00  0.00     0.037 A 
HETATM    2  C   UNL     1      27.715  43.301  51.738  1.00  0.00     0.057 A 
HETATM    3  C   UNL     1      28.019  44.135  52.818  1.00  0.00     0.055 A 
HETATM    4  C   UNL     1      28.660  43.609  53.934  1.00  0.00     0.036 A 
HETATM    5 CL   UNL     1      29.056  44.639  55.254  1.00  0.00    -0.084 Cl
HETATM    6  C   UNL     1      28.976  42.254  53.997  1.00  0.00     0.026 A 
HETATM    7  C   UNL     1      28.646  41.410  52.932  1.00  0.00     0.027 A 
ENDROOT
BRANCH   2   8
HETATM    8  N   UNL     1      27.019  43.758  50.595  1.00  0.00    -0.331 N 
HETATM    9  H   UNL     1      27.437  43.416  49.732  1.00  0.00     0.168 HD
BRANCH   8  10
HETATM   10  C   UNL     1      25.862  44.440  50.462  1.00  0.00     0.179 C 
HETATM   11  S   UNL     1      24.429  43.715  50.930  1.00  0.00    -0.040 SA
BRANCH  10  12
HETATM   12  N   UNL     1      25.806  45.686  49.910  1.00  0.00    -0.299 N 
HETATM   13  C   UNL     1      25.873  46.929  50.533  1.00  0.00     0.260 C 
HETATM   14  O   UNL     1      26.032  47.138  51.730  1.00  0.00    -0.267 OA
HETATM   15  H   UNL     1      26.033  45.694  48.921  1.00  0.00     0.171 HD
BRANCH  13  16
HETATM   16  C   UNL     1      25.755  48.093  49.619  1.00  0.00     0.066 A 
HETATM   17  C   UNL     1      24.519  48.580  49.166  1.00  0.00     0.089 A 
HETATM   18  C   UNL     1      24.456  49.739  48.376  1.00  0.00    -0.028 A 
HETATM   19  C   UNL     1      23.146  50.299  47.902  1.00  0.00     0.051 C 
HETATM   20  C   UNL     1      25.656  50.353  47.983  1.00  0.00     0.009 A 
HETATM   21  C   UNL     1      26.889  49.844  48.395  1.00  0.00     0.002 A 
HETATM   22  C   UNL     1      26.940  48.717  49.214  1.00  0.00     0.020 A 
BRANCH  17  23
HETATM   23  O   UNL     1      23.349  47.962  49.537  1.00  0.00    -0.354 OA
HETATM   24  C   UNL     1      22.940  47.036  48.522  1.00  0.00     0.210 C 
ENDBRANCH  17  23
ENDBRANCH  13  16
ENDBRANCH  10  12
ENDBRANCH   8  10
ENDBRANCH   2   8
BRANCH   1  25
HETATM   25  N   UNL     1      27.688  41.103  50.669  1.00  0.00    -0.278 NA
HETATM   26  C   UNL     1      26.340  40.496  50.640  1.00  0.00     0.115 C 
HETATM   27  C   UNL     1      26.079  39.871  49.258  1.00  0.00     0.140 C 
HETATM   28  N   UNL     1      27.147  38.958  48.819  1.00  0.00    -0.350 N 
HETATM   29  C   UNL     1      26.810  38.013  47.853  1.00  0.00     0.219 C 
HETATM   30  C   UNL     1      28.519  39.450  49.025  1.00  0.00     0.140 C 
HETATM   31  O   UNL     1      25.640  37.796  47.534  1.00  0.00    -0.273 OA
HETATM   32  C   UNL     1      28.737  40.081  50.415  1.00  0.00     0.115 C 
BRANCH  29  33
HETATM   33  C   UNL     1      27.959  37.244  47.218  1.00  0.00     0.098 C 
HETATM   34  C   UNL     1      28.363  37.813  45.867  1.00  0.00     0.014 C 
ENDBRANCH  29  33
ENDBRANCH   1  25
TORSDOF 7
ENDMDL
MODEL 3
REMARK VINA RESULT:      -8.4      3.009      6.894
REMARK  7 active torsions:
REMARK  status: ('A' for Active; 'I' for Inactive)
REMARK    1  A    between atoms: C_2  and  C_3 
REMARK       I    between atoms: C_3  and  N_4 
REMARK    2  A    between atoms: N_7  and  C_8 
REMARK    3  A    between atoms: C_9  and  N_10 
REMARK    4  A    between atoms: N_10  and  C_11 
REMARK    5  A    between atoms: C_11  and  N_12 
REMARK       I    between atoms: N_12  and  C_13 
REMARK    6  A    between atoms: C_13  and  C_14 
REMARK    7  A    between atoms: C_15  and  O_16 
ROOT
HETATM    1  C   UNL     1      24.835  47.232  49.784  1.00  0.00     0.037 A 
HETATM    2  C   UNL     1      23.538  47.053  49.228  1.00  0.00     0.057 A 
HETATM    3  C   UNL     1      22.926  48.075  48.497  1.00  0.00     0.055 A 
HETATM    4  C   UNL     1      23.611  49.265  48.273  1.00  0.00     0.036 A 
HETATM    5 CL   UNL     1      22.868  50.516  47.354  1.00  0.00    -0.084 Cl
HETATM    6  C   UNL     1      24.888  49.458  48.794  1.00  0.00     0.026 A 
HETATM    7  C   UNL     1      25.491  48.449  49.552  1.00  0.00     0.027 A 
ENDROOT
BRANCH   2   8
HETATM    8  N   UNL     1      22.881  45.840  49.537  1.00  0.00    -0.331 N 
HETATM    9  H   UNL     1      22.462  45.859  50.465  1.00  0.00     0.168 HD
BRANCH   8  10
HETATM   10  C   UNL     1      22.616  44.747  48.790  1.00  0.00     0.179 C 
HETATM   11  S   UNL     1      21.230  44.716  47.853  1.00  0.00    -0.040 SA
BRANCH  10  12
HETATM   12  N   UNL     1      23.410  43.639  48.808  1.00  0.00    -0.299 N 
HETATM   13  C   UNL     1      23.775  42.835  49.885  1.00  0.00     0.260 C 
HETATM   14  O   UNL     1      23.410  42.963  51.048  1.00  0.00    -0.267 OA
HETATM   15  H   UNL     1      23.499  43.196  47.899  1.00  0.00     0.171 HD
BRANCH  13  16
HETATM   16  C   UNL     1      24.683  41.710  49.546  1.00  0.00     0.066 A 
HETATM   17  C   UNL     1      24.611  41.019  48.327  1.00  0.00     0.089 A 
HETATM   18  C   UNL     1      25.551  40.023  48.016  1.00  0.00    -0.028 A 
HETATM   19  C   UNL     1      25.516  39.287  46.708  1.00  0.00     0.051 C 
HETATM   20  C   UNL     1      26.511  39.678  48.980  1.00  0.00     0.009 A 
HETATM   21  C   UNL     1      26.557  40.334  50.212  1.00  0.00     0.002 A 
HETATM   22  C   UNL     1      25.646  41.350  50.495  1.00  0.00     0.020 A 
BRANCH  17  23
HETATM   23  O   UNL     1      23.654  41.347  47.396  1.00  0.00    -0.354 OA
HETATM   24  C   UNL     1      22.519  40.483  47.535  1.00  0.00     0.210 C 
ENDBRANCH  17  23
ENDBRANCH  13  16
ENDBRANCH  10  12
ENDBRANCH   8  10
ENDBRANCH   2   8
BRANCH   1  25
HETATM   25  N   UNL     1      25.417  46.169  50.517  1.00  0.00    -0.278 NA
HETATM   26  C   UNL     1      25.388  46.267  51.993  1.00  0.00     0.115 C 
HETATM   27  C   UNL     1      25.830  44.930  52.612  1.00  0.00     0.140 C 
HETATM   28  N   UNL     1      27.109  44.434  52.079  1.00  0.00    -0.350 N 
HETATM   29  C   UNL     1      27.811  43.526  52.869  1.00  0.00     0.219 C 
HETATM   30  C   UNL     1      27.255  44.514  50.616  1.00  0.00     0.140 C 
HETATM   31  O   UNL     1      27.504  43.308  54.041  1.00  0.00    -0.273 OA
HETATM   32  C   UNL     1      26.789  45.862  50.031  1.00  0.00     0.115 C 
BRANCH  29  33
HETATM   33  C   UNL     1      28.994  42.824  52.217  1.00  0.00     0.098 C 
HETATM   34  C   UNL     1      30.175  42.674  53.163  1.00  0.00     0.014 C 
ENDBRANCH  29  33
ENDBRANCH   1  25
TORSDOF 7
ENDMDL
MODEL 4
REMARK VINA RESULT:      -8.1      2.912      8.830
REMARK  7 active torsions:
REMARK  status: ('A' for Active; 'I' for Inactive)
REMARK    1  A    between atoms: C_2  and  C_3 
REMARK       I    between atoms: C_3  and  N_4 
REMARK    2  A    between atoms: N_7  and  C_8 
REMARK    3  A    between atoms: C_9  and  N_10 
REMARK    4  A    between atoms: N_10  and  C_11 
REMARK    5  A    between atoms: C_11  and  N_12 
REMARK       I    between atoms: N_12  and  C_13 
REMARK    6  A    between atoms: C_13  and  C_14 
REMARK    7  A    between atoms: C_15  and  O_16 
ROOT
HETATM    1  C   UNL     1      26.665  45.401  53.193  1.00  0.00     0.037 A 
HETATM    2  C   UNL     1      25.830  46.513  52.897  1.00  0.00     0.057 A 
HETATM    3  C   UNL     1      25.740  47.595  53.778  1.00  0.00     0.055 A 
HETATM    4  C   UNL     1      26.511  47.604  54.936  1.00  0.00     0.036 A 
HETATM    5 CL   UNL     1      26.418  48.945  56.010  1.00  0.00    -0.084 Cl
HETATM    6  C   UNL     1      27.348  46.533  55.239  1.00  0.00     0.026 A 
HETATM    7  C   UNL     1      27.417  45.435  54.376  1.00  0.00     0.027 A 
ENDROOT
BRANCH   2   8
HETATM    8  N   UNL     1      25.039  46.415  51.729  1.00  0.00    -0.331 N 
HETATM    9  H   UNL     1      24.353  45.665  51.796  1.00  0.00     0.168 HD
BRANCH   8  10
HETATM   10  C   UNL     1      24.955  47.198  50.633  1.00  0.00     0.179 C 
HETATM   11  S   UNL     1      26.360  47.654  49.848  1.00  0.00    -0.040 SA
BRANCH  10  12
HETATM   12  N   UNL     1      23.768  47.678  50.166  1.00  0.00    -0.299 N 
HETATM   13  C   UNL     1      23.004  47.240  49.087  1.00  0.00     0.260 C 
HETATM   14  O   UNL     1      23.253  46.288  48.355  1.00  0.00    -0.267 OA
HETATM   15  H   UNL     1      23.256  48.218  50.856  1.00  0.00     0.171 HD
BRANCH  13  16
HETATM   16  C   UNL     1      21.763  48.017  48.844  1.00  0.00     0.066 A 
HETATM   17  C   UNL     1      21.729  49.419  48.867  1.00  0.00     0.089 A 
HETATM   18  C   UNL     1      20.550  50.110  48.541  1.00  0.00    -0.028 A 
HETATM   19  C   UNL     1      20.492  51.610  48.529  1.00  0.00     0.051 C 
HETATM   20  C   UNL     1      19.388  49.369  48.271  1.00  0.00     0.009 A 
HETATM   21  C   UNL     1      19.408  47.973  48.291  1.00  0.00     0.002 A 
HETATM   22  C   UNL     1      20.593  47.296  48.575  1.00  0.00     0.020 A 
BRANCH  17  23
HETATM   23  O   UNL     1      22.865  50.139  49.153  1.00  0.00    -0.354 OA
HETATM   24  C   UNL     1      23.572  50.440  47.943  1.00  0.00     0.210 C 
ENDBRANCH  17  23
ENDBRANCH  13  16
ENDBRANCH  10  12
ENDBRANCH   8  10
ENDBRANCH   2   8
BRANCH   1  25
HETATM   25  N   UNL     1      26.727  44.327  52.271  1.00  0.00    -0.278 NA
HETATM   26  C   UNL     1      25.500  43.520  52.088  1.00  0.00     0.115 C 
HETATM   27  C   UNL     1      25.673  42.575  50.886  1.00  0.00     0.140 C 
HETATM   28  N   UNL     1      26.905  41.771  50.948  1.00  0.00    -0.350 N 
HETATM   29  C   UNL     1      26.928  40.596  50.200  1.00  0.00     0.219 C 
HETATM   30  C   UNL     1      28.120  42.509  51.332  1.00  0.00     0.140 C 
HETATM   31  O   UNL     1      25.911  40.131  49.686  1.00  0.00    -0.273 OA
HETATM   32  C   UNL     1      27.903  43.455  52.530  1.00  0.00     0.115 C 
BRANCH  29  33
HETATM   33  C   UNL     1      28.275  39.902  50.059  1.00  0.00     0.098 C 
HETATM   34  C   UNL     1      28.788  39.911  48.628  1.00  0.00     0.014 C 
ENDBRANCH  29  33
ENDBRANCH   1  25
TORSDOF 7
ENDMDL
MODEL 5
REMARK VINA RESULT:      -8.0      3.206      8.510
REMARK  7 active torsions:
REMARK  status: ('A' for Active; 'I' for Inactive)
REMARK    1  A    between atoms: C_2  and  C_3 
REMARK       I    between atoms: C_3  and  N_4 
REMARK    2  A    between atoms: N_7  and  C_8 
REMARK    3  A    between atoms: C_9  and  N_10 
REMARK    4  A    between atoms: N_10  and  C_11 
REMARK    5  A    between atoms: C_11  and  N_12 
REMARK       I    between atoms: N_12  and  C_13 
REMARK    6  A    between atoms: C_13  and  C_14 
REMARK    7  A    between atoms: C_15  and  O_16 
ROOT
HETATM    1  C   UNL     1      25.970  44.983  52.057  1.00  0.00     0.037 A 
HETATM    2  C   UNL     1      25.398  46.285  52.052  1.00  0.00     0.057 A 
HETATM    3  C   UNL     1      25.622  47.169  53.111  1.00  0.00     0.055 A 
HETATM    4  C   UNL     1      26.451  46.788  54.161  1.00  0.00     0.036 A 
HETATM    5 CL   UNL     1      26.746  47.884  55.455  1.00  0.00    -0.084 Cl
HETATM    6  C   UNL     1      27.035  45.524  54.180  1.00  0.00     0.026 A 
HETATM    7  C   UNL     1      26.789  44.625  53.138  1.00  0.00     0.027 A 
ENDROOT
BRANCH   2   8
HETATM    8  N   UNL     1      24.527  46.587  50.980  1.00  0.00    -0.331 N 
HETATM    9  H   UNL     1      23.771  45.909  50.900  1.00  0.00     0.168 HD
BRANCH   8  10
HETATM   10  C   UNL     1      24.457  47.652  50.153  1.00  0.00     0.179 C 
HETATM   11  S   UNL     1      25.862  48.245  49.467  1.00  0.00    -0.040 SA
BRANCH  10  12
HETATM   12  N   UNL     1      23.286  48.301  49.894  1.00  0.00    -0.299 N 
HETATM   13  C   UNL     1      22.893  48.984  48.745  1.00  0.00     0.260 C 
HETATM   14  O   UNL     1      23.538  49.101  47.710  1.00  0.00    -0.267 OA
HETATM   15  H   UNL     1      22.522  48.001  50.491  1.00  0.00     0.171 HD
BRANCH  13  16
HETATM   16  C   UNL     1      21.544  49.599  48.816  1.00  0.00     0.066 A 
HETATM   17  C   UNL     1      20.370  48.842  48.943  1.00  0.00     0.089 A 
HETATM   18  C   UNL     1      19.126  49.475  49.097  1.00  0.00    -0.028 A 
HETATM   19  C   UNL     1      17.857  48.690  49.265  1.00  0.00     0.051 C 
HETATM   20  C   UNL     1      19.072  50.877  49.041  1.00  0.00     0.009 A 
HETATM   21  C   UNL     1      20.233  51.632  48.869  1.00  0.00     0.002 A 
HETATM   22  C   UNL     1      21.469  50.996  48.758  1.00  0.00     0.020 A 
BRANCH  17  23
HETATM   23  O   UNL     1      20.427  47.469  48.977  1.00  0.00    -0.354 OA
HETATM   24  C   UNL     1      20.380  46.943  47.644  1.00  0.00     0.210 C 
ENDBRANCH  17  23
ENDBRANCH  13  16
ENDBRANCH  10  12
ENDBRANCH   8  10
ENDBRANCH   2   8
BRANCH   1  25
HETATM   25  N   UNL     1      25.717  44.121  50.962  1.00  0.00    -0.278 NA
HETATM   26  C   UNL     1      24.560  43.206  51.073  1.00  0.00     0.115 C 
HETATM   27  C   UNL     1      24.293  42.536  49.714  1.00  0.00     0.140 C 
HETATM   28  N   UNL     1      25.488  41.908  49.127  1.00  0.00    -0.350 N 
HETATM   29  C   UNL     1      25.274  40.909  48.180  1.00  0.00     0.219 C 
HETATM   30  C   UNL     1      26.717  42.716  49.186  1.00  0.00     0.140 C 
HETATM   31  O   UNL     1      24.160  40.417  47.993  1.00  0.00    -0.273 OA
HETATM   32  C   UNL     1      26.943  43.381  50.559  1.00  0.00     0.115 C 
BRANCH  29  33
HETATM   33  C   UNL     1      26.489  40.440  47.394  1.00  0.00     0.098 C 
HETATM   34  C   UNL     1      27.096  39.169  47.966  1.00  0.00     0.014 C 
ENDBRANCH  29  33
ENDBRANCH   1  25
TORSDOF 7
ENDMDL
MODEL 6
REMARK VINA RESULT:      -7.9      3.271      7.275
REMARK  7 active torsions:
REMARK  status: ('A' for Active; 'I' for Inactive)
REMARK    1  A    between atoms: C_2  and  C_3 
REMARK       I    between atoms: C_3  and  N_4 
REMARK    2  A    between atoms: N_7  and  C_8 
REMARK    3  A    between atoms: C_9  and  N_10 
REMARK    4  A    between atoms: N_10  and  C_11 
REMARK    5  A    between atoms: C_11  and  N_12 
REMARK       I    between atoms: N_12  and  C_13 
REMARK    6  A    between atoms: C_13  and  C_14 
REMARK    7  A    between atoms: C_15  and  O_16 
ROOT
HETATM    1  C   UNL     1      26.222  45.789  51.386  1.00  0.00     0.037 A 
HETATM    2  C   UNL     1      26.420  44.425  51.036  1.00  0.00     0.057 A 
HETATM    3  C   UNL     1      26.797  43.486  52.000  1.00  0.00     0.055 A 
HETATM    4  C   UNL     1      26.937  43.882  53.327  1.00  0.00     0.036 A 
HETATM    5 CL   UNL     1      27.379  42.723  54.519  1.00  0.00    -0.084 Cl
HETATM    6  C   UNL     1      26.733  45.209  53.696  1.00  0.00     0.026 A 
HETATM    7  C   UNL     1      26.385  46.157  52.729  1.00  0.00     0.027 A 
ENDROOT
BRANCH   2   8
HETATM    8  N   UNL     1      26.310  44.103  49.663  1.00  0.00    -0.331 N 
HETATM    9  H   UNL     1      27.167  44.310  49.153  1.00  0.00     0.168 HD
BRANCH   8  10
HETATM   10  C   UNL     1      25.341  43.475  48.963  1.00  0.00     0.179 C 
HETATM   11  S   UNL     1      25.412  41.812  48.788  1.00  0.00    -0.040 SA
BRANCH  10  12
HETATM   12  N   UNL     1      24.330  44.149  48.345  1.00  0.00    -0.299 N 
HETATM   13  C   UNL     1      22.958  44.079  48.572  1.00  0.00     0.260 C 
HETATM   14  O   UNL     1      22.393  43.400  49.421  1.00  0.00    -0.267 OA
HETATM   15  H   UNL     1      24.641  44.995  47.879  1.00  0.00     0.171 HD
BRANCH  13  16
HETATM   16  C   UNL     1      22.135  44.944  47.690  1.00  0.00     0.066 A 
HETATM   17  C   UNL     1      22.260  44.941  46.293  1.00  0.00     0.089 A 
HETATM   18  C   UNL     1      21.396  45.710  45.497  1.00  0.00    -0.028 A 
HETATM   19  C   UNL     1      21.489  45.704  43.999  1.00  0.00     0.051 C 
HETATM   20  C   UNL     1      20.459  46.541  46.130  1.00  0.00     0.009 A 
HETATM   21  C   UNL     1      20.361  46.580  47.523  1.00  0.00     0.002 A 
HETATM   22  C   UNL     1      21.196  45.782  48.303  1.00  0.00     0.020 A 
BRANCH  17  23
HETATM   23  O   UNL     1      23.195  44.141  45.679  1.00  0.00    -0.354 OA
HETATM   24  C   UNL     1      22.639  42.844  45.424  1.00  0.00     0.210 C 
ENDBRANCH  17  23
ENDBRANCH  13  16
ENDBRANCH  10  12
ENDBRANCH   8  10
ENDBRANCH   2   8
BRANCH   1  25
HETATM   25  N   UNL     1      25.839  46.705  50.376  1.00  0.00    -0.278 NA
HETATM   26  C   UNL     1      26.704  47.887  50.169  1.00  0.00     0.115 C 
HETATM   27  C   UNL     1      26.280  48.625  48.887  1.00  0.00     0.140 C 
HETATM   28  N   UNL     1      24.841  48.932  48.838  1.00  0.00    -0.350 N 
HETATM   29  C   UNL     1      24.446  49.967  47.995  1.00  0.00     0.219 C 
HETATM   30  C   UNL     1      23.949  47.832  49.241  1.00  0.00     0.140 C 
HETATM   31  O   UNL     1      25.260  50.735  47.479  1.00  0.00    -0.273 OA
HETATM   32  C   UNL     1      24.414  47.108  50.520  1.00  0.00     0.115 C 
BRANCH  29  33
HETATM   33  C   UNL     1      22.952  50.118  47.750  1.00  0.00     0.098 C 
HETATM   34  C   UNL     1      22.314  51.151  48.666  1.00  0.00     0.014 C 
ENDBRANCH  29  33
ENDBRANCH   1  25
TORSDOF 7
ENDMDL
MODEL 7
REMARK VINA RESULT:      -7.9      3.603      5.549
REMARK  7 active torsions:
REMARK  status: ('A' for Active; 'I' for Inactive)
REMARK    1  A    between atoms: C_2  and  C_3 
REMARK       I    between atoms: C_3  and  N_4 
REMARK    2  A    between atoms: N_7  and  C_8 
REMARK    3  A    between atoms: C_9  and  N_10 
REMARK    4  A    between atoms: N_10  and  C_11 
REMARK    5  A    between atoms: C_11  and  N_12 
REMARK       I    between atoms: N_12  and  C_13 
REMARK    6  A    between atoms: C_13  and  C_14 
REMARK    7  A    between atoms: C_15  and  O_16 
ROOT
HETATM    1  C   UNL     1      21.195  50.233  48.664  1.00  0.00     0.037 A 
HETATM    2  C   UNL     1      21.644  48.963  49.120  1.00  0.00     0.057 A 
HETATM    3  C   UNL     1      23.008  48.658  49.157  1.00  0.00     0.055 A 
HETATM    4  C   UNL     1      23.938  49.623  48.786  1.00  0.00     0.036 A 
HETATM    5 CL   UNL     1      25.619  49.257  48.853  1.00  0.00    -0.084 Cl
HETATM    6  C   UNL     1      23.523  50.879  48.351  1.00  0.00     0.026 A 
HETATM    7  C   UNL     1      22.158  51.178  48.283  1.00  0.00     0.027 A 
ENDROOT
BRANCH   2   8
HETATM    8  N   UNL     1      20.643  48.015  49.433  1.00  0.00    -0.331 N 
HETATM    9  H   UNL     1      20.072  48.310  50.223  1.00  0.00     0.168 HD
BRANCH   8  10
HETATM   10  C   UNL     1      20.248  46.886  48.807  1.00  0.00     0.179 C 
HETATM   11  S   UNL     1      18.735  46.835  48.095  1.00  0.00    -0.040 SA
BRANCH  10  12
HETATM   12  N   UNL     1      21.017  45.760  48.775  1.00  0.00    -0.299 N 
HETATM   13  C   UNL     1      21.947  45.355  47.821  1.00  0.00     0.260 C 
HETATM   14  O   UNL     1      22.279  45.975  46.817  1.00  0.00    -0.267 OA
HETATM   15  H   UNL     1      21.128  45.326  49.686  1.00  0.00     0.171 HD
BRANCH  13  16
HETATM   16  C   UNL     1      22.592  44.046  48.094  1.00  0.00     0.066 A 
HETATM   17  C   UNL     1      23.477  43.844  49.163  1.00  0.00     0.089 A 
HETATM   18  C   UNL     1      23.990  42.565  49.433  1.00  0.00    -0.028 A 
HETATM   19  C   UNL     1      24.916  42.315  50.588  1.00  0.00     0.051 C 
HETATM   20  C   UNL     1      23.663  41.512  48.565  1.00  0.00     0.009 A 
HETATM   21  C   UNL     1      22.817  41.719  47.474  1.00  0.00     0.002 A 
HETATM   22  C   UNL     1      22.280  42.983  47.237  1.00  0.00     0.020 A 
BRANCH  17  23
HETATM   23  O   UNL     1      23.810  44.885  49.997  1.00  0.00    -0.354 OA
HETATM   24  C   UNL     1      24.994  45.537  49.519  1.00  0.00     0.210 C 
ENDBRANCH  17  23
ENDBRANCH  13  16
ENDBRANCH  10  12
ENDBRANCH   8  10
ENDBRANCH   2   8
BRANCH   1  25
HETATM   25  N   UNL     1      19.803  50.499  48.644  1.00  0.00    -0.278 NA
HETATM   26  C   UNL     1      19.222  50.975  47.369  1.00  0.00     0.115 C 
HETATM   27  C   UNL     1      17.686  50.970  47.463  1.00  0.00     0.140 C 
HETATM   28  N   UNL     1      17.171  51.677  48.647  1.00  0.00    -0.350 N 
HETATM   29  C   UNL     1      15.855  52.129  48.587  1.00  0.00     0.219 C 
HETATM   30  C   UNL     1      17.868  51.381  49.910  1.00  0.00     0.140 C 
HETATM   31  O   UNL     1      15.216  52.139  47.534  1.00  0.00    -0.273 OA
HETATM   32  C   UNL     1      19.403  51.381  49.772  1.00  0.00     0.115 C 
BRANCH  29  33
HETATM   33  C   UNL     1      15.244  52.629  49.888  1.00  0.00     0.098 C 
HETATM   34  C   UNL     1      15.543  54.098  50.144  1.00  0.00     0.014 C 
ENDBRANCH  29  33
ENDBRANCH   1  25
TORSDOF 7
ENDMDL
MODEL 8
REMARK VINA RESULT:      -7.8      5.589      9.294
REMARK  7 active torsions:
REMARK  status: ('A' for Active; 'I' for Inactive)
REMARK    1  A    between atoms: C_2  and  C_3 
REMARK       I    between atoms: C_3  and  N_4 
REMARK    2  A    between atoms: N_7  and  C_8 
REMARK    3  A    between atoms: C_9  and  N_10 
REMARK    4  A    between atoms: N_10  and  C_11 
REMARK    5  A    between atoms: C_11  and  N_12 
REMARK       I    between atoms: N_12  and  C_13 
REMARK    6  A    between atoms: C_13  and  C_14 
REMARK    7  A    between atoms: C_15  and  O_16 
ROOT
HETATM    1  C   UNL     1      20.978  50.140  48.698  1.00  0.00     0.037 A 
HETATM    2  C   UNL     1      21.344  48.839  49.141  1.00  0.00     0.057 A 
HETATM    3  C   UNL     1      22.688  48.464  49.224  1.00  0.00     0.055 A 
HETATM    4  C   UNL     1      23.680  49.388  48.913  1.00  0.00     0.036 A 
HETATM    5 CL   UNL     1      25.336  48.934  49.037  1.00  0.00    -0.084 Cl
HETATM    6  C   UNL     1      23.346  50.672  48.493  1.00  0.00     0.026 A 
HETATM    7  C   UNL     1      22.003  51.042  48.379  1.00  0.00     0.027 A 
ENDROOT
BRANCH   2   8
HETATM    8  N   UNL     1      20.284  47.937  49.391  1.00  0.00    -0.331 N 
HETATM    9  H   UNL     1      19.891  48.061  50.322  1.00  0.00     0.168 HD
BRANCH   8  10
HETATM   10  C   UNL     1      19.646  47.057  48.590  1.00  0.00     0.179 C 
HETATM   11  S   UNL     1      20.197  45.480  48.508  1.00  0.00    -0.040 SA
BRANCH  10  12
HETATM   12  N   UNL     1      18.595  47.418  47.800  1.00  0.00    -0.299 N 
HETATM   13  C   UNL     1      17.230  47.260  48.026  1.00  0.00     0.260 C 
HETATM   14  O   UNL     1      16.705  46.782  49.024  1.00  0.00    -0.267 OA
HETATM   15  H   UNL     1      18.833  48.133  47.120  1.00  0.00     0.171 HD
BRANCH  13  16
HETATM   16  C   UNL     1      16.355  47.751  46.930  1.00  0.00     0.066 A 
HETATM   17  C   UNL     1      16.529  47.369  45.592  1.00  0.00     0.089 A 
HETATM   18  C   UNL     1      15.620  47.788  44.606  1.00  0.00    -0.028 A 
HETATM   19  C   UNL     1      15.765  47.371  43.171  1.00  0.00     0.051 C 
HETATM   20  C   UNL     1      14.584  48.661  44.974  1.00  0.00     0.009 A 
HETATM   21  C   UNL     1      14.435  49.078  46.298  1.00  0.00     0.002 A 
HETATM   22  C   UNL     1      15.317  48.624  47.277  1.00  0.00     0.020 A 
BRANCH  17  23
HETATM   23  O   UNL     1      17.559  46.531  45.235  1.00  0.00    -0.354 OA
HETATM   24  C   UNL     1      17.152  45.164  45.379  1.00  0.00     0.210 C 
ENDBRANCH  17  23
ENDBRANCH  13  16
ENDBRANCH  10  12
ENDBRANCH   8  10
ENDBRANCH   2   8
BRANCH   1  25
HETATM   25  N   UNL     1      19.604  50.478  48.630  1.00  0.00    -0.278 NA
HETATM   26  C   UNL     1      19.140  51.192  47.420  1.00  0.00     0.115 C 
HETATM   27  C   UNL     1      17.603  51.251  47.408  1.00  0.00     0.140 C 
HETATM   28  N   UNL     1      17.028  51.773  48.658  1.00  0.00    -0.350 N 
HETATM   29  C   UNL     1      15.739  52.297  48.588  1.00  0.00     0.219 C 
HETATM   30  C   UNL     1      17.614  51.231  49.895  1.00  0.00     0.140 C 
HETATM   31  O   UNL     1      15.183  52.518  47.511  1.00  0.00    -0.273 OA
HETATM   32  C   UNL     1      19.154  51.175  49.864  1.00  0.00     0.115 C 
BRANCH  29  33
HETATM   33  C   UNL     1      15.051  52.600  49.911  1.00  0.00     0.098 C 
HETATM   34  C   UNL     1      14.028  53.718  49.791  1.00  0.00     0.014 C 
ENDBRANCH  29  33
ENDBRANCH   1  25
TORSDOF 7
ENDMDL
MODEL 9
REMARK VINA RESULT:      -7.6      3.240      8.293
REMARK  7 active torsions:
REMARK  status: ('A' for Active; 'I' for Inactive)
REMARK    1  A    between atoms: C_2  and  C_3 
REMARK       I    between atoms: C_3  and  N_4 
REMARK    2  A    between atoms: N_7  and  C_8 
REMARK    3  A    between atoms: C_9  and  N_10 
REMARK    4  A    between atoms: N_10  and  C_11 
REMARK    5  A    between atoms: C_11  and  N_12 
REMARK       I    between atoms: N_12  and  C_13 
REMARK    6  A    between atoms: C_13  and  C_14 
REMARK    7  A    between atoms: C_15  and  O_16 
ROOT
HETATM    1  C   UNL     1      26.788  44.873  52.952  1.00  0.00     0.037 A 
HETATM    2  C   UNL     1      25.718  45.806  52.866  1.00  0.00     0.057 A 
HETATM    3  C   UNL     1      25.672  46.921  53.707  1.00  0.00     0.055 A 
HETATM    4  C   UNL     1      26.708  47.146  54.608  1.00  0.00     0.036 A 
HETATM    5 CL   UNL     1      26.664  48.531  55.629  1.00  0.00    -0.084 Cl
HETATM    6  C   UNL     1      27.774  46.255  54.699  1.00  0.00     0.026 A 
HETATM    7  C   UNL     1      27.809  45.122  53.881  1.00  0.00     0.027 A 
ENDROOT
BRANCH   2   8
HETATM    8  N   UNL     1      24.675  45.488  51.965  1.00  0.00    -0.331 N 
HETATM    9  H   UNL     1      23.908  45.002  52.425  1.00  0.00     0.168 HD
BRANCH   8  10
HETATM   10  C   UNL     1      24.475  45.820  50.672  1.00  0.00     0.179 C 
HETATM   11  S   UNL     1      24.879  47.358  50.153  1.00  0.00    -0.040 SA
BRANCH  10  12
HETATM   12  N   UNL     1      23.906  44.963  49.777  1.00  0.00    -0.299 N 
HETATM   13  C   UNL     1      23.400  43.682  49.984  1.00  0.00     0.260 C 
HETATM   14  O   UNL     1      23.344  43.084  51.051  1.00  0.00    -0.267 OA
HETATM   15  H   UNL     1      23.555  45.428  48.946  1.00  0.00     0.171 HD
BRANCH  13  16
HETATM   16  C   UNL     1      22.869  43.017  48.767  1.00  0.00     0.066 A 
HETATM   17  C   UNL     1      22.083  43.687  47.818  1.00  0.00     0.089 A 
HETATM   18  C   UNL     1      21.681  43.038  46.639  1.00  0.00    -0.028 A 
HETATM   19  C   UNL     1      20.864  43.740  45.592  1.00  0.00     0.051 C 
HETATM   20  C   UNL     1      22.012  41.685  46.469  1.00  0.00     0.009 A 
HETATM   21  C   UNL     1      22.755  41.002  47.433  1.00  0.00     0.002 A 
HETATM   22  C   UNL     1      23.186  41.666  48.581  1.00  0.00     0.020 A 
BRANCH  17  23
HETATM   23  O   UNL     1      21.745  45.007  48.001  1.00  0.00    -0.354 OA
HETATM   24  C   UNL     1      20.477  45.100  48.664  1.00  0.00     0.210 C 
ENDBRANCH  17  23
ENDBRANCH  13  16
ENDBRANCH  10  12
ENDBRANCH   8  10
ENDBRANCH   2   8
BRANCH   1  25
HETATM   25  N   UNL     1      26.795  43.757  52.079  1.00  0.00    -0.278 NA
HETATM   26  C   UNL     1      27.370  42.496  52.595  1.00  0.00     0.115 C 
HETATM   27  C   UNL     1      27.068  41.347  51.617  1.00  0.00     0.140 C 
HETATM   28  N   UNL     1      27.453  41.646  50.228  1.00  0.00    -0.350 N 
HETATM   29  C   UNL     1      27.660  40.558  49.384  1.00  0.00     0.219 C 
HETATM   30  C   UNL     1      27.074  42.984  49.744  1.00  0.00     0.140 C 
HETATM   31  O   UNL     1      27.735  39.406  49.812  1.00  0.00    -0.273 OA
HETATM   32  C   UNL     1      27.379  44.106  50.757  1.00  0.00     0.115 C 
BRANCH  29  33
HETATM   33  C   UNL     1      27.807  40.862  47.900  1.00  0.00     0.098 C 
HETATM   34  C   UNL     1      28.040  39.609  47.070  1.00  0.00     0.014 C 
ENDBRANCH  29  33
ENDBRANCH   1  25
TORSDOF 7
ENDMDL
MODEL 10
REMARK VINA RESULT:      -7.5      3.151      9.432
REMARK  7 active torsions:
REMARK  status: ('A' for Active; 'I' for Inactive)
REMARK    1  A    between atoms: C_2  and  C_3 
REMARK       I    between atoms: C_3  and  N_4 
REMARK    2  A    between atoms: N_7  and  C_8 
REMARK    3  A    between atoms: C_9  and  N_10 
REMARK    4  A    between atoms: N_10  and  C_11 
REMARK    5  A    between atoms: C_11  and  N_12 
REMARK       I    between atoms: N_12  and  C_13 
REMARK    6  A    between atoms: C_13  and  C_14 
REMARK    7  A    between atoms: C_15  and  O_16 
ROOT
HETATM    1  C   UNL     1      23.307  44.725  48.630  1.00  0.00     0.037 A 
HETATM    2  C   UNL     1      22.453  45.852  48.477  1.00  0.00     0.057 A 
HETATM    3  C   UNL     1      21.416  45.841  47.539  1.00  0.00     0.055 A 
HETATM    4  C   UNL     1      21.188  44.698  46.779  1.00  0.00     0.036 A 
HETATM    5 CL   UNL     1      19.898  44.675  45.641  1.00  0.00    -0.084 Cl
HETATM    6  C   UNL     1      22.002  43.577  46.923  1.00  0.00     0.026 A 
HETATM    7  C   UNL     1      23.059  43.595  47.837  1.00  0.00     0.027 A 
ENDROOT
BRANCH   2   8
HETATM    8  N   UNL     1      22.773  46.995  49.246  1.00  0.00    -0.331 N 
HETATM    9  H   UNL     1      22.932  46.763  50.224  1.00  0.00     0.168 HD
BRANCH   8  10
HETATM   10  C   UNL     1      23.018  48.274  48.892  1.00  0.00     0.179 C 
HETATM   11  S   UNL     1      24.582  48.861  48.992  1.00  0.00    -0.040 SA
BRANCH  10  12
HETATM   12  N   UNL     1      22.029  49.128  48.504  1.00  0.00    -0.299 N 
HETATM   13  C   UNL     1      20.722  49.232  48.972  1.00  0.00     0.260 C 
HETATM   14  O   UNL     1      20.215  48.575  49.873  1.00  0.00    -0.267 OA
HETATM   15  H   UNL     1      22.379  49.957  48.034  1.00  0.00     0.171 HD
BRANCH  13  16
HETATM   16  C   UNL     1      19.899  50.270  48.300  1.00  0.00     0.066 A 
HETATM   17  C   UNL     1      19.291  50.065  47.053  1.00  0.00     0.089 A 
HETATM   18  C   UNL     1      18.447  51.043  46.501  1.00  0.00    -0.028 A 
HETATM   19  C   UNL     1      17.760  50.839  45.182  1.00  0.00     0.051 C 
HETATM   20  C   UNL     1      18.290  52.260  47.184  1.00  0.00     0.009 A 
HETATM   21  C   UNL     1      18.930  52.484  48.405  1.00  0.00     0.002 A 
HETATM   22  C   UNL     1      19.732  51.491  48.965  1.00  0.00     0.020 A 
BRANCH  17  23
HETATM   23  O   UNL     1      19.466  48.880  46.379  1.00  0.00    -0.354 OA
HETATM   24  C   UNL     1      18.465  47.935  46.779  1.00  0.00     0.210 C 
ENDBRANCH  17  23
ENDBRANCH  13  16
ENDBRANCH  10  12
ENDBRANCH   8  10
ENDBRANCH   2   8
BRANCH   1  25
HETATM   25  N   UNL     1      24.345  44.779  49.593  1.00  0.00    -0.278 NA
HETATM   26  C   UNL     1      25.639  44.162  49.230  1.00  0.00     0.115 C 
HETATM   27  C   UNL     1      26.704  44.532  50.278  1.00  0.00     0.140 C 
HETATM   28  N   UNL     1      26.285  44.254  51.661  1.00  0.00    -0.350 N 
HETATM   29  C   UNL     1      27.295  44.106  52.608  1.00  0.00     0.219 C 
HETATM   30  C   UNL     1      24.914  44.673  51.999  1.00  0.00     0.140 C 
HETATM   31  O   UNL     1      28.479  43.994  52.286  1.00  0.00    -0.273 OA
HETATM   32  C   UNL     1      23.879  44.297  50.921  1.00  0.00     0.115 C 
BRANCH  29  33
HETATM   33  C   UNL     1      26.865  44.072  54.068  1.00  0.00     0.098 C 
HETATM   34  C   UNL     1      27.648  45.052  54.927  1.00  0.00     0.014 C 
ENDBRANCH  29  33
ENDBRANCH   1  25
TORSDOF 7
ENDMDL
