MODEL 1
REMARK VINA RESULT:      -9.5      0.000      0.000
REMARK  4 active torsions:
REMARK  status: ('A' for Active; 'I' for Inactive)
REMARK    1  A    between atoms: C_2  and  N_3 
REMARK    2  A    between atoms: N_7  and  C_9 
REMARK    3  A    between atoms: C_9  and  C_10 
REMARK    4  A    between atoms: C_13  and  C_14 
ROOT
HETATM    1  N   UNL     1      27.058  43.852  53.168  1.00  0.00    -0.398 N 
HETATM    2  C   UNL     1      26.755  43.610  51.698  1.00  0.00     0.075 C 
HETATM    3  C   UNL     1      27.188  44.706  50.687  1.00  0.00     0.065 C 
HETATM    4  C   UNL     1      26.433  46.023  50.724  1.00  0.00     0.238 C 
HETATM    5  N   UNL     1      24.938  45.857  50.859  1.00  0.00    -0.065 N 
HETATM    6  H   UNL     1      24.630  46.734  51.302  1.00  0.00     0.280 HD
HETATM    7  C   UNL     1      24.503  44.792  51.836  1.00  0.00     0.238 C 
HETATM    8  C   UNL     1      25.219  43.472  51.581  1.00  0.00     0.065 C 
HETATM    9  C   UNL     1      27.418  42.320  51.218  1.00  0.00     0.061 A 
HETATM   10  C   UNL     1      28.365  41.614  51.928  1.00  0.00     0.037 A 
HETATM   11  N   UNL     1      28.709  40.522  51.167  1.00  0.00    -0.354 N 
HETATM   12  H   UNL     1      29.384  39.803  51.430  1.00  0.00     0.166 HD
HETATM   13  C   UNL     1      28.002  40.502  50.033  1.00  0.00     0.181 A 
HETATM   14  N   UNL     1      27.215  41.591  50.052  1.00  0.00    -0.352 N 
HETATM   15  H   UNL     1      26.561  41.800  49.303  1.00  0.00     0.166 HD
HETATM   16  C   UNL     1      28.790  41.968  53.285  1.00  0.00     0.078 C 
HETATM   17  C   UNL     1      27.569  42.663  53.924  1.00  0.00     0.124 C 
ENDROOT
BRANCH   5  18
HETATM   18  C   UNL     1      24.156  45.886  49.538  1.00  0.00     0.301 C 
BRANCH  18  19
HETATM   19  C   UNL     1      23.619  47.238  49.272  1.00  0.00     0.107 C 
HETATM   20  O   UNL     1      24.252  48.255  49.906  1.00  0.00    -0.216 OA
HETATM   21  N   UNL     1      23.445  49.366  49.898  1.00  0.00    -0.128 NA
HETATM   22  C   UNL     1      22.335  49.039  49.218  1.00  0.00     0.097 C 
HETATM   23  C   UNL     1      22.457  47.712  48.707  1.00  0.00     0.071 C 
BRANCH  22  24
HETATM   24  C   UNL     1      21.147  49.894  49.199  1.00  0.00    -0.005 A 
HETATM   25  C   UNL     1      21.154  51.090  48.464  1.00  0.00     0.014 A 
HETATM   26  C   UNL     1      20.080  51.980  48.537  1.00  0.00     0.001 A 
HETATM   27  C   UNL     1      18.984  51.682  49.341  1.00  0.00     0.000 A 
HETATM   28  C   UNL     1      18.952  50.488  50.059  1.00  0.00     0.001 A 
HETATM   29  C   UNL     1      20.027  49.598  49.989  1.00  0.00     0.014 A 
ENDBRANCH  22  24
ENDBRANCH  18  19
ENDBRANCH   5  18
BRANCH   1  30
HETATM   30  C   UNL     1      27.744  45.094  53.552  1.00  0.00     0.113 C 
HETATM   31  C   UNL     1      28.029  45.280  55.046  1.00  0.00     0.026 C 
ENDBRANCH   1  30
TORSDOF 4
ENDMDL
MODEL 2
REMARK VINA RESULT:      -9.1      4.054      7.546
REMARK  4 active torsions:
REMARK  status: ('A' for Active; 'I' for Inactive)
REMARK    1  A    between atoms: C_2  and  N_3 
REMARK    2  A    between atoms: N_7  and  C_9 
REMARK    3  A    between atoms: C_9  and  C_10 
REMARK    4  A    between atoms: C_13  and  C_14 
ROOT
HETATM    1  N   UNL     1      25.256  42.412  49.103  1.00  0.00    -0.398 N 
HETATM    2  C   UNL     1      26.004  42.924  50.324  1.00  0.00     0.075 C 
HETATM    3  C   UNL     1      25.160  43.362  51.552  1.00  0.00     0.065 C 
HETATM    4  C   UNL     1      24.333  44.628  51.409  1.00  0.00     0.238 C 
HETATM    5  N   UNL     1      25.070  45.756  50.727  1.00  0.00    -0.065 N 
HETATM    6  H   UNL     1      24.319  46.329  50.316  1.00  0.00     0.280 HD
HETATM    7  C   UNL     1      25.897  45.343  49.535  1.00  0.00     0.238 C 
HETATM    8  C   UNL     1      26.805  44.165  49.863  1.00  0.00     0.065 C 
HETATM    9  C   UNL     1      26.971  41.862  50.846  1.00  0.00     0.061 A 
HETATM   10  C   UNL     1      26.981  40.545  50.442  1.00  0.00     0.037 A 
HETATM   11  N   UNL     1      27.990  39.918  51.132  1.00  0.00    -0.354 N 
HETATM   12  H   UNL     1      28.251  38.935  51.043  1.00  0.00     0.166 HD
HETATM   13  C   UNL     1      28.623  40.788  51.925  1.00  0.00     0.181 A 
HETATM   14  N   UNL     1      28.012  41.973  51.760  1.00  0.00    -0.352 N 
HETATM   15  H   UNL     1      28.318  42.813  52.244  1.00  0.00     0.166 HD
HETATM   16  C   UNL     1      26.116  40.016  49.383  1.00  0.00     0.078 C 
HETATM   17  C   UNL     1      25.853  41.209  48.440  1.00  0.00     0.124 C 
ENDROOT
BRANCH   5  18
HETATM   18  C   UNL     1      25.745  46.760  51.671  1.00  0.00     0.301 C 
BRANCH  18  19
HETATM   19  C   UNL     1      26.333  46.072  52.842  1.00  0.00     0.107 C 
HETATM   20  O   UNL     1      25.858  46.461  54.050  1.00  0.00    -0.216 OA
HETATM   21  N   UNL     1      26.730  46.058  55.031  1.00  0.00    -0.128 NA
HETATM   22  C   UNL     1      27.717  45.381  54.423  1.00  0.00     0.097 C 
HETATM   23  C   UNL     1      27.440  45.276  53.028  1.00  0.00     0.071 C 
BRANCH  22  24
HETATM   24  C   UNL     1      28.947  44.997  55.117  1.00  0.00    -0.005 A 
HETATM   25  C   UNL     1      29.575  43.778  54.812  1.00  0.00     0.014 A 
HETATM   26  C   UNL     1      30.673  43.335  55.552  1.00  0.00     0.001 A 
HETATM   27  C   UNL     1      31.162  44.108  56.601  1.00  0.00     0.000 A 
HETATM   28  C   UNL     1      30.564  45.331  56.902  1.00  0.00     0.001 A 
HETATM   29  C   UNL     1      29.462  45.774  56.165  1.00  0.00     0.014 A 
ENDBRANCH  22  24
ENDBRANCH  18  19
ENDBRANCH   5  18
BRANCH   1  30
HETATM   30  C   UNL     1      23.788  42.353  49.150  1.00  0.00     0.113 C 
HETATM   31  C   UNL     1      23.039  43.296  48.203  1.00  0.00     0.026 C 
ENDBRANCH   1  30
TORSDOF 4
ENDMDL
MODEL 3
REMARK VINA RESULT:      -8.7      5.516      8.466
REMARK  4 active torsions:
REMARK  status: ('A' for Active; 'I' for Inactive)
REMARK    1  A    between atoms: C_2  and  N_3 
REMARK    2  A    between atoms: N_7  and  C_9 
REMARK    3  A    between atoms: C_9  and  C_10 
REMARK    4  A    between atoms: C_13  and  C_14 
ROOT
HETATM    1  N   UNL     1      27.296  39.994  47.929  1.00  0.00    -0.398 N 
HETATM    2  C   UNL     1      27.427  40.206  49.429  1.00  0.00     0.075 C 
HETATM    3  C   UNL     1      26.146  40.040  50.292  1.00  0.00     0.065 C 
HETATM    4  C   UNL     1      25.066  41.097  50.141  1.00  0.00     0.238 C 
HETATM    5  N   UNL     1      25.605  42.507  50.091  1.00  0.00    -0.065 N 
HETATM    6  H   UNL     1      24.887  43.028  49.567  1.00  0.00     0.280 HD
HETATM    7  C   UNL     1      26.851  42.681  49.260  1.00  0.00     0.238 C 
HETATM    8  C   UNL     1      27.918  41.659  49.628  1.00  0.00     0.065 C 
HETATM    9  C   UNL     1      28.452  39.239  50.021  1.00  0.00     0.061 A 
HETATM   10  C   UNL     1      28.986  38.159  49.353  1.00  0.00     0.037 A 
HETATM   11  N   UNL     1      29.864  37.545  50.215  1.00  0.00    -0.354 N 
HETATM   12  H   UNL     1      30.423  36.718  50.005  1.00  0.00     0.166 HD
HETATM   13  C   UNL     1      29.919  38.208  51.374  1.00  0.00     0.181 A 
HETATM   14  N   UNL     1      29.064  39.239  51.269  1.00  0.00    -0.352 N 
HETATM   15  H   UNL     1      28.932  39.913  52.018  1.00  0.00     0.166 HD
HETATM   16  C   UNL     1      28.704  37.855  47.948  1.00  0.00     0.078 C 
HETATM   17  C   UNL     1      28.406  39.219  47.289  1.00  0.00     0.124 C 
ENDROOT
BRANCH   5  18
HETATM   18  C   UNL     1      25.609  43.251  51.434  1.00  0.00     0.301 C 
BRANCH  18  19
HETATM   19  C   UNL     1      26.912  43.099  52.118  1.00  0.00     0.107 C 
HETATM   20  O   UNL     1      27.196  41.851  52.564  1.00  0.00    -0.216 OA
HETATM   21  N   UNL     1      28.204  41.922  53.495  1.00  0.00    -0.128 NA
HETATM   22  C   UNL     1      28.566  43.212  53.583  1.00  0.00     0.097 C 
HETATM   23  C   UNL     1      27.831  43.983  52.634  1.00  0.00     0.071 C 
BRANCH  22  24
HETATM   24  C   UNL     1      29.451  43.707  54.638  1.00  0.00    -0.005 A 
HETATM   25  C   UNL     1      30.473  42.886  55.141  1.00  0.00     0.014 A 
HETATM   26  C   UNL     1      31.243  43.291  56.234  1.00  0.00     0.001 A 
HETATM   27  C   UNL     1      31.005  44.524  56.833  1.00  0.00     0.000 A 
HETATM   28  C   UNL     1      30.009  45.360  56.332  1.00  0.00     0.001 A 
HETATM   29  C   UNL     1      29.235  44.955  55.240  1.00  0.00     0.014 A 
ENDBRANCH  22  24
ENDBRANCH  18  19
ENDBRANCH   5  18
BRANCH   1  30
HETATM   30  C   UNL     1      25.979  39.641  47.379  1.00  0.00     0.113 C 
HETATM   31  C   UNL     1      25.351  40.652  46.415  1.00  0.00     0.026 C 
ENDBRANCH   1  30
TORSDOF 4
ENDMDL
MODEL 4
REMARK VINA RESULT:      -8.4      5.798      8.709
REMARK  4 active torsions:
REMARK  status: ('A' for Active; 'I' for Inactive)
REMARK    1  A    between atoms: C_2  and  N_3 
REMARK    2  A    between atoms: N_7  and  C_9 
REMARK    3  A    between atoms: C_9  and  C_10 
REMARK    4  A    between atoms: C_13  and  C_14 
ROOT
HETATM    1  N   UNL     1      26.941  38.392  47.953  1.00  0.00    -0.398 N 
HETATM    2  C   UNL     1      27.226  39.849  47.625  1.00  0.00     0.075 C 
HETATM    3  C   UNL     1      28.417  40.530  48.355  1.00  0.00     0.065 C 
HETATM    4  C   UNL     1      28.260  40.796  49.841  1.00  0.00     0.238 C 
HETATM    5  N   UNL     1      26.904  41.347  50.215  1.00  0.00    -0.065 N 
HETATM    6  H   UNL     1      26.784  41.063  51.198  1.00  0.00     0.280 HD
HETATM    7  C   UNL     1      25.739  40.698  49.511  1.00  0.00     0.238 C 
HETATM    8  C   UNL     1      25.954  40.645  48.004  1.00  0.00     0.065 C 
HETATM    9  C   UNL     1      27.505  40.020  46.132  1.00  0.00     0.061 A 
HETATM   10  C   UNL     1      27.727  38.983  45.253  1.00  0.00     0.037 A 
HETATM   11  N   UNL     1      27.934  39.540  44.014  1.00  0.00    -0.354 N 
HETATM   12  H   UNL     1      28.117  39.024  43.153  1.00  0.00     0.166 HD
HETATM   13  C   UNL     1      27.824  40.871  44.078  1.00  0.00     0.181 A 
HETATM   14  N   UNL     1      27.564  41.174  45.360  1.00  0.00    -0.352 N 
HETATM   15  H   UNL     1      27.418  42.131  45.673  1.00  0.00     0.166 HD
HETATM   16  C   UNL     1      27.632  37.569  45.628  1.00  0.00     0.078 C 
HETATM   17  C   UNL     1      26.606  37.523  46.780  1.00  0.00     0.124 C 
ENDROOT
BRANCH   5  18
HETATM   18  C   UNL     1      26.829  42.877  50.323  1.00  0.00     0.301 C 
BRANCH  18  19
HETATM   19  C   UNL     1      27.070  43.321  51.714  1.00  0.00     0.107 C 
HETATM   20  O   UNL     1      26.683  44.588  51.999  1.00  0.00    -0.216 OA
HETATM   21  N   UNL     1      27.300  45.000  53.155  1.00  0.00    -0.128 NA
HETATM   22  C   UNL     1      28.029  43.964  53.600  1.00  0.00     0.097 C 
HETATM   23  C   UNL     1      27.821  42.832  52.758  1.00  0.00     0.071 C 
BRANCH  22  24
HETATM   24  C   UNL     1      29.006  44.101  54.682  1.00  0.00    -0.005 A 
HETATM   25  C   UNL     1      29.089  45.302  55.406  1.00  0.00     0.014 A 
HETATM   26  C   UNL     1      30.097  45.497  56.352  1.00  0.00     0.001 A 
HETATM   27  C   UNL     1      31.031  44.493  56.591  1.00  0.00     0.000 A 
HETATM   28  C   UNL     1      30.949  43.288  55.896  1.00  0.00     0.001 A 
HETATM   29  C   UNL     1      29.943  43.091  54.946  1.00  0.00     0.014 A 
ENDBRANCH  22  24
ENDBRANCH  18  19
ENDBRANCH   5  18
BRANCH   1  30
HETATM   30  C   UNL     1      27.802  37.708  48.928  1.00  0.00     0.113 C 
HETATM   31  C   UNL     1      27.105  36.736  49.885  1.00  0.00     0.026 C 
ENDBRANCH   1  30
TORSDOF 4
ENDMDL
MODEL 5
REMARK VINA RESULT:      -8.1     13.195     15.652
REMARK  4 active torsions:
REMARK  status: ('A' for Active; 'I' for Inactive)
REMARK    1  A    between atoms: C_2  and  N_3 
REMARK    2  A    between atoms: N_7  and  C_9 
REMARK    3  A    between atoms: C_9  and  C_10 
REMARK    4  A    between atoms: C_13  and  C_14 
ROOT
HETATM    1  N   UNL     1      29.982  51.338  39.550  1.00  0.00    -0.398 N 
HETATM    2  C   UNL     1      30.810  50.272  40.249  1.00  0.00     0.075 C 
HETATM    3  C   UNL     1      30.837  50.288  41.801  1.00  0.00     0.065 C 
HETATM    4  C   UNL     1      31.573  51.435  42.471  1.00  0.00     0.238 C 
HETATM    5  N   UNL     1      32.897  51.762  41.823  1.00  0.00    -0.065 N 
HETATM    6  H   UNL     1      33.048  52.755  42.055  1.00  0.00     0.280 HD
HETATM    7  C   UNL     1      32.886  51.746  40.314  1.00  0.00     0.238 C 
HETATM    8  C   UNL     1      32.269  50.464  39.772  1.00  0.00     0.065 C 
HETATM    9  C   UNL     1      30.329  48.875  39.859  1.00  0.00     0.061 A 
HETATM   10  C   UNL     1      29.156  48.610  39.185  1.00  0.00     0.037 A 
HETATM   11  N   UNL     1      29.084  47.247  39.021  1.00  0.00    -0.354 N 
HETATM   12  H   UNL     1      28.331  46.745  38.550  1.00  0.00     0.166 HD
HETATM   13  C   UNL     1      30.167  46.658  39.537  1.00  0.00     0.181 A 
HETATM   14  N   UNL     1      30.930  47.637  40.050  1.00  0.00    -0.352 N 
HETATM   15  H   UNL     1      31.828  47.451  40.489  1.00  0.00     0.166 HD
HETATM   16  C   UNL     1      28.263  49.653  38.674  1.00  0.00     0.078 C 
HETATM   17  C   UNL     1      29.176  50.862  38.380  1.00  0.00     0.124 C 
ENDROOT
BRANCH   5  18
HETATM   18  C   UNL     1      34.122  51.103  42.471  1.00  0.00     0.301 C 
BRANCH  18  19
HETATM   19  C   UNL     1      35.036  52.122  43.033  1.00  0.00     0.107 C 
HETATM   20  O   UNL     1      35.825  52.759  42.134  1.00  0.00    -0.216 OA
HETATM   21  N   UNL     1      36.867  53.365  42.795  1.00  0.00    -0.128 NA
HETATM   22  C   UNL     1      36.686  53.133  44.105  1.00  0.00     0.097 C 
HETATM   23  C   UNL     1      35.461  52.429  44.304  1.00  0.00     0.071 C 
BRANCH  22  24
HETATM   24  C   UNL     1      37.718  53.425  45.101  1.00  0.00    -0.005 A 
HETATM   25  C   UNL     1      38.720  52.479  45.373  1.00  0.00     0.014 A 
HETATM   26  C   UNL     1      39.634  52.685  46.409  1.00  0.00     0.001 A 
HETATM   27  C   UNL     1      39.562  53.840  47.181  1.00  0.00     0.000 A 
HETATM   28  C   UNL     1      38.587  54.798  46.910  1.00  0.00     0.001 A 
HETATM   29  C   UNL     1      37.669  54.593  45.876  1.00  0.00     0.014 A 
ENDBRANCH  22  24
ENDBRANCH  18  19
ENDBRANCH   5  18
BRANCH   1  30
HETATM   30  C   UNL     1      29.251  52.314  40.370  1.00  0.00     0.113 C 
HETATM   31  C   UNL     1      29.538  53.792  40.085  1.00  0.00     0.026 C 
ENDBRANCH   1  30
TORSDOF 4
ENDMDL
MODEL 6
REMARK VINA RESULT:      -8.0      6.678      9.285
REMARK  4 active torsions:
REMARK  status: ('A' for Active; 'I' for Inactive)
REMARK    1  A    between atoms: C_2  and  N_3 
REMARK    2  A    between atoms: N_7  and  C_9 
REMARK    3  A    between atoms: C_9  and  C_10 
REMARK    4  A    between atoms: C_13  and  C_14 
ROOT
HETATM    1  N   UNL     1      27.981  39.258  46.182  1.00  0.00    -0.398 N 
HETATM    2  C   UNL     1      27.028  39.003  47.339  1.00  0.00     0.075 C 
HETATM    3  C   UNL     1      25.909  40.050  47.592  1.00  0.00     0.065 C 
HETATM    4  C   UNL     1      26.337  41.409  48.119  1.00  0.00     0.238 C 
HETATM    5  N   UNL     1      27.376  41.332  49.212  1.00  0.00    -0.065 N 
HETATM    6  H   UNL     1      27.868  42.235  49.151  1.00  0.00     0.280 HD
HETATM    7  C   UNL     1      28.466  40.316  48.981  1.00  0.00     0.238 C 
HETATM    8  C   UNL     1      27.893  38.951  48.621  1.00  0.00     0.065 C 
HETATM    9  C   UNL     1      26.309  37.666  47.159  1.00  0.00     0.061 A 
HETATM   10  C   UNL     1      26.317  36.923  45.999  1.00  0.00     0.037 A 
HETATM   11  N   UNL     1      25.565  35.797  46.236  1.00  0.00    -0.354 N 
HETATM   12  H   UNL     1      25.391  35.046  45.567  1.00  0.00     0.166 HD
HETATM   13  C   UNL     1      25.114  35.794  47.494  1.00  0.00     0.181 A 
HETATM   14  N   UNL     1      25.558  36.926  48.065  1.00  0.00    -0.352 N 
HETATM   15  H   UNL     1      25.364  37.157  49.035  1.00  0.00     0.166 HD
HETATM   16  C   UNL     1      27.100  37.280  44.813  1.00  0.00     0.078 C 
HETATM   17  C   UNL     1      28.320  38.058  45.351  1.00  0.00     0.124 C 
ENDROOT
BRANCH   5  18
HETATM   18  C   UNL     1      26.822  41.378  50.643  1.00  0.00     0.301 C 
BRANCH  18  19
HETATM   19  C   UNL     1      27.878  41.759  51.607  1.00  0.00     0.107 C 
HETATM   20  O   UNL     1      28.337  40.759  52.398  1.00  0.00    -0.216 OA
HETATM   21  N   UNL     1      28.994  41.300  53.476  1.00  0.00    -0.128 NA
HETATM   22  C   UNL     1      28.975  42.633  53.317  1.00  0.00     0.097 C 
HETATM   23  C   UNL     1      28.360  42.960  52.072  1.00  0.00     0.071 C 
BRANCH  22  24
HETATM   24  C   UNL     1      29.376  43.555  54.381  1.00  0.00    -0.005 A 
HETATM   25  C   UNL     1      28.684  44.764  54.561  1.00  0.00     0.014 A 
HETATM   26  C   UNL     1      29.130  45.712  55.484  1.00  0.00     0.001 A 
HETATM   27  C   UNL     1      30.270  45.462  56.242  1.00  0.00     0.000 A 
HETATM   28  C   UNL     1      30.956  44.258  56.090  1.00  0.00     0.001 A 
HETATM   29  C   UNL     1      30.512  43.308  55.165  1.00  0.00     0.014 A 
ENDBRANCH  22  24
ENDBRANCH  18  19
ENDBRANCH   5  18
BRANCH   1  30
HETATM   30  C   UNL     1      27.792  40.466  45.367  1.00  0.00     0.113 C 
HETATM   31  C   UNL     1      28.686  40.598  44.129  1.00  0.00     0.026 C 
ENDBRANCH   1  30
TORSDOF 4
ENDMDL
MODEL 7
REMARK VINA RESULT:      -8.0     18.757     22.431
REMARK  4 active torsions:
REMARK  status: ('A' for Active; 'I' for Inactive)
REMARK    1  A    between atoms: C_2  and  N_3 
REMARK    2  A    between atoms: N_7  and  C_9 
REMARK    3  A    between atoms: C_9  and  C_10 
REMARK    4  A    between atoms: C_13  and  C_14 
ROOT
HETATM    1  N   UNL     1      38.016  44.770  64.527  1.00  0.00    -0.398 N 
HETATM    2  C   UNL     1      37.564  43.320  64.600  1.00  0.00     0.075 C 
HETATM    3  C   UNL     1      38.447  42.334  65.412  1.00  0.00     0.065 C 
HETATM    4  C   UNL     1      39.807  41.981  64.833  1.00  0.00     0.238 C 
HETATM    5  N   UNL     1      39.778  41.713  63.348  1.00  0.00    -0.065 N 
HETATM    6  H   UNL     1      40.737  41.930  63.038  1.00  0.00     0.280 HD
HETATM    7  C   UNL     1      38.921  42.661  62.547  1.00  0.00     0.238 C 
HETATM    8  C   UNL     1      37.526  42.796  63.145  1.00  0.00     0.065 C 
HETATM    9  C   UNL     1      36.167  43.222  65.211  1.00  0.00     0.061 A 
HETATM   10  C   UNL     1      35.515  44.256  65.845  1.00  0.00     0.037 A 
HETATM   11  N   UNL     1      34.292  43.776  66.248  1.00  0.00    -0.354 N 
HETATM   12  H   UNL     1      33.576  44.311  66.741  1.00  0.00     0.166 HD
HETATM   13  C   UNL     1      34.144  42.503  65.871  1.00  0.00     0.181 A 
HETATM   14  N   UNL     1      35.278  42.154  65.241  1.00  0.00    -0.352 N 
HETATM   15  H   UNL     1      35.413  41.230  64.839  1.00  0.00     0.166 HD
HETATM   16  C   UNL     1      36.049  45.618  65.932  1.00  0.00     0.078 C 
HETATM   17  C   UNL     1      36.929  45.791  64.676  1.00  0.00     0.124 C 
ENDROOT
BRANCH   5  18
HETATM   18  C   UNL     1      39.654  40.234  62.954  1.00  0.00     0.301 C 
BRANCH  18  19
HETATM   19  C   UNL     1      40.248  39.360  63.990  1.00  0.00     0.107 C 
HETATM   20  O   UNL     1      41.577  39.129  63.868  1.00  0.00    -0.216 OA
HETATM   21  N   UNL     1      41.917  38.029  64.618  1.00  0.00    -0.128 NA
HETATM   22  C   UNL     1      40.798  37.616  65.235  1.00  0.00     0.097 C 
HETATM   23  C   UNL     1      39.727  38.512  64.940  1.00  0.00     0.071 C 
BRANCH  22  24
HETATM   24  C   UNL     1      40.718  36.334  65.937  1.00  0.00    -0.005 A 
HETATM   25  C   UNL     1      41.788  35.427  65.869  1.00  0.00     0.014 A 
HETATM   26  C   UNL     1      41.679  34.150  66.423  1.00  0.00     0.001 A 
HETATM   27  C   UNL     1      40.502  33.766  67.057  1.00  0.00     0.000 A 
HETATM   28  C   UNL     1      39.438  34.662  67.153  1.00  0.00     0.001 A 
HETATM   29  C   UNL     1      39.544  35.940  66.596  1.00  0.00     0.014 A 
ENDBRANCH  22  24
ENDBRANCH  18  19
ENDBRANCH   5  18
BRANCH   1  30
HETATM   30  C   UNL     1      39.248  45.161  65.228  1.00  0.00     0.113 C 
HETATM   31  C   UNL     1      40.410  45.631  64.347  1.00  0.00     0.026 C 
ENDBRANCH   1  30
TORSDOF 4
ENDMDL
MODEL 8
REMARK VINA RESULT:      -8.0     12.736     15.201
REMARK  4 active torsions:
REMARK  status: ('A' for Active; 'I' for Inactive)
REMARK    1  A    between atoms: C_2  and  N_3 
REMARK    2  A    between atoms: N_7  and  C_9 
REMARK    3  A    between atoms: C_9  and  C_10 
REMARK    4  A    between atoms: C_13  and  C_14 
ROOT
HETATM    1  N   UNL     1      28.267  50.735  39.580  1.00  0.00    -0.398 N 
HETATM    2  C   UNL     1      29.238  49.566  39.610  1.00  0.00     0.075 C 
HETATM    3  C   UNL     1      29.597  48.966  40.997  1.00  0.00     0.065 C 
HETATM    4  C   UNL     1      30.446  49.818  41.923  1.00  0.00     0.238 C 
HETATM    5  N   UNL     1      31.597  50.504  41.225  1.00  0.00    -0.065 N 
HETATM    6  H   UNL     1      31.783  51.332  41.810  1.00  0.00     0.280 HD
HETATM    7  C   UNL     1      31.263  51.087  39.875  1.00  0.00     0.238 C 
HETATM    8  C   UNL     1      30.559  50.072  38.984  1.00  0.00     0.065 C 
HETATM    9  C   UNL     1      28.700  48.399  38.782  1.00  0.00     0.061 A 
HETATM   10  C   UNL     1      27.414  48.310  38.297  1.00  0.00     0.037 A 
HETATM   11  N   UNL     1      27.323  47.125  37.607  1.00  0.00    -0.354 N 
HETATM   12  H   UNL     1      26.493  46.780  37.124  1.00  0.00     0.166 HD
HETATM   13  C   UNL     1      28.498  46.488  37.619  1.00  0.00     0.181 A 
HETATM   14  N   UNL     1      29.342  47.252  38.331  1.00  0.00    -0.352 N 
HETATM   15  H   UNL     1      30.315  46.995  38.476  1.00  0.00     0.166 HD
HETATM   16  C   UNL     1      26.420  49.378  38.438  1.00  0.00     0.078 C 
HETATM   17  C   UNL     1      27.235  50.687  38.495  1.00  0.00     0.124 C 
ENDROOT
BRANCH   5  18
HETATM   18  C   UNL     1      32.940  49.764  41.300  1.00  0.00     0.301 C 
BRANCH  18  19
HETATM   19  C   UNL     1      33.872  50.452  42.220  1.00  0.00     0.107 C 
HETATM   20  O   UNL     1      33.294  51.112  43.253  1.00  0.00    -0.216 OA
HETATM   21  N   UNL     1      34.194  52.006  43.780  1.00  0.00    -0.128 NA
HETATM   22  C   UNL     1      35.339  51.859  43.094  1.00  0.00     0.097 C 
HETATM   23  C   UNL     1      35.203  50.793  42.155  1.00  0.00     0.071 C 
BRANCH  22  24
HETATM   24  C   UNL     1      36.453  52.800  43.217  1.00  0.00    -0.005 A 
HETATM   25  C   UNL     1      36.806  53.311  44.477  1.00  0.00     0.014 A 
HETATM   26  C   UNL     1      37.778  54.305  44.598  1.00  0.00     0.001 A 
HETATM   27  C   UNL     1      38.415  54.798  43.463  1.00  0.00     0.000 A 
HETATM   28  C   UNL     1      38.092  54.286  42.207  1.00  0.00     0.001 A 
HETATM   29  C   UNL     1      37.116  53.292  42.083  1.00  0.00     0.014 A 
ENDBRANCH  22  24
ENDBRANCH  18  19
ENDBRANCH   5  18
BRANCH   1  30
HETATM   30  C   UNL     1      27.718  51.228  40.851  1.00  0.00     0.113 C 
HETATM   31  C   UNL     1      28.123  52.648  41.261  1.00  0.00     0.026 C 
ENDBRANCH   1  30
TORSDOF 4
ENDMDL
MODEL 9
REMARK VINA RESULT:      -7.9      3.060     10.242
REMARK  4 active torsions:
REMARK  status: ('A' for Active; 'I' for Inactive)
REMARK    1  A    between atoms: C_2  and  N_3 
REMARK    2  A    between atoms: N_7  and  C_9 
REMARK    3  A    between atoms: C_9  and  C_10 
REMARK    4  A    between atoms: C_13  and  C_14 
ROOT
HETATM    1  N   UNL     1      18.112  50.015  49.051  1.00  0.00    -0.398 N 
HETATM    2  C   UNL     1      19.076  49.980  47.876  1.00  0.00     0.075 C 
HETATM    3  C   UNL     1      19.763  48.625  47.552  1.00  0.00     0.065 C 
HETATM    4  C   UNL     1      20.798  48.118  48.540  1.00  0.00     0.238 C 
HETATM    5  N   UNL     1      21.740  49.191  49.030  1.00  0.00    -0.065 N 
HETATM    6  H   UNL     1      22.050  48.847  49.950  1.00  0.00     0.280 HD
HETATM    7  C   UNL     1      21.087  50.514  49.345  1.00  0.00     0.238 C 
HETATM    8  C   UNL     1      20.203  50.989  48.199  1.00  0.00     0.065 C 
HETATM    9  C   UNL     1      18.370  50.403  46.588  1.00  0.00     0.061 A 
HETATM   10  C   UNL     1      17.006  50.543  46.452  1.00  0.00     0.037 A 
HETATM   11  N   UNL     1      16.768  50.938  45.157  1.00  0.00    -0.354 N 
HETATM   12  H   UNL     1      15.851  51.131  44.753  1.00  0.00     0.166 HD
HETATM   13  C   UNL     1      17.919  51.075  44.493  1.00  0.00     0.181 A 
HETATM   14  N   UNL     1      18.900  50.752  45.351  1.00  0.00    -0.352 N 
HETATM   15  H   UNL     1      19.883  50.792  45.093  1.00  0.00     0.166 HD
HETATM   16  C   UNL     1      16.062  50.389  47.562  1.00  0.00     0.078 C 
HETATM   17  C   UNL     1      16.851  50.792  48.826  1.00  0.00     0.124 C 
ENDROOT
BRANCH   5  18
HETATM   18  C   UNL     1      23.071  49.288  48.271  1.00  0.00     0.301 C 
BRANCH  18  19
HETATM   19  C   UNL     1      24.190  48.788  49.100  1.00  0.00     0.107 C 
HETATM   20  O   UNL     1      25.429  49.168  48.704  1.00  0.00    -0.216 OA
HETATM   21  N   UNL     1      26.363  48.348  49.287  1.00  0.00    -0.128 NA
HETATM   22  C   UNL     1      25.694  47.493  50.077  1.00  0.00     0.097 C 
HETATM   23  C   UNL     1      24.305  47.815  50.066  1.00  0.00     0.071 C 
BRANCH  22  24
HETATM   24  C   UNL     1      26.332  46.322  50.681  1.00  0.00    -0.005 A 
HETATM   25  C   UNL     1      26.901  45.332  49.864  1.00  0.00     0.014 A 
HETATM   26  C   UNL     1      27.398  44.149  50.415  1.00  0.00     0.001 A 
HETATM   27  C   UNL     1      27.338  43.944  51.791  1.00  0.00     0.000 A 
HETATM   28  C   UNL     1      26.796  44.926  52.617  1.00  0.00     0.001 A 
HETATM   29  C   UNL     1      26.295  46.110  52.067  1.00  0.00     0.014 A 
ENDBRANCH  22  24
ENDBRANCH  18  19
ENDBRANCH   5  18
BRANCH   1  30
HETATM   30  C   UNL     1      17.876  48.777  49.807  1.00  0.00     0.113 C 
HETATM   31  C   UNL     1      18.495  48.707  51.207  1.00  0.00     0.026 C 
ENDBRANCH   1  30
TORSDOF 4
ENDMDL
MODEL 10
REMARK VINA RESULT:      -7.8      6.016      8.574
REMARK  4 active torsions:
REMARK  status: ('A' for Active; 'I' for Inactive)
REMARK    1  A    between atoms: C_2  and  N_3 
REMARK    2  A    between atoms: N_7  and  C_9 
REMARK    3  A    between atoms: C_9  and  C_10 
REMARK    4  A    between atoms: C_13  and  C_14 
ROOT
HETATM    1  N   UNL     1      27.539  37.884  48.799  1.00  0.00    -0.398 N 
HETATM    2  C   UNL     1      26.689  39.109  48.502  1.00  0.00     0.075 C 
HETATM    3  C   UNL     1      27.386  40.317  47.819  1.00  0.00     0.065 C 
HETATM    4  C   UNL     1      28.393  41.097  48.646  1.00  0.00     0.238 C 
HETATM    5  N   UNL     1      27.934  41.362  50.061  1.00  0.00    -0.065 N 
HETATM    6  H   UNL     1      28.812  41.470  50.590  1.00  0.00     0.280 HD
HETATM    7  C   UNL     1      27.252  40.198  50.735  1.00  0.00     0.238 C 
HETATM    8  C   UNL     1      26.149  39.612  49.862  1.00  0.00     0.065 C 
HETATM    9  C   UNL     1      25.515  38.743  47.595  1.00  0.00     0.061 A 
HETATM   10  C   UNL     1      25.385  37.545  46.927  1.00  0.00     0.037 A 
HETATM   11  N   UNL     1      24.204  37.599  46.227  1.00  0.00    -0.354 N 
HETATM   12  H   UNL     1      23.826  36.855  45.639  1.00  0.00     0.166 HD
HETATM   13  C   UNL     1      23.583  38.761  46.449  1.00  0.00     0.181 A 
HETATM   14  N   UNL     1      24.371  39.466  47.278  1.00  0.00    -0.352 N 
HETATM   15  H   UNL     1      24.114  40.389  47.617  1.00  0.00     0.166 HD
HETATM   16  C   UNL     1      26.321  36.427  47.079  1.00  0.00     0.078 C 
HETATM   17  C   UNL     1      26.890  36.565  48.508  1.00  0.00     0.124 C 
ENDROOT
BRANCH   5  18
HETATM   18  C   UNL     1      27.267  42.726  50.286  1.00  0.00     0.301 C 
BRANCH  18  19
HETATM   19  C   UNL     1      27.336  43.119  51.711  1.00  0.00     0.107 C 
HETATM   20  O   UNL     1      26.505  44.124  52.082  1.00  0.00    -0.216 OA
HETATM   21  N   UNL     1      26.933  44.646  53.278  1.00  0.00    -0.128 NA
HETATM   22  C   UNL     1      28.001  43.928  53.659  1.00  0.00     0.097 C 
HETATM   23  C   UNL     1      28.224  42.869  52.730  1.00  0.00     0.071 C 
BRANCH  22  24
HETATM   24  C   UNL     1      28.865  44.337  54.768  1.00  0.00    -0.005 A 
HETATM   25  C   UNL     1      28.612  45.538  55.450  1.00  0.00     0.014 A 
HETATM   26  C   UNL     1      29.497  46.008  56.422  1.00  0.00     0.001 A 
HETATM   27  C   UNL     1      30.643  45.280  56.730  1.00  0.00     0.000 A 
HETATM   28  C   UNL     1      30.896  44.075  56.078  1.00  0.00     0.001 A 
HETATM   29  C   UNL     1      30.013  43.604  55.102  1.00  0.00     0.014 A 
ENDBRANCH  22  24
ENDBRANCH  18  19
ENDBRANCH   5  18
BRANCH   1  30
HETATM   30  C   UNL     1      28.959  37.902  48.421  1.00  0.00     0.113 C 
HETATM   31  C   UNL     1      29.966  38.013  49.571  1.00  0.00     0.026 C 
ENDBRANCH   1  30
TORSDOF 4
ENDMDL
