MODEL 1
REMARK VINA RESULT:      -9.6      0.000      0.000
REMARK  4 active torsions:
REMARK  status: ('A' for Active; 'I' for Inactive)
REMARK    1  A    between atoms: O_2  and  C_3 
REMARK    2  A    between atoms: C_9  and  C_13 
REMARK    3  A    between atoms: C_19  and  C_24 
REMARK    4  A    between atoms: C_28  and  N_29 
ROOT
HETATM    1  C   UNL     1      26.110  43.320  51.531  1.00  0.00     0.112 A 
HETATM    2  N   UNL     1      25.981  44.557  51.968  1.00  0.00    -0.230 NA
HETATM    3  C   UNL     1      26.899  44.696  52.987  1.00  0.00     0.124 A 
HETATM    4  C   UNL     1      27.205  45.785  53.816  1.00  0.00     0.148 A 
HETATM    5  F   UNL     1      26.562  46.955  53.692  1.00  0.00    -0.203 F 
HETATM    6  C   UNL     1      28.200  45.658  54.793  1.00  0.00     0.058 A 
HETATM    7  C   UNL     1      28.911  44.456  54.975  1.00  0.00    -0.002 A 
HETATM    8  C   UNL     1      28.607  43.361  54.135  1.00  0.00     0.046 A 
HETATM    9  C   UNL     1      27.606  43.515  53.169  1.00  0.00     0.066 A 
HETATM   10  N   UNL     1      27.087  42.657  52.236  1.00  0.00    -0.342 N 
HETATM   11  H   UNL     1      27.366  41.695  52.089  1.00  0.00     0.167 HD
ENDROOT
BRANCH   1  12
HETATM   12  C   UNL     1      25.292  42.686  50.437  1.00  0.00     0.084 C 
HETATM   13  C   UNL     1      25.720  43.117  49.035  1.00  0.00     0.188 C 
HETATM   14  O   UNL     1      27.033  42.666  48.673  1.00  0.00    -0.350 OA
HETATM   15  C   UNL     1      27.288  41.349  48.946  1.00  0.00     0.075 A 
HETATM   16  C   UNL     1      28.416  40.806  48.335  1.00  0.00     0.040 A 
HETATM   17  C   UNL     1      26.531  40.582  49.836  1.00  0.00    -0.021 A 
HETATM   18  C   UNL     1      28.776  39.482  48.589  1.00  0.00     0.039 A 
HETATM   19  C   UNL     1      28.014  38.692  49.452  1.00  0.00     0.068 A 
HETATM   20  C   UNL     1      26.894  39.245  50.074  1.00  0.00     0.046 A 
HETATM   21  C   UNL     1      25.324  41.160  50.524  1.00  0.00     0.056 C 
BRANCH  19  22
HETATM   22  O   UNL     1      28.472  37.413  49.608  1.00  0.00    -0.356 OA
HETATM   23  C   UNL     1      29.521  37.214  50.549  1.00  0.00     0.210 C 
ENDBRANCH  19  22
ENDBRANCH   1  12
BRANCH   7  24
HETATM   24  C   UNL     1      29.962  44.323  56.006  1.00  0.00     0.072 A 
HETATM   25  C   UNL     1      30.835  43.255  56.056  1.00  0.00     0.052 A 
HETATM   26  C   UNL     1      31.758  43.275  57.073  1.00  0.00     0.122 A 
HETATM   27  N   UNL     1      31.836  44.259  57.985  1.00  0.00    -0.231 NA
HETATM   28  C   UNL     1      30.967  45.262  57.846  1.00  0.00     0.199 A 
HETATM   29  N   UNL     1      30.024  45.332  56.905  1.00  0.00    -0.218 NA
BRANCH  28  30
HETATM   30  N   UNL     1      31.013  46.278  58.779  1.00  0.00    -0.271 NA
HETATM   31  H   UNL     1      31.959  46.377  59.118  1.00  0.00     0.127 HD
HETATM   32  H   UNL     1      30.288  46.135  59.467  1.00  0.00     0.127 HD
ENDBRANCH  28  30
ENDBRANCH   7  24
TORSDOF 4
ENDMDL
MODEL 2
REMARK VINA RESULT:      -9.1      5.879      8.528
REMARK  4 active torsions:
REMARK  status: ('A' for Active; 'I' for Inactive)
REMARK    1  A    between atoms: O_2  and  C_3 
REMARK    2  A    between atoms: C_9  and  C_13 
REMARK    3  A    between atoms: C_19  and  C_24 
REMARK    4  A    between atoms: C_28  and  N_29 
ROOT
HETATM    1  C   UNL     1      23.083  46.219  48.955  1.00  0.00     0.112 A 
HETATM    2  N   UNL     1      23.236  44.974  49.359  1.00  0.00    -0.230 NA
HETATM    3  C   UNL     1      24.094  45.028  50.438  1.00  0.00     0.124 A 
HETATM    4  C   UNL     1      24.613  44.019  51.260  1.00  0.00     0.148 A 
HETATM    5  F   UNL     1      24.291  42.731  51.067  1.00  0.00    -0.203 F 
HETATM    6  C   UNL     1      25.485  44.351  52.305  1.00  0.00     0.058 A 
HETATM    7  C   UNL     1      25.862  45.683  52.558  1.00  0.00    -0.002 A 
HETATM    8  C   UNL     1      25.334  46.702  51.734  1.00  0.00     0.046 A 
HETATM    9  C   UNL     1      24.468  46.341  50.695  1.00  0.00     0.066 A 
HETATM   10  N   UNL     1      23.816  47.077  49.742  1.00  0.00    -0.342 N 
HETATM   11  H   UNL     1      23.867  48.081  49.625  1.00  0.00     0.167 HD
ENDROOT
BRANCH   1  12
HETATM   12  C   UNL     1      22.257  46.664  47.778  1.00  0.00     0.084 C 
HETATM   13  C   UNL     1      20.892  45.979  47.704  1.00  0.00     0.188 C 
HETATM   14  O   UNL     1      20.016  46.330  48.785  1.00  0.00    -0.350 OA
HETATM   15  C   UNL     1      19.946  47.669  49.063  1.00  0.00     0.075 A 
HETATM   16  C   UNL     1      18.892  48.069  49.879  1.00  0.00     0.040 A 
HETATM   17  C   UNL     1      20.897  48.599  48.634  1.00  0.00    -0.021 A 
HETATM   18  C   UNL     1      18.765  49.409  50.247  1.00  0.00     0.039 A 
HETATM   19  C   UNL     1      19.690  50.357  49.804  1.00  0.00     0.068 A 
HETATM   20  C   UNL     1      20.754  49.949  48.998  1.00  0.00     0.046 A 
HETATM   21  C   UNL     1      22.058  48.180  47.772  1.00  0.00     0.056 C 
BRANCH  19  22
HETATM   22  O   UNL     1      19.447  51.633  50.232  1.00  0.00    -0.356 OA
HETATM   23  C   UNL     1      18.278  52.270  49.729  1.00  0.00     0.210 C 
ENDBRANCH  19  22
ENDBRANCH   1  12
BRANCH   7  24
HETATM   24  C   UNL     1      26.782  46.033  53.662  1.00  0.00     0.072 A 
HETATM   25  C   UNL     1      26.674  47.203  54.388  1.00  0.00     0.052 A 
HETATM   26  C   UNL     1      27.601  47.384  55.385  1.00  0.00     0.122 A 
HETATM   27  N   UNL     1      28.571  46.497  55.666  1.00  0.00    -0.231 NA
HETATM   28  C   UNL     1      28.585  45.385  54.929  1.00  0.00     0.199 A 
HETATM   29  N   UNL     1      27.741  45.119  53.931  1.00  0.00    -0.218 NA
BRANCH  28  30
HETATM   30  N   UNL     1      29.581  44.465  55.185  1.00  0.00    -0.271 NA
HETATM   31  H   UNL     1      30.466  44.834  54.867  1.00  0.00     0.127 HD
HETATM   32  H   UNL     1      29.302  43.562  54.830  1.00  0.00     0.127 HD
ENDBRANCH  28  30
ENDBRANCH   7  24
TORSDOF 4
ENDMDL
MODEL 3
REMARK VINA RESULT:      -9.1      6.396      9.157
REMARK  4 active torsions:
REMARK  status: ('A' for Active; 'I' for Inactive)
REMARK    1  A    between atoms: O_2  and  C_3 
REMARK    2  A    between atoms: C_9  and  C_13 
REMARK    3  A    between atoms: C_19  and  C_24 
REMARK    4  A    between atoms: C_28  and  N_29 
ROOT
HETATM    1  C   UNL     1      22.690  46.978  48.463  1.00  0.00     0.112 A 
HETATM    2  N   UNL     1      23.687  47.833  48.586  1.00  0.00    -0.230 NA
HETATM    3  C   UNL     1      24.511  47.315  49.562  1.00  0.00     0.124 A 
HETATM    4  C   UNL     1      25.710  47.791  50.111  1.00  0.00     0.148 A 
HETATM    5  F   UNL     1      26.256  48.943  49.693  1.00  0.00    -0.203 F 
HETATM    6  C   UNL     1      26.357  47.058  51.114  1.00  0.00     0.058 A 
HETATM    7  C   UNL     1      25.835  45.843  51.596  1.00  0.00    -0.002 A 
HETATM    8  C   UNL     1      24.630  45.359  51.039  1.00  0.00     0.046 A 
HETATM    9  C   UNL     1      24.003  46.114  50.041  1.00  0.00     0.066 A 
HETATM   10  N   UNL     1      22.848  45.922  49.330  1.00  0.00    -0.342 N 
HETATM   11  H   UNL     1      22.210  45.142  49.426  1.00  0.00     0.167 HD
ENDROOT
BRANCH   1  12
HETATM   12  C   UNL     1      21.514  47.130  47.536  1.00  0.00     0.084 C 
HETATM   13  C   UNL     1      20.302  46.299  47.956  1.00  0.00     0.188 C 
HETATM   14  O   UNL     1      19.715  46.727  49.193  1.00  0.00    -0.350 OA
HETATM   15  C   UNL     1      19.522  48.078  49.306  1.00  0.00     0.075 A 
HETATM   16  C   UNL     1      18.686  48.491  50.339  1.00  0.00     0.040 A 
HETATM   17  C   UNL     1      20.167  49.021  48.501  1.00  0.00    -0.021 A 
HETATM   18  C   UNL     1      18.464  49.852  50.554  1.00  0.00     0.039 A 
HETATM   19  C   UNL     1      19.076  50.808  49.741  1.00  0.00     0.068 A 
HETATM   20  C   UNL     1      19.926  50.390  48.716  1.00  0.00     0.046 A 
HETATM   21  C   UNL     1      21.094  48.594  47.396  1.00  0.00     0.056 C 
BRANCH  19  22
HETATM   22  O   UNL     1      18.771  52.104  50.055  1.00  0.00    -0.356 OA
HETATM   23  C   UNL     1      17.461  52.554  49.730  1.00  0.00     0.210 C 
ENDBRANCH  19  22
ENDBRANCH   1  12
BRANCH   7  24
HETATM   24  C   UNL     1      26.519  45.069  52.654  1.00  0.00     0.072 A 
HETATM   25  C   UNL     1      26.983  45.640  53.823  1.00  0.00     0.052 A 
HETATM   26  C   UNL     1      27.595  44.789  54.710  1.00  0.00     0.122 A 
HETATM   27  N   UNL     1      27.751  43.472  54.488  1.00  0.00    -0.231 NA
HETATM   28  C   UNL     1      27.251  43.003  53.344  1.00  0.00     0.199 A 
HETATM   29  N   UNL     1      26.653  43.746  52.410  1.00  0.00    -0.218 NA
BRANCH  28  30
HETATM   30  N   UNL     1      27.412  41.658  53.082  1.00  0.00    -0.271 NA
HETATM   31  H   UNL     1      28.148  41.536  52.401  1.00  0.00     0.127 HD
HETATM   32  H   UNL     1      26.514  41.247  52.872  1.00  0.00     0.127 HD
ENDBRANCH  28  30
ENDBRANCH   7  24
TORSDOF 4
ENDMDL
MODEL 4
REMARK VINA RESULT:      -8.8      2.408      3.809
REMARK  4 active torsions:
REMARK  status: ('A' for Active; 'I' for Inactive)
REMARK    1  A    between atoms: O_2  and  C_3 
REMARK    2  A    between atoms: C_9  and  C_13 
REMARK    3  A    between atoms: C_19  and  C_24 
REMARK    4  A    between atoms: C_28  and  N_29 
ROOT
HETATM    1  C   UNL     1      28.356  40.030  50.632  1.00  0.00     0.112 A 
HETATM    2  N   UNL     1      27.724  41.164  50.401  1.00  0.00    -0.230 NA
HETATM    3  C   UNL     1      28.072  42.009  51.434  1.00  0.00     0.124 A 
HETATM    4  C   UNL     1      27.701  43.331  51.713  1.00  0.00     0.148 A 
HETATM    5  F   UNL     1      26.868  44.005  50.906  1.00  0.00    -0.203 F 
HETATM    6  C   UNL     1      28.205  43.970  52.853  1.00  0.00     0.058 A 
HETATM    7  C   UNL     1      29.082  43.318  53.740  1.00  0.00    -0.002 A 
HETATM    8  C   UNL     1      29.462  41.987  53.455  1.00  0.00     0.046 A 
HETATM    9  C   UNL     1      28.940  41.372  52.311  1.00  0.00     0.066 A 
HETATM   10  N   UNL     1      29.104  40.119  51.783  1.00  0.00    -0.342 N 
HETATM   11  H   UNL     1      29.672  39.377  52.172  1.00  0.00     0.167 HD
ENDROOT
BRANCH   1  12
HETATM   12  C   UNL     1      28.263  38.787  49.789  1.00  0.00     0.084 C 
HETATM   13  C   UNL     1      26.839  38.243  49.669  1.00  0.00     0.188 C 
HETATM   14  O   UNL     1      25.953  39.112  48.950  1.00  0.00    -0.350 OA
HETATM   15  C   UNL     1      26.455  39.607  47.775  1.00  0.00     0.075 A 
HETATM   16  C   UNL     1      25.529  40.189  46.914  1.00  0.00     0.040 A 
HETATM   17  C   UNL     1      27.816  39.614  47.457  1.00  0.00    -0.021 A 
HETATM   18  C   UNL     1      25.957  40.755  45.712  1.00  0.00     0.039 A 
HETATM   19  C   UNL     1      27.309  40.746  45.364  1.00  0.00     0.068 A 
HETATM   20  C   UNL     1      28.235  40.175  46.238  1.00  0.00     0.046 A 
HETATM   21  C   UNL     1      28.833  39.013  48.389  1.00  0.00     0.056 C 
BRANCH  19  22
HETATM   22  O   UNL     1      27.592  41.327  44.159  1.00  0.00    -0.356 OA
HETATM   23  C   UNL     1      28.844  41.005  43.565  1.00  0.00     0.210 C 
ENDBRANCH  19  22
ENDBRANCH   1  12
BRANCH   7  24
HETATM   24  C   UNL     1      29.615  43.993  54.943  1.00  0.00     0.072 A 
HETATM   25  C   UNL     1      29.161  45.222  55.379  1.00  0.00     0.052 A 
HETATM   26  C   UNL     1      29.753  45.718  56.515  1.00  0.00     0.122 A 
HETATM   27  N   UNL     1      30.721  45.073  57.188  1.00  0.00    -0.231 NA
HETATM   28  C   UNL     1      31.082  43.882  56.708  1.00  0.00     0.199 A 
HETATM   29  N   UNL     1      30.581  43.318  55.607  1.00  0.00    -0.218 NA
BRANCH  28  30
HETATM   30  N   UNL     1      32.086  43.206  57.370  1.00  0.00    -0.271 NA
HETATM   31  H   UNL     1      31.766  42.954  58.294  1.00  0.00     0.127 HD
HETATM   32  H   UNL     1      32.945  43.734  57.306  1.00  0.00     0.127 HD
ENDBRANCH  28  30
ENDBRANCH   7  24
TORSDOF 4
ENDMDL
MODEL 5
REMARK VINA RESULT:      -8.7     14.375     16.945
REMARK  4 active torsions:
REMARK  status: ('A' for Active; 'I' for Inactive)
REMARK    1  A    between atoms: O_2  and  C_3 
REMARK    2  A    between atoms: C_9  and  C_13 
REMARK    3  A    between atoms: C_19  and  C_24 
REMARK    4  A    between atoms: C_28  and  N_29 
ROOT
HETATM    1  C   UNL     1      35.957  51.387  41.001  1.00  0.00     0.112 A 
HETATM    2  N   UNL     1      35.560  50.140  41.167  1.00  0.00    -0.230 NA
HETATM    3  C   UNL     1      34.183  50.186  41.220  1.00  0.00     0.124 A 
HETATM    4  C   UNL     1      33.229  49.172  41.387  1.00  0.00     0.148 A 
HETATM    5  F   UNL     1      33.595  47.890  41.526  1.00  0.00    -0.203 F 
HETATM    6  C   UNL     1      31.866  49.495  41.409  1.00  0.00     0.058 A 
HETATM    7  C   UNL     1      31.418  50.822  41.269  1.00  0.00    -0.002 A 
HETATM    8  C   UNL     1      32.379  51.844  41.095  1.00  0.00     0.046 A 
HETATM    9  C   UNL     1      33.734  51.492  41.080  1.00  0.00     0.066 A 
HETATM   10  N   UNL     1      34.876  52.235  40.944  1.00  0.00    -0.342 N 
HETATM   11  H   UNL     1      34.925  53.240  40.828  1.00  0.00     0.167 HD
ENDROOT
BRANCH   1  12
HETATM   12  C   UNL     1      37.388  51.848  40.918  1.00  0.00     0.084 C 
HETATM   13  C   UNL     1      37.526  53.359  40.739  1.00  0.00     0.188 C 
HETATM   14  O   UNL     1      37.075  54.114  41.872  1.00  0.00    -0.350 OA
HETATM   15  C   UNL     1      37.521  53.660  43.085  1.00  0.00     0.075 A 
HETATM   16  C   UNL     1      37.364  54.532  44.158  1.00  0.00     0.040 A 
HETATM   17  C   UNL     1      38.038  52.378  43.288  1.00  0.00    -0.021 A 
HETATM   18  C   UNL     1      37.753  54.138  45.439  1.00  0.00     0.039 A 
HETATM   19  C   UNL     1      38.299  52.871  45.656  1.00  0.00     0.068 A 
HETATM   20  C   UNL     1      38.440  51.994  44.580  1.00  0.00     0.046 A 
HETATM   21  C   UNL     1      38.191  51.413  42.144  1.00  0.00     0.056 C 
BRANCH  19  22
HETATM   22  O   UNL     1      38.644  52.614  46.955  1.00  0.00    -0.356 OA
HETATM   23  C   UNL     1      38.551  53.697  47.873  1.00  0.00     0.210 C 
ENDBRANCH  19  22
ENDBRANCH   1  12
BRANCH   7  24
HETATM   24  C   UNL     1      29.979  51.163  41.292  1.00  0.00     0.072 A 
HETATM   25  C   UNL     1      29.513  52.461  41.225  1.00  0.00     0.052 A 
HETATM   26  C   UNL     1      28.148  52.615  41.254  1.00  0.00     0.122 A 
HETATM   27  N   UNL     1      27.287  51.587  41.341  1.00  0.00    -0.231 NA
HETATM   28  C   UNL     1      27.825  50.368  41.378  1.00  0.00     0.199 A 
HETATM   29  N   UNL     1      29.134  50.110  41.370  1.00  0.00    -0.218 NA
BRANCH  28  30
HETATM   30  N   UNL     1      26.965  49.295  41.486  1.00  0.00    -0.271 NA
HETATM   31  H   UNL     1      27.098  48.848  42.382  1.00  0.00     0.127 HD
HETATM   32  H   UNL     1      27.047  48.715  40.663  1.00  0.00     0.127 HD
ENDBRANCH  28  30
ENDBRANCH   7  24
TORSDOF 4
ENDMDL
MODEL 6
REMARK VINA RESULT:      -8.6     11.867     15.948
REMARK  4 active torsions:
REMARK  status: ('A' for Active; 'I' for Inactive)
REMARK    1  A    between atoms: O_2  and  C_3 
REMARK    2  A    between atoms: C_9  and  C_13 
REMARK    3  A    between atoms: C_19  and  C_24 
REMARK    4  A    between atoms: C_28  and  N_29 
ROOT
HETATM    1  C   UNL     1      17.608  50.828  48.891  1.00  0.00     0.112 A 
HETATM    2  N   UNL     1      17.504  51.715  47.921  1.00  0.00    -0.230 NA
HETATM    3  C   UNL     1      16.573  51.206  47.041  1.00  0.00     0.124 A 
HETATM    4  C   UNL     1      16.067  51.709  45.834  1.00  0.00     0.148 A 
HETATM    5  F   UNL     1      16.483  52.886  45.344  1.00  0.00    -0.203 F 
HETATM    6  C   UNL     1      15.111  50.977  45.120  1.00  0.00     0.058 A 
HETATM    7  C   UNL     1      14.635  49.734  45.581  1.00  0.00    -0.002 A 
HETATM    8  C   UNL     1      15.139  49.230  46.801  1.00  0.00     0.046 A 
HETATM    9  C   UNL     1      16.097  49.981  47.491  1.00  0.00     0.066 A 
HETATM   10  N   UNL     1      16.769  49.762  48.664  1.00  0.00    -0.342 N 
HETATM   11  H   UNL     1      16.674  48.952  49.264  1.00  0.00     0.167 HD
ENDROOT
BRANCH   1  12
HETATM   12  C   UNL     1      18.533  50.926  50.075  1.00  0.00     0.084 C 
HETATM   13  C   UNL     1      18.774  49.585  50.767  1.00  0.00     0.188 C 
HETATM   14  O   UNL     1      19.489  48.642  49.956  1.00  0.00    -0.350 OA
HETATM   15  C   UNL     1      20.596  49.143  49.326  1.00  0.00     0.075 A 
HETATM   16  C   UNL     1      21.474  48.202  48.794  1.00  0.00     0.040 A 
HETATM   17  C   UNL     1      20.830  50.509  49.141  1.00  0.00    -0.021 A 
HETATM   18  C   UNL     1      22.609  48.623  48.098  1.00  0.00     0.039 A 
HETATM   19  C   UNL     1      22.873  49.984  47.929  1.00  0.00     0.068 A 
HETATM   20  C   UNL     1      21.983  50.923  48.451  1.00  0.00     0.046 A 
HETATM   21  C   UNL     1      19.879  51.539  49.687  1.00  0.00     0.056 C 
BRANCH  19  22
HETATM   22  O   UNL     1      24.019  50.259  47.236  1.00  0.00    -0.356 OA
HETATM   23  C   UNL     1      25.252  50.020  47.905  1.00  0.00     0.210 C 
ENDBRANCH  19  22
ENDBRANCH   1  12
BRANCH   7  24
HETATM   24  C   UNL     1      13.624  48.962  44.827  1.00  0.00     0.072 A 
HETATM   25  C   UNL     1      12.869  49.506  43.807  1.00  0.00     0.052 A 
HETATM   26  C   UNL     1      11.972  48.660  43.201  1.00  0.00     0.122 A 
HETATM   27  N   UNL     1      11.812  47.373  43.553  1.00  0.00    -0.231 NA
HETATM   28  C   UNL     1      12.600  46.926  44.532  1.00  0.00     0.199 A 
HETATM   29  N   UNL     1      13.490  47.667  45.195  1.00  0.00    -0.218 NA
BRANCH  28  30
HETATM   30  N   UNL     1      12.444  45.614  44.926  1.00  0.00    -0.271 NA
HETATM   31  H   UNL     1      12.784  45.505  45.871  1.00  0.00     0.127 HD
HETATM   32  H   UNL     1      12.834  45.003  44.222  1.00  0.00     0.127 HD
ENDBRANCH  28  30
ENDBRANCH   7  24
TORSDOF 4
ENDMDL
MODEL 7
REMARK VINA RESULT:      -8.5     14.544     17.043
REMARK  4 active torsions:
REMARK  status: ('A' for Active; 'I' for Inactive)
REMARK    1  A    between atoms: O_2  and  C_3 
REMARK    2  A    between atoms: C_9  and  C_13 
REMARK    3  A    between atoms: C_19  and  C_24 
REMARK    4  A    between atoms: C_28  and  N_29 
ROOT
HETATM    1  C   UNL     1      36.257  51.076  41.869  1.00  0.00     0.112 A 
HETATM    2  N   UNL     1      35.773  51.830  40.902  1.00  0.00    -0.230 NA
HETATM    3  C   UNL     1      34.412  51.606  40.893  1.00  0.00     0.124 A 
HETATM    4  C   UNL     1      33.393  52.126  40.083  1.00  0.00     0.148 A 
HETATM    5  F   UNL     1      33.662  53.010  39.110  1.00  0.00    -0.203 F 
HETATM    6  C   UNL     1      32.067  51.723  40.286  1.00  0.00     0.058 A 
HETATM    7  C   UNL     1      31.720  50.798  41.289  1.00  0.00    -0.002 A 
HETATM    8  C   UNL     1      32.746  50.278  42.110  1.00  0.00     0.046 A 
HETATM    9  C   UNL     1      34.063  50.696  41.882  1.00  0.00     0.066 A 
HETATM   10  N   UNL     1      35.248  50.374  42.487  1.00  0.00    -0.342 N 
HETATM   11  H   UNL     1      35.370  49.724  43.254  1.00  0.00     0.167 HD
ENDROOT
BRANCH   1  12
HETATM   12  C   UNL     1      37.710  50.956  42.243  1.00  0.00     0.084 C 
HETATM   13  C   UNL     1      38.612  51.927  41.483  1.00  0.00     0.188 C 
HETATM   14  O   UNL     1      38.373  53.305  41.807  1.00  0.00    -0.350 OA
HETATM   15  C   UNL     1      38.276  53.576  43.146  1.00  0.00     0.075 A 
HETATM   16  C   UNL     1      38.356  54.919  43.503  1.00  0.00     0.040 A 
HETATM   17  C   UNL     1      38.036  52.601  44.117  1.00  0.00    -0.021 A 
HETATM   18  C   UNL     1      38.227  55.292  44.842  1.00  0.00     0.039 A 
HETATM   19  C   UNL     1      38.016  54.328  45.830  1.00  0.00     0.068 A 
HETATM   20  C   UNL     1      37.921  52.985  45.465  1.00  0.00     0.046 A 
HETATM   21  C   UNL     1      37.921  51.147  43.745  1.00  0.00     0.056 C 
BRANCH  19  22
HETATM   22  O   UNL     1      37.913  54.826  47.100  1.00  0.00    -0.356 OA
HETATM   23  C   UNL     1      38.449  54.031  48.150  1.00  0.00     0.210 C 
ENDBRANCH  19  22
ENDBRANCH   1  12
BRANCH   7  24
HETATM   24  C   UNL     1      30.320  50.373  41.503  1.00  0.00     0.072 A 
HETATM   25  C   UNL     1      29.976  49.103  41.922  1.00  0.00     0.052 A 
HETATM   26  C   UNL     1      28.633  48.862  42.079  1.00  0.00     0.122 A 
HETATM   27  N   UNL     1      27.682  49.783  41.848  1.00  0.00    -0.231 NA
HETATM   28  C   UNL     1      28.107  50.989  41.469  1.00  0.00     0.199 A 
HETATM   29  N   UNL     1      29.384  51.322  41.274  1.00  0.00    -0.218 NA
BRANCH  28  30
HETATM   30  N   UNL     1      27.151  51.948  41.209  1.00  0.00    -0.271 NA
HETATM   31  H   UNL     1      26.234  51.565  41.392  1.00  0.00     0.127 HD
HETATM   32  H   UNL     1      27.312  52.344  40.293  1.00  0.00     0.127 HD
ENDBRANCH  28  30
ENDBRANCH   7  24
TORSDOF 4
ENDMDL
MODEL 8
REMARK VINA RESULT:      -8.5     15.300     18.421
REMARK  4 active torsions:
REMARK  status: ('A' for Active; 'I' for Inactive)
REMARK    1  A    between atoms: O_2  and  C_3 
REMARK    2  A    between atoms: C_9  and  C_13 
REMARK    3  A    between atoms: C_19  and  C_24 
REMARK    4  A    between atoms: C_28  and  N_29 
ROOT
HETATM    1  C   UNL     1      41.128  38.161  65.109  1.00  0.00     0.112 A 
HETATM    2  N   UNL     1      40.848  38.337  63.833  1.00  0.00    -0.230 NA
HETATM    3  C   UNL     1      40.002  39.423  63.776  1.00  0.00     0.124 A 
HETATM    4  C   UNL     1      39.382  40.059  62.692  1.00  0.00     0.148 A 
HETATM    5  F   UNL     1      39.569  39.630  61.435  1.00  0.00    -0.203 F 
HETATM    6  C   UNL     1      38.550  41.164  62.914  1.00  0.00     0.058 A 
HETATM    7  C   UNL     1      38.312  41.662  64.209  1.00  0.00    -0.002 A 
HETATM    8  C   UNL     1      38.942  41.026  65.302  1.00  0.00     0.046 A 
HETATM    9  C   UNL     1      39.765  39.922  65.051  1.00  0.00     0.066 A 
HETATM   10  N   UNL     1      40.488  39.105  65.879  1.00  0.00    -0.342 N 
HETATM   11  H   UNL     1      40.542  39.174  66.887  1.00  0.00     0.167 HD
ENDROOT
BRANCH   1  12
HETATM   12  C   UNL     1      41.995  37.069  65.675  1.00  0.00     0.084 C 
HETATM   13  C   UNL     1      42.398  37.309  67.130  1.00  0.00     0.188 C 
HETATM   14  O   UNL     1      41.293  37.266  68.045  1.00  0.00    -0.350 OA
HETATM   15  C   UNL     1      40.444  36.205  67.877  1.00  0.00     0.075 A 
HETATM   16  C   UNL     1      39.557  35.962  68.922  1.00  0.00     0.040 A 
HETATM   17  C   UNL     1      40.388  35.436  66.712  1.00  0.00    -0.021 A 
HETATM   18  C   UNL     1      38.627  34.926  68.820  1.00  0.00     0.039 A 
HETATM   19  C   UNL     1      38.576  34.128  67.675  1.00  0.00     0.068 A 
HETATM   20  C   UNL     1      39.457  34.386  66.624  1.00  0.00     0.046 A 
HETATM   21  C   UNL     1      41.321  35.701  65.562  1.00  0.00     0.056 C 
BRANCH  19  22
HETATM   22  O   UNL     1      37.625  33.147  67.707  1.00  0.00    -0.356 OA
HETATM   23  C   UNL     1      38.045  31.855  68.130  1.00  0.00     0.210 C 
ENDBRANCH  19  22
ENDBRANCH   1  12
BRANCH   7  24
HETATM   24  C   UNL     1      37.435  42.830  64.443  1.00  0.00     0.072 A 
HETATM   25  C   UNL     1      36.428  42.836  65.388  1.00  0.00     0.052 A 
HETATM   26  C   UNL     1      35.701  43.996  65.489  1.00  0.00     0.122 A 
HETATM   27  N   UNL     1      35.927  45.082  64.730  1.00  0.00    -0.231 NA
HETATM   28  C   UNL     1      36.935  44.995  63.860  1.00  0.00     0.199 A 
HETATM   29  N   UNL     1      37.691  43.912  63.674  1.00  0.00    -0.218 NA
BRANCH  28  30
HETATM   30  N   UNL     1      37.178  46.089  63.056  1.00  0.00    -0.271 NA
HETATM   31  H   UNL     1      38.140  46.069  62.748  1.00  0.00     0.127 HD
HETATM   32  H   UNL     1      36.859  46.926  63.522  1.00  0.00     0.127 HD
ENDBRANCH  28  30
ENDBRANCH   7  24
TORSDOF 4
ENDMDL
MODEL 9
REMARK VINA RESULT:      -8.5     14.101     16.584
REMARK  4 active torsions:
REMARK  status: ('A' for Active; 'I' for Inactive)
REMARK    1  A    between atoms: O_2  and  C_3 
REMARK    2  A    between atoms: C_9  and  C_13 
REMARK    3  A    between atoms: C_19  and  C_24 
REMARK    4  A    between atoms: C_28  and  N_29 
ROOT
HETATM    1  C   UNL     1      36.321  51.858  42.465  1.00  0.00     0.112 A 
HETATM    2  N   UNL     1      35.512  52.235  43.435  1.00  0.00    -0.230 NA
HETATM    3  C   UNL     1      34.306  51.615  43.184  1.00  0.00     0.124 A 
HETATM    4  C   UNL     1      33.085  51.650  43.873  1.00  0.00     0.148 A 
HETATM    5  F   UNL     1      32.939  52.377  44.991  1.00  0.00    -0.203 F 
HETATM    6  C   UNL     1      31.993  50.917  43.393  1.00  0.00     0.058 A 
HETATM    7  C   UNL     1      32.082  50.136  42.225  1.00  0.00    -0.002 A 
HETATM    8  C   UNL     1      33.314  50.095  41.534  1.00  0.00     0.046 A 
HETATM    9  C   UNL     1      34.387  50.841  42.034  1.00  0.00     0.066 A 
HETATM   10  N   UNL     1      35.673  51.012  41.596  1.00  0.00    -0.342 N 
HETATM   11  H   UNL     1      36.082  50.595  40.769  1.00  0.00     0.167 HD
ENDROOT
BRANCH   1  12
HETATM   12  C   UNL     1      37.748  52.304  42.290  1.00  0.00     0.084 C 
HETATM   13  C   UNL     1      37.885  53.805  42.036  1.00  0.00     0.188 C 
HETATM   14  O   UNL     1      37.494  54.614  43.154  1.00  0.00    -0.350 OA
HETATM   15  C   UNL     1      37.998  54.212  44.363  1.00  0.00     0.075 A 
HETATM   16  C   UNL     1      37.899  55.134  45.402  1.00  0.00     0.040 A 
HETATM   17  C   UNL     1      38.518  52.937  44.599  1.00  0.00    -0.021 A 
HETATM   18  C   UNL     1      38.349  54.795  46.679  1.00  0.00     0.039 A 
HETATM   19  C   UNL     1      38.899  53.536  46.926  1.00  0.00     0.068 A 
HETATM   20  C   UNL     1      38.981  52.610  45.885  1.00  0.00     0.046 A 
HETATM   21  C   UNL     1      38.608  51.920  43.494  1.00  0.00     0.056 C 
BRANCH  19  22
HETATM   22  O   UNL     1      39.305  53.335  48.217  1.00  0.00    -0.356 OA
HETATM   23  C   UNL     1      40.439  54.073  48.657  1.00  0.00     0.210 C 
ENDBRANCH  19  22
ENDBRANCH   1  12
BRANCH   7  24
HETATM   24  C   UNL     1      30.928  49.361  41.719  1.00  0.00     0.072 A 
HETATM   25  C   UNL     1      31.066  48.240  40.925  1.00  0.00     0.052 A 
HETATM   26  C   UNL     1      29.901  47.626  40.537  1.00  0.00     0.122 A 
HETATM   27  N   UNL     1      28.680  48.063  40.890  1.00  0.00    -0.231 NA
HETATM   28  C   UNL     1      28.642  49.139  41.677  1.00  0.00     0.199 A 
HETATM   29  N   UNL     1      29.712  49.816  42.098  1.00  0.00    -0.218 NA
BRANCH  28  30
HETATM   30  N   UNL     1      27.401  49.618  42.041  1.00  0.00    -0.271 NA
HETATM   31  H   UNL     1      26.865  48.873  42.462  1.00  0.00     0.127 HD
HETATM   32  H   UNL     1      26.985  50.101  41.258  1.00  0.00     0.127 HD
ENDBRANCH  28  30
ENDBRANCH   7  24
TORSDOF 4
ENDMDL
MODEL 10
REMARK VINA RESULT:      -8.5      2.107      4.324
REMARK  4 active torsions:
REMARK  status: ('A' for Active; 'I' for Inactive)
REMARK    1  A    between atoms: O_2  and  C_3 
REMARK    2  A    between atoms: C_9  and  C_13 
REMARK    3  A    between atoms: C_19  and  C_24 
REMARK    4  A    between atoms: C_28  and  N_29 
ROOT
HETATM    1  C   UNL     1      27.394  42.916  50.929  1.00  0.00     0.112 A 
HETATM    2  N   UNL     1      26.873  43.990  51.488  1.00  0.00    -0.230 NA
HETATM    3  C   UNL     1      27.596  44.205  52.642  1.00  0.00     0.124 A 
HETATM    4  C   UNL     1      27.490  45.192  53.632  1.00  0.00     0.148 A 
HETATM    5  F   UNL     1      26.559  46.155  53.555  1.00  0.00    -0.203 F 
HETATM    6  C   UNL     1      28.365  45.180  54.725  1.00  0.00     0.058 A 
HETATM    7  C   UNL     1      29.362  44.196  54.864  1.00  0.00    -0.002 A 
HETATM    8  C   UNL     1      29.474  43.205  53.862  1.00  0.00     0.046 A 
HETATM    9  C   UNL     1      28.584  43.239  52.784  1.00  0.00     0.066 A 
HETATM   10  N   UNL     1      28.435  42.432  51.687  1.00  0.00    -0.342 N 
HETATM   11  H   UNL     1      28.988  41.613  51.469  1.00  0.00     0.167 HD
ENDROOT
BRANCH   1  12
HETATM   12  C   UNL     1      26.914  42.268  49.658  1.00  0.00     0.084 C 
HETATM   13  C   UNL     1      25.928  41.125  49.896  1.00  0.00     0.188 C 
HETATM   14  O   UNL     1      24.679  41.554  50.458  1.00  0.00    -0.350 OA
HETATM   15  C   UNL     1      24.118  42.648  49.854  1.00  0.00     0.075 A 
HETATM   16  C   UNL     1      22.783  42.898  50.162  1.00  0.00     0.040 A 
HETATM   17  C   UNL     1      24.829  43.528  49.034  1.00  0.00    -0.021 A 
HETATM   18  C   UNL     1      22.142  44.015  49.624  1.00  0.00     0.039 A 
HETATM   19  C   UNL     1      22.828  44.889  48.779  1.00  0.00     0.068 A 
HETATM   20  C   UNL     1      24.170  44.643  48.486  1.00  0.00     0.046 A 
HETATM   21  C   UNL     1      26.279  43.288  48.712  1.00  0.00     0.056 C 
BRANCH  19  22
HETATM   22  O   UNL     1      22.082  45.938  48.317  1.00  0.00    -0.356 OA
HETATM   23  C   UNL     1      20.794  45.633  47.796  1.00  0.00     0.210 C 
ENDBRANCH  19  22
ENDBRANCH   1  12
BRANCH   7  24
HETATM   24  C   UNL     1      30.287  44.184  56.017  1.00  0.00     0.072 A 
HETATM   25  C   UNL     1      31.207  43.177  56.233  1.00  0.00     0.052 A 
HETATM   26  C   UNL     1      31.998  43.310  57.348  1.00  0.00     0.122 A 
HETATM   27  N   UNL     1      31.912  44.345  58.200  1.00  0.00    -0.231 NA
HETATM   28  C   UNL     1      31.012  45.283  57.900  1.00  0.00     0.199 A 
HETATM   29  N   UNL     1      30.186  45.243  56.853  1.00  0.00    -0.218 NA
BRANCH  28  30
HETATM   30  N   UNL     1      30.889  46.348  58.768  1.00  0.00    -0.271 NA
HETATM   31  H   UNL     1      31.784  46.535  59.197  1.00  0.00     0.127 HD
HETATM   32  H   UNL     1      30.105  46.191  59.385  1.00  0.00     0.127 HD
ENDBRANCH  28  30
ENDBRANCH   7  24
TORSDOF 4
ENDMDL
