MODEL 1
REMARK VINA RESULT:      -9.8      0.000      0.000
REMARK  9 active torsions:
REMARK  status: ('A' for Active; 'I' for Inactive)
REMARK    1  A    between atoms: C_2  and  N_3 
REMARK    2  A    between atoms: N_3  and  C_4 
REMARK    3  A    between atoms: N_3  and  C_32 
REMARK    4  A    between atoms: C_7  and  C_8 
REMARK       I    between atoms: C_8  and  N_9 
REMARK    5  A    between atoms: N_9  and  C_10 
REMARK    6  A    between atoms: C_10  and  N_11 
REMARK    7  A    between atoms: N_11  and  C_12 
REMARK    8  A    between atoms: C_14  and  C_15 
REMARK    9  A    between atoms: C_24  and  O_25 
ROOT
HETATM    1  N   UNL     1      25.716  46.213  51.170  1.00  0.00    -0.337 N 
HETATM    2  H   UNL     1      26.114  46.419  52.083  1.00  0.00     0.168 HD
ENDROOT
BRANCH   1   3
HETATM    3  C   UNL     1      25.534  44.869  50.934  1.00  0.00     0.157 C 
HETATM    4  S   UNL     1      25.688  44.323  49.362  1.00  0.00    -0.047 SA
BRANCH   3   5
HETATM    5  N   UNL     1      25.336  44.097  52.064  1.00  0.00    -0.201 NA
HETATM    6  C   UNL     1      25.468  44.542  53.367  1.00  0.00     0.237 C 
HETATM    7  O   UNL     1      24.466  44.716  54.058  1.00  0.00    -0.274 OA
HETATM    8  H   UNL     1      24.415  43.681  51.979  1.00  0.00     0.139 HD
BRANCH   6   9
HETATM    9  C   UNL     1      26.831  44.676  53.952  1.00  0.00     0.026 A 
HETATM   10  C   UNL     1      27.211  45.921  54.456  1.00  0.00     0.019 A 
HETATM   11  C   UNL     1      28.424  46.075  55.139  1.00  0.00     0.030 A 
HETATM   12  C   UNL     1      29.291  44.996  55.367  1.00  0.00     0.030 A 
HETATM   13  C   UNL     1      28.911  43.766  54.794  1.00  0.00     0.030 A 
HETATM   14  C   UNL     1      27.698  43.596  54.106  1.00  0.00     0.019 A 
BRANCH  12  15
HETATM   15  N   UNL     1      30.475  45.111  56.099  1.00  0.00    -0.382 N 
BRANCH  15  16
HETATM   16  C   UNL     1      31.451  44.012  56.002  1.00  0.00     0.118 C 
HETATM   17  C   UNL     1      31.552  43.281  57.333  1.00  0.00     0.026 C 
ENDBRANCH  15  16
BRANCH  15  18
HETATM   18  C   UNL     1      30.523  45.880  57.354  1.00  0.00     0.118 C 
HETATM   19  C   UNL     1      29.177  45.858  58.063  1.00  0.00     0.026 C 
ENDBRANCH  15  18
ENDBRANCH  12  15
ENDBRANCH   6   9
ENDBRANCH   3   5
ENDBRANCH   1   3
BRANCH   1  20
HETATM   20  C   UNL     1      25.484  47.321  50.327  1.00  0.00     0.035 A 
HETATM   21  C   UNL     1      24.197  47.797  50.040  1.00  0.00     0.046 A 
HETATM   22  C   UNL     1      23.985  48.857  49.135  1.00  0.00     0.035 A 
HETATM   23  C   UNL     1      25.124  49.447  48.557  1.00  0.00     0.078 A 
HETATM   24  C   UNL     1      26.408  48.978  48.831  1.00  0.00     0.040 A 
HETATM   25  C   UNL     1      26.586  47.899  49.696  1.00  0.00     0.032 A 
BRANCH  22  26
HETATM   26  C   UNL     1      22.630  49.307  48.742  1.00  0.00     0.112 A 
HETATM   27  S   UNL     1      21.588  48.361  47.750  1.00  0.00    -0.067 SA
HETATM   28  C   UNL     1      20.436  49.635  47.711  1.00  0.00     0.035 A 
HETATM   29  C   UNL     1      20.900  50.688  48.498  1.00  0.00     0.075 A 
HETATM   30  C   UNL     1      19.210  49.700  47.029  1.00  0.00     0.021 A 
HETATM   31  N   UNL     1      22.135  50.483  49.093  1.00  0.00    -0.239 NA
HETATM   32  C   UNL     1      20.109  51.849  48.611  1.00  0.00     0.033 A 
HETATM   33  C   UNL     1      18.890  51.929  47.929  1.00  0.00     0.002 A 
HETATM   34  C   UNL     1      18.449  50.866  47.147  1.00  0.00     0.002 A 
ENDBRANCH  22  26
BRANCH  23  35
HETATM   35  O   UNL     1      25.056  50.495  47.673  1.00  0.00    -0.360 OA
HETATM   36  H   UNL     1      25.362  51.304  48.140  1.00  0.00     0.217 HD
ENDBRANCH  23  35
ENDBRANCH   1  20
TORSDOF 9
ENDMDL
MODEL 2
REMARK VINA RESULT:      -9.7      1.440      2.029
REMARK  9 active torsions:
REMARK  status: ('A' for Active; 'I' for Inactive)
REMARK    1  A    between atoms: C_2  and  N_3 
REMARK    2  A    between atoms: N_3  and  C_4 
REMARK    3  A    between atoms: N_3  and  C_32 
REMARK    4  A    between atoms: C_7  and  C_8 
REMARK       I    between atoms: C_8  and  N_9 
REMARK    5  A    between atoms: N_9  and  C_10 
REMARK    6  A    between atoms: C_10  and  N_11 
REMARK    7  A    between atoms: N_11  and  C_12 
REMARK    8  A    between atoms: C_14  and  C_15 
REMARK    9  A    between atoms: C_24  and  O_25 
ROOT
HETATM    1  N   UNL     1      25.621  45.504  51.184  1.00  0.00    -0.337 N 
HETATM    2  H   UNL     1      25.734  45.599  52.190  1.00  0.00     0.168 HD
ENDROOT
BRANCH   1   3
HETATM    3  C   UNL     1      25.680  44.202  50.738  1.00  0.00     0.157 C 
HETATM    4  S   UNL     1      24.240  43.418  50.421  1.00  0.00    -0.047 SA
BRANCH   3   5
HETATM    5  N   UNL     1      26.956  43.719  50.508  1.00  0.00    -0.201 NA
HETATM    6  C   UNL     1      27.591  42.753  51.266  1.00  0.00     0.237 C 
HETATM    7  O   UNL     1      27.743  41.621  50.812  1.00  0.00    -0.274 OA
HETATM    8  H   UNL     1      26.983  43.411  49.541  1.00  0.00     0.139 HD
BRANCH   6   9
HETATM    9  C   UNL     1      28.199  43.141  52.570  1.00  0.00     0.026 A 
HETATM   10  C   UNL     1      29.495  42.703  52.847  1.00  0.00     0.019 A 
HETATM   11  C   UNL     1      30.169  43.147  53.992  1.00  0.00     0.030 A 
HETATM   12  C   UNL     1      29.591  44.058  54.889  1.00  0.00     0.030 A 
HETATM   13  C   UNL     1      28.261  44.434  54.616  1.00  0.00     0.030 A 
HETATM   14  C   UNL     1      27.572  43.998  53.473  1.00  0.00     0.019 A 
BRANCH  12  15
HETATM   15  N   UNL     1      30.266  44.563  56.003  1.00  0.00    -0.382 N 
BRANCH  15  16
HETATM   16  C   UNL     1      29.958  45.940  56.425  1.00  0.00     0.118 C 
HETATM   17  C   UNL     1      29.314  45.936  57.803  1.00  0.00     0.026 C 
ENDBRANCH  15  16
BRANCH  15  18
HETATM   18  C   UNL     1      31.614  44.088  56.356  1.00  0.00     0.118 C 
HETATM   19  C   UNL     1      31.548  42.937  57.350  1.00  0.00     0.026 C 
ENDBRANCH  15  18
ENDBRANCH  12  15
ENDBRANCH   6   9
ENDBRANCH   3   5
ENDBRANCH   1   3
BRANCH   1  20
HETATM   20  C   UNL     1      25.483  46.705  50.456  1.00  0.00     0.035 A 
HETATM   21  C   UNL     1      24.235  47.264  50.148  1.00  0.00     0.046 A 
HETATM   22  C   UNL     1      24.119  48.425  49.356  1.00  0.00     0.035 A 
HETATM   23  C   UNL     1      25.312  49.024  48.914  1.00  0.00     0.078 A 
HETATM   24  C   UNL     1      26.559  48.474  49.210  1.00  0.00     0.040 A 
HETATM   25  C   UNL     1      26.643  47.300  49.959  1.00  0.00     0.032 A 
BRANCH  22  26
HETATM   26  C   UNL     1      22.808  48.972  48.936  1.00  0.00     0.112 A 
HETATM   27  S   UNL     1      21.752  48.137  47.863  1.00  0.00    -0.067 SA
HETATM   28  C   UNL     1      20.679  49.478  47.844  1.00  0.00     0.035 A 
HETATM   29  C   UNL     1      21.173  50.464  48.696  1.00  0.00     0.075 A 
HETATM   30  C   UNL     1      19.487  49.647  47.121  1.00  0.00     0.021 A 
HETATM   31  N   UNL     1      22.369  50.158  49.326  1.00  0.00    -0.239 NA
HETATM   32  C   UNL     1      20.447  51.664  48.837  1.00  0.00     0.033 A 
HETATM   33  C   UNL     1      19.262  51.848  48.116  1.00  0.00     0.002 A 
HETATM   34  C   UNL     1      18.790  50.850  47.269  1.00  0.00     0.002 A 
ENDBRANCH  22  26
BRANCH  23  35
HETATM   35  O   UNL     1      25.339  50.164  48.150  1.00  0.00    -0.360 OA
HETATM   36  H   UNL     1      24.564  50.141  47.546  1.00  0.00     0.217 HD
ENDBRANCH  23  35
ENDBRANCH   1  20
TORSDOF 9
ENDMDL
MODEL 3
REMARK VINA RESULT:      -9.6      2.428     11.480
REMARK  9 active torsions:
REMARK  status: ('A' for Active; 'I' for Inactive)
REMARK    1  A    between atoms: C_2  and  N_3 
REMARK    2  A    between atoms: N_3  and  C_4 
REMARK    3  A    between atoms: N_3  and  C_32 
REMARK    4  A    between atoms: C_7  and  C_8 
REMARK       I    between atoms: C_8  and  N_9 
REMARK    5  A    between atoms: N_9  and  C_10 
REMARK    6  A    between atoms: C_10  and  N_11 
REMARK    7  A    between atoms: N_11  and  C_12 
REMARK    8  A    between atoms: C_14  and  C_15 
REMARK    9  A    between atoms: C_24  and  O_25 
ROOT
HETATM    1  N   UNL     1      24.116  48.195  49.517  1.00  0.00    -0.337 N 
HETATM    2  H   UNL     1      24.948  48.733  49.289  1.00  0.00     0.168 HD
ENDROOT
BRANCH   1   3
HETATM    3  C   UNL     1      22.942  48.787  49.105  1.00  0.00     0.157 C 
HETATM    4  S   UNL     1      21.728  47.797  48.527  1.00  0.00    -0.047 SA
BRANCH   3   5
HETATM    5  N   UNL     1      22.871  50.153  49.312  1.00  0.00    -0.201 NA
HETATM    6  C   UNL     1      21.952  50.788  50.128  1.00  0.00     0.237 C 
HETATM    7  O   UNL     1      22.314  51.263  51.203  1.00  0.00    -0.274 OA
HETATM    8  H   UNL     1      23.794  50.455  49.605  1.00  0.00     0.139 HD
BRANCH   6   9
HETATM    9  C   UNL     1      20.566  51.003  49.627  1.00  0.00     0.026 A 
HETATM   10  C   UNL     1      19.511  50.458  50.360  1.00  0.00     0.019 A 
HETATM   11  C   UNL     1      18.182  50.741  50.016  1.00  0.00     0.030 A 
HETATM   12  C   UNL     1      17.855  51.591  48.948  1.00  0.00     0.030 A 
HETATM   13  C   UNL     1      18.939  52.076  48.190  1.00  0.00     0.030 A 
HETATM   14  C   UNL     1      20.276  51.802  48.523  1.00  0.00     0.019 A 
BRANCH  12  15
HETATM   15  N   UNL     1      16.541  51.937  48.625  1.00  0.00    -0.382 N 
BRANCH  15  16
HETATM   16  C   UNL     1      15.620  52.241  49.734  1.00  0.00     0.118 C 
HETATM   17  C   UNL     1      15.811  53.678  50.197  1.00  0.00     0.026 C 
ENDBRANCH  15  16
BRANCH  15  18
HETATM   18  C   UNL     1      15.899  51.431  47.400  1.00  0.00     0.118 C 
HETATM   19  C   UNL     1      15.546  49.957  47.534  1.00  0.00     0.026 C 
ENDBRANCH  15  18
ENDBRANCH  12  15
ENDBRANCH   6   9
ENDBRANCH   3   5
ENDBRANCH   1   3
BRANCH   1  20
HETATM   20  C   UNL     1      24.322  47.003  50.243  1.00  0.00     0.035 A 
HETATM   21  C   UNL     1      25.224  46.915  51.312  1.00  0.00     0.046 A 
HETATM   22  C   UNL     1      25.470  45.695  51.975  1.00  0.00     0.035 A 
HETATM   23  C   UNL     1      24.743  44.571  51.543  1.00  0.00     0.078 A 
HETATM   24  C   UNL     1      23.847  44.646  50.477  1.00  0.00     0.040 A 
HETATM   25  C   UNL     1      23.656  45.856  49.811  1.00  0.00     0.032 A 
BRANCH  22  26
HETATM   26  C   UNL     1      26.493  45.560  53.038  1.00  0.00     0.112 A 
HETATM   27  S   UNL     1      26.713  46.740  54.272  1.00  0.00    -0.067 SA
HETATM   28  C   UNL     1      28.076  45.886  54.874  1.00  0.00     0.035 A 
HETATM   29  C   UNL     1      28.250  44.726  54.121  1.00  0.00     0.075 A 
HETATM   30  C   UNL     1      28.933  46.221  55.934  1.00  0.00     0.021 A 
HETATM   31  N   UNL     1      27.335  44.541  53.096  1.00  0.00    -0.239 NA
HETATM   32  C   UNL     1      29.320  43.865  54.440  1.00  0.00     0.033 A 
HETATM   33  C   UNL     1      30.186  44.192  55.489  1.00  0.00     0.002 A 
HETATM   34  C   UNL     1      29.993  45.357  56.225  1.00  0.00     0.002 A 
ENDBRANCH  22  26
BRANCH  23  35
HETATM   35  O   UNL     1      24.878  43.329  52.112  1.00  0.00    -0.360 OA
HETATM   36  H   UNL     1      25.603  43.377  52.773  1.00  0.00     0.217 HD
ENDBRANCH  23  35
ENDBRANCH   1  20
TORSDOF 9
ENDMDL
MODEL 4
REMARK VINA RESULT:      -9.5      3.136      9.682
REMARK  9 active torsions:
REMARK  status: ('A' for Active; 'I' for Inactive)
REMARK    1  A    between atoms: C_2  and  N_3 
REMARK    2  A    between atoms: N_3  and  C_4 
REMARK    3  A    between atoms: N_3  and  C_32 
REMARK    4  A    between atoms: C_7  and  C_8 
REMARK       I    between atoms: C_8  and  N_9 
REMARK    5  A    between atoms: N_9  and  C_10 
REMARK    6  A    between atoms: C_10  and  N_11 
REMARK    7  A    between atoms: N_11  and  C_12 
REMARK    8  A    between atoms: C_14  and  C_15 
REMARK    9  A    between atoms: C_24  and  O_25 
ROOT
HETATM    1  N   UNL     1      21.678  44.274  48.463  1.00  0.00    -0.337 N 
HETATM    2  H   UNL     1      21.982  43.341  48.731  1.00  0.00     0.168 HD
ENDROOT
BRANCH   1   3
HETATM    3  C   UNL     1      20.497  44.292  47.755  1.00  0.00     0.157 C 
HETATM    4  S   UNL     1      20.520  43.727  46.183  1.00  0.00    -0.047 SA
BRANCH   3   5
HETATM    5  N   UNL     1      19.387  44.694  48.476  1.00  0.00    -0.201 NA
HETATM    6  C   UNL     1      18.465  45.636  48.060  1.00  0.00     0.237 C 
HETATM    7  O   UNL     1      17.344  45.279  47.706  1.00  0.00    -0.274 OA
HETATM    8  H   UNL     1      18.873  43.853  48.716  1.00  0.00     0.139 HD
BRANCH   6   9
HETATM    9  C   UNL     1      18.804  47.082  48.177  1.00  0.00     0.026 A 
HETATM   10  C   UNL     1      19.129  47.580  49.440  1.00  0.00     0.019 A 
HETATM   11  C   UNL     1      19.589  48.895  49.592  1.00  0.00     0.030 A 
HETATM   12  C   UNL     1      19.764  49.753  48.494  1.00  0.00     0.030 A 
HETATM   13  C   UNL     1      19.371  49.242  47.242  1.00  0.00     0.030 A 
HETATM   14  C   UNL     1      18.909  47.927  47.074  1.00  0.00     0.019 A 
BRANCH  12  15
HETATM   15  N   UNL     1      20.280  51.046  48.613  1.00  0.00    -0.382 N 
BRANCH  15  16
HETATM   16  C   UNL     1      21.506  51.224  49.410  1.00  0.00     0.118 C 
HETATM   17  C   UNL     1      22.730  51.186  48.507  1.00  0.00     0.026 C 
ENDBRANCH  15  16
BRANCH  15  18
HETATM   18  C   UNL     1      19.401  52.225  48.546  1.00  0.00     0.118 C 
HETATM   19  C   UNL     1      18.403  52.233  49.694  1.00  0.00     0.026 C 
ENDBRANCH  15  18
ENDBRANCH  12  15
ENDBRANCH   6   9
ENDBRANCH   3   5
ENDBRANCH   1   3
BRANCH   1  20
HETATM   20  C   UNL     1      22.537  45.336  48.818  1.00  0.00     0.035 A 
HETATM   21  C   UNL     1      23.494  45.226  49.836  1.00  0.00     0.046 A 
HETATM   22  C   UNL     1      24.291  46.323  50.224  1.00  0.00     0.035 A 
HETATM   23  C   UNL     1      24.112  47.528  49.521  1.00  0.00     0.078 A 
HETATM   24  C   UNL     1      23.159  47.650  48.510  1.00  0.00     0.040 A 
HETATM   25  C   UNL     1      22.355  46.561  48.177  1.00  0.00     0.032 A 
BRANCH  22  26
HETATM   26  C   UNL     1      25.235  46.256  51.364  1.00  0.00     0.112 A 
HETATM   27  S   UNL     1      26.253  44.897  51.649  1.00  0.00    -0.067 SA
HETATM   28  C   UNL     1      26.807  45.595  53.117  1.00  0.00     0.035 A 
HETATM   29  C   UNL     1      26.212  46.846  53.275  1.00  0.00     0.075 A 
HETATM   30  C   UNL     1      27.700  45.070  54.065  1.00  0.00     0.021 A 
HETATM   31  N   UNL     1      25.339  47.218  52.265  1.00  0.00    -0.239 NA
HETATM   32  C   UNL     1      26.524  47.604  54.422  1.00  0.00     0.033 A 
HETATM   33  C   UNL     1      27.406  47.089  55.378  1.00  0.00     0.002 A 
HETATM   34  C   UNL     1      27.985  45.837  55.199  1.00  0.00     0.002 A 
ENDBRANCH  22  26
BRANCH  23  35
HETATM   35  O   UNL     1      24.833  48.665  49.790  1.00  0.00    -0.360 OA
HETATM   36  H   UNL     1      25.782  48.466  49.629  1.00  0.00     0.217 HD
ENDBRANCH  23  35
ENDBRANCH   1  20
TORSDOF 9
ENDMDL
MODEL 5
REMARK VINA RESULT:      -9.4     11.812     14.820
REMARK  9 active torsions:
REMARK  status: ('A' for Active; 'I' for Inactive)
REMARK    1  A    between atoms: C_2  and  N_3 
REMARK    2  A    between atoms: N_3  and  C_4 
REMARK    3  A    between atoms: N_3  and  C_32 
REMARK    4  A    between atoms: C_7  and  C_8 
REMARK       I    between atoms: C_8  and  N_9 
REMARK    5  A    between atoms: N_9  and  C_10 
REMARK    6  A    between atoms: C_10  and  N_11 
REMARK    7  A    between atoms: N_11  and  C_12 
REMARK    8  A    between atoms: C_14  and  C_15 
REMARK    9  A    between atoms: C_24  and  O_25 
ROOT
HETATM    1  N   UNL     1      34.229  49.010  41.143  1.00  0.00    -0.337 N 
HETATM    2  H   UNL     1      34.771  48.150  41.120  1.00  0.00     0.168 HD
ENDROOT
BRANCH   1   3
HETATM    3  C   UNL     1      34.975  50.144  40.908  1.00  0.00     0.157 C 
HETATM    4  S   UNL     1      36.047  50.634  42.092  1.00  0.00    -0.047 SA
BRANCH   3   5
HETATM    5  N   UNL     1      34.815  50.701  39.652  1.00  0.00    -0.201 NA
HETATM    6  C   UNL     1      34.166  51.892  39.385  1.00  0.00     0.237 C 
HETATM    7  O   UNL     1      34.817  52.886  39.069  1.00  0.00    -0.274 OA
HETATM    8  H   UNL     1      35.739  50.760  39.237  1.00  0.00     0.139 HD
BRANCH   6   9
HETATM    9  C   UNL     1      32.677  51.914  39.355  1.00  0.00     0.026 A 
HETATM   10  C   UNL     1      32.026  51.093  38.433  1.00  0.00     0.019 A 
HETATM   11  C   UNL     1      30.630  50.968  38.449  1.00  0.00     0.030 A 
HETATM   12  C   UNL     1      29.835  51.634  39.395  1.00  0.00     0.030 A 
HETATM   13  C   UNL     1      30.514  52.501  40.272  1.00  0.00     0.030 A 
HETATM   14  C   UNL     1      31.912  52.638  40.268  1.00  0.00     0.019 A 
BRANCH  12  15
HETATM   15  N   UNL     1      28.449  51.476  39.471  1.00  0.00    -0.382 N 
BRANCH  15  16
HETATM   16  C   UNL     1      27.848  51.329  40.807  1.00  0.00     0.118 C 
HETATM   17  C   UNL     1      27.540  52.698  41.397  1.00  0.00     0.026 C 
ENDBRANCH  15  16
BRANCH  15  18
HETATM   18  C   UNL     1      27.693  50.849  38.374  1.00  0.00     0.118 C 
HETATM   19  C   UNL     1      26.785  49.744  38.893  1.00  0.00     0.026 C 
ENDBRANCH  15  18
ENDBRANCH  12  15
ENDBRANCH   6   9
ENDBRANCH   3   5
ENDBRANCH   1   3
BRANCH   1  20
HETATM   20  C   UNL     1      32.860  48.876  41.458  1.00  0.00     0.035 A 
HETATM   21  C   UNL     1      31.981  48.098  40.693  1.00  0.00     0.046 A 
HETATM   22  C   UNL     1      30.602  48.038  40.982  1.00  0.00     0.035 A 
HETATM   23  C   UNL     1      30.147  48.765  42.097  1.00  0.00     0.078 A 
HETATM   24  C   UNL     1      31.012  49.546  42.862  1.00  0.00     0.040 A 
HETATM   25  C   UNL     1      32.363  49.622  42.527  1.00  0.00     0.032 A 
BRANCH  22  26
HETATM   26  C   UNL     1      29.642  47.304  40.126  1.00  0.00     0.112 A 
HETATM   27  S   UNL     1      29.824  47.181  38.418  1.00  0.00    -0.067 SA
HETATM   28  C   UNL     1      28.313  46.373  38.296  1.00  0.00     0.035 A 
HETATM   29  C   UNL     1      27.784  46.208  39.575  1.00  0.00     0.075 A 
HETATM   30  C   UNL     1      27.640  45.923  37.148  1.00  0.00     0.021 A 
HETATM   31  N   UNL     1      28.556  46.721  40.606  1.00  0.00    -0.239 NA
HETATM   32  C   UNL     1      26.538  45.564  39.715  1.00  0.00     0.033 A 
HETATM   33  C   UNL     1      25.854  45.118  38.578  1.00  0.00     0.002 A 
HETATM   34  C   UNL     1      26.400  45.298  37.312  1.00  0.00     0.002 A 
ENDBRANCH  22  26
BRANCH  23  35
HETATM   35  O   UNL     1      28.833  48.779  42.495  1.00  0.00    -0.360 OA
HETATM   36  H   UNL     1      28.756  49.394  43.257  1.00  0.00     0.217 HD
ENDBRANCH  23  35
ENDBRANCH   1  20
TORSDOF 9
ENDMDL
MODEL 6
REMARK VINA RESULT:      -9.3      2.339     10.916
REMARK  9 active torsions:
REMARK  status: ('A' for Active; 'I' for Inactive)
REMARK    1  A    between atoms: C_2  and  N_3 
REMARK    2  A    between atoms: N_3  and  C_4 
REMARK    3  A    between atoms: N_3  and  C_32 
REMARK    4  A    between atoms: C_7  and  C_8 
REMARK       I    between atoms: C_8  and  N_9 
REMARK    5  A    between atoms: N_9  and  C_10 
REMARK    6  A    between atoms: C_10  and  N_11 
REMARK    7  A    between atoms: N_11  and  C_12 
REMARK    8  A    between atoms: C_14  and  C_15 
REMARK    9  A    between atoms: C_24  and  O_25 
ROOT
HETATM    1  N   UNL     1      26.652  44.096  49.348  1.00  0.00    -0.337 N 
HETATM    2  H   UNL     1      27.145  43.993  48.465  1.00  0.00     0.168 HD
ENDROOT
BRANCH   1   3
HETATM    3  C   UNL     1      25.692  45.082  49.337  1.00  0.00     0.157 C 
HETATM    4  S   UNL     1      24.089  44.614  49.363  1.00  0.00    -0.047 SA
BRANCH   3   5
HETATM    5  N   UNL     1      26.179  46.375  49.404  1.00  0.00    -0.201 NA
HETATM    6  C   UNL     1      25.546  47.435  50.027  1.00  0.00     0.237 C 
HETATM    7  O   UNL     1      25.984  47.868  51.091  1.00  0.00    -0.274 OA
HETATM    8  H   UNL     1      27.117  46.316  49.787  1.00  0.00     0.139 HD
BRANCH   6   9
HETATM    9  C   UNL     1      24.422  48.118  49.329  1.00  0.00     0.026 A 
HETATM   10  C   UNL     1      23.150  47.550  49.418  1.00  0.00     0.019 A 
HETATM   11  C   UNL     1      22.032  48.216  48.899  1.00  0.00     0.030 A 
HETATM   12  C   UNL     1      22.133  49.479  48.295  1.00  0.00     0.030 A 
HETATM   13  C   UNL     1      23.436  49.999  48.166  1.00  0.00     0.030 A 
HETATM   14  C   UNL     1      24.566  49.343  48.680  1.00  0.00     0.019 A 
BRANCH  12  15
HETATM   15  N   UNL     1      21.026  50.190  47.828  1.00  0.00    -0.382 N 
BRANCH  15  16
HETATM   16  C   UNL     1      20.727  51.486  48.460  1.00  0.00     0.118 C 
HETATM   17  C   UNL     1      20.096  51.270  49.828  1.00  0.00     0.026 C 
ENDBRANCH  15  16
BRANCH  15  18
HETATM   18  C   UNL     1      19.865  49.496  47.246  1.00  0.00     0.118 C 
HETATM   19  C   UNL     1      19.099  50.407  46.297  1.00  0.00     0.026 C 
ENDBRANCH  15  18
ENDBRANCH  12  15
ENDBRANCH   6   9
ENDBRANCH   3   5
ENDBRANCH   1   3
BRANCH   1  20
HETATM   20  C   UNL     1      27.080  43.260  50.402  1.00  0.00     0.035 A 
HETATM   21  C   UNL     1      27.572  43.763  51.614  1.00  0.00     0.046 A 
HETATM   22  C   UNL     1      28.063  42.911  52.624  1.00  0.00     0.035 A 
HETATM   23  C   UNL     1      28.006  41.527  52.382  1.00  0.00     0.078 A 
HETATM   24  C   UNL     1      27.523  41.015  51.177  1.00  0.00     0.040 A 
HETATM   25  C   UNL     1      27.085  41.883  50.178  1.00  0.00     0.032 A 
BRANCH  22  26
HETATM   26  C   UNL     1      28.680  43.426  53.868  1.00  0.00     0.112 A 
HETATM   27  S   UNL     1      28.221  44.924  54.583  1.00  0.00    -0.067 SA
HETATM   28  C   UNL     1      29.458  44.763  55.764  1.00  0.00     0.035 A 
HETATM   29  C   UNL     1      30.116  43.550  55.566  1.00  0.00     0.075 A 
HETATM   30  C   UNL     1      29.823  45.649  56.790  1.00  0.00     0.021 A 
HETATM   31  N   UNL     1      29.653  42.792  54.502  1.00  0.00    -0.239 NA
HETATM   32  C   UNL     1      31.177  43.206  56.427  1.00  0.00     0.033 A 
HETATM   33  C   UNL     1      31.556  44.085  57.448  1.00  0.00     0.002 A 
HETATM   34  C   UNL     1      30.886  45.291  57.624  1.00  0.00     0.002 A 
ENDBRANCH  22  26
BRANCH  23  35
HETATM   35  O   UNL     1      28.438  40.590  53.288  1.00  0.00    -0.360 OA
HETATM   36  H   UNL     1      28.840  39.848  52.786  1.00  0.00     0.217 HD
ENDBRANCH  23  35
ENDBRANCH   1  20
TORSDOF 9
ENDMDL
MODEL 7
REMARK VINA RESULT:      -9.3      2.126      2.537
REMARK  9 active torsions:
REMARK  status: ('A' for Active; 'I' for Inactive)
REMARK    1  A    between atoms: C_2  and  N_3 
REMARK    2  A    between atoms: N_3  and  C_4 
REMARK    3  A    between atoms: N_3  and  C_32 
REMARK    4  A    between atoms: C_7  and  C_8 
REMARK       I    between atoms: C_8  and  N_9 
REMARK    5  A    between atoms: N_9  and  C_10 
REMARK    6  A    between atoms: C_10  and  N_11 
REMARK    7  A    between atoms: N_11  and  C_12 
REMARK    8  A    between atoms: C_14  and  C_15 
REMARK    9  A    between atoms: C_24  and  O_25 
ROOT
HETATM    1  N   UNL     1      25.281  45.923  49.846  1.00  0.00    -0.337 N 
HETATM    2  H   UNL     1      25.998  46.539  49.471  1.00  0.00     0.168 HD
ENDROOT
BRANCH   1   3
HETATM    3  C   UNL     1      25.730  45.096  50.852  1.00  0.00     0.157 C 
HETATM    4  S   UNL     1      26.830  43.905  50.452  1.00  0.00    -0.047 SA
BRANCH   3   5
HETATM    5  N   UNL     1      25.280  45.418  52.120  1.00  0.00    -0.201 NA
HETATM    6  C   UNL     1      25.829  46.389  52.938  1.00  0.00     0.237 C 
HETATM    7  O   UNL     1      25.228  47.445  53.123  1.00  0.00    -0.274 OA
HETATM    8  H   UNL     1      24.289  45.619  52.038  1.00  0.00     0.139 HD
BRANCH   6   9
HETATM    9  C   UNL     1      27.079  46.080  53.687  1.00  0.00     0.026 A 
HETATM   10  C   UNL     1      27.677  47.107  54.419  1.00  0.00     0.019 A 
HETATM   11  C   UNL     1      28.774  46.846  55.252  1.00  0.00     0.030 A 
HETATM   12  C   UNL     1      29.300  45.554  55.404  1.00  0.00     0.030 A 
HETATM   13  C   UNL     1      28.715  44.551  54.607  1.00  0.00     0.030 A 
HETATM   14  C   UNL     1      27.616  44.797  53.769  1.00  0.00     0.019 A 
BRANCH  12  15
HETATM   15  N   UNL     1      30.352  45.258  56.275  1.00  0.00    -0.382 N 
BRANCH  15  16
HETATM   16  C   UNL     1      31.060  43.981  56.085  1.00  0.00     0.118 C 
HETATM   17  C   UNL     1      31.707  43.540  57.390  1.00  0.00     0.026 C 
ENDBRANCH  15  16
BRANCH  15  18
HETATM   18  C   UNL     1      30.374  45.787  57.649  1.00  0.00     0.118 C 
HETATM   19  C   UNL     1      28.964  46.003  58.178  1.00  0.00     0.026 C 
ENDBRANCH  15  18
ENDBRANCH  12  15
ENDBRANCH   6   9
ENDBRANCH   3   5
ENDBRANCH   1   3
BRANCH   1  20
HETATM   20  C   UNL     1      24.010  46.001  49.237  1.00  0.00     0.035 A 
HETATM   21  C   UNL     1      23.264  47.187  49.195  1.00  0.00     0.046 A 
HETATM   22  C   UNL     1      21.965  47.224  48.648  1.00  0.00     0.035 A 
HETATM   23  C   UNL     1      21.459  46.027  48.110  1.00  0.00     0.078 A 
HETATM   24  C   UNL     1      22.191  44.841  48.152  1.00  0.00     0.040 A 
HETATM   25  C   UNL     1      23.455  44.823  48.739  1.00  0.00     0.032 A 
BRANCH  22  26
HETATM   26  C   UNL     1      21.122  48.441  48.685  1.00  0.00     0.112 A 
HETATM   27  S   UNL     1      21.583  49.916  47.924  1.00  0.00    -0.067 SA
HETATM   28  C   UNL     1      20.203  50.706  48.574  1.00  0.00     0.035 A 
HETATM   29  C   UNL     1      19.452  49.780  49.296  1.00  0.00     0.075 A 
HETATM   30  C   UNL     1      19.817  52.051  48.459  1.00  0.00     0.021 A 
HETATM   31  N   UNL     1      19.971  48.496  49.335  1.00  0.00    -0.239 NA
HETATM   32  C   UNL     1      18.266  50.213  49.924  1.00  0.00     0.033 A 
HETATM   33  C   UNL     1      17.874  51.553  49.823  1.00  0.00     0.002 A 
HETATM   34  C   UNL     1      18.643  52.458  49.099  1.00  0.00     0.002 A 
ENDBRANCH  22  26
BRANCH  23  35
HETATM   35  O   UNL     1      20.216  45.931  47.535  1.00  0.00    -0.360 OA
HETATM   36  H   UNL     1      19.546  46.097  48.235  1.00  0.00     0.217 HD
ENDBRANCH  23  35
ENDBRANCH   1  20
TORSDOF 9
ENDMDL
MODEL 8
REMARK VINA RESULT:      -9.3      3.196      5.575
REMARK  9 active torsions:
REMARK  status: ('A' for Active; 'I' for Inactive)
REMARK    1  A    between atoms: C_2  and  N_3 
REMARK    2  A    between atoms: N_3  and  C_4 
REMARK    3  A    between atoms: N_3  and  C_32 
REMARK    4  A    between atoms: C_7  and  C_8 
REMARK       I    between atoms: C_8  and  N_9 
REMARK    5  A    between atoms: N_9  and  C_10 
REMARK    6  A    between atoms: C_10  and  N_11 
REMARK    7  A    between atoms: N_11  and  C_12 
REMARK    8  A    between atoms: C_14  and  C_15 
REMARK    9  A    between atoms: C_24  and  O_25 
ROOT
HETATM    1  N   UNL     1      26.422  45.405  54.654  1.00  0.00    -0.337 N 
HETATM    2  H   UNL     1      25.749  45.369  55.415  1.00  0.00     0.168 HD
ENDROOT
BRANCH   1   3
HETATM    3  C   UNL     1      27.699  45.728  55.057  1.00  0.00     0.157 C 
HETATM    4  S   UNL     1      28.129  47.342  55.071  1.00  0.00    -0.047 SA
BRANCH   3   5
HETATM    5  N   UNL     1      28.460  44.663  55.504  1.00  0.00    -0.201 NA
HETATM    6  C   UNL     1      29.468  44.046  54.786  1.00  0.00     0.237 C 
HETATM    7  O   UNL     1      30.641  44.224  55.102  1.00  0.00    -0.274 OA
HETATM    8  H   UNL     1      28.851  44.937  56.399  1.00  0.00     0.139 HD
BRANCH   6   9
HETATM    9  C   UNL     1      29.104  43.069  53.722  1.00  0.00     0.026 A 
HETATM   10  C   UNL     1      28.682  41.797  54.114  1.00  0.00     0.019 A 
HETATM   11  C   UNL     1      28.198  40.883  53.169  1.00  0.00     0.030 A 
HETATM   12  C   UNL     1      28.092  41.206  51.808  1.00  0.00     0.030 A 
HETATM   13  C   UNL     1      28.581  42.473  51.434  1.00  0.00     0.030 A 
HETATM   14  C   UNL     1      29.070  43.400  52.369  1.00  0.00     0.019 A 
BRANCH  12  15
HETATM   15  N   UNL     1      27.555  40.335  50.858  1.00  0.00    -0.382 N 
BRANCH  15  16
HETATM   16  C   UNL     1      28.451  39.835  49.801  1.00  0.00     0.118 C 
HETATM   17  C   UNL     1      29.214  38.615  50.293  1.00  0.00     0.026 C 
ENDBRANCH  15  16
BRANCH  15  18
HETATM   18  C   UNL     1      26.129  40.391  50.493  1.00  0.00     0.118 C 
HETATM   19  C   UNL     1      25.934  41.057  49.139  1.00  0.00     0.026 C 
ENDBRANCH  15  18
ENDBRANCH  12  15
ENDBRANCH   6   9
ENDBRANCH   3   5
ENDBRANCH   1   3
BRANCH   1  20
HETATM   20  C   UNL     1      25.913  45.173  53.359  1.00  0.00     0.035 A 
HETATM   21  C   UNL     1      25.690  46.205  52.438  1.00  0.00     0.046 A 
HETATM   22  C   UNL     1      25.110  45.959  51.176  1.00  0.00     0.035 A 
HETATM   23  C   UNL     1      24.796  44.624  50.862  1.00  0.00     0.078 A 
HETATM   24  C   UNL     1      25.008  43.590  51.773  1.00  0.00     0.040 A 
HETATM   25  C   UNL     1      25.543  43.868  53.031  1.00  0.00     0.032 A 
BRANCH  22  26
HETATM   26  C   UNL     1      24.774  47.048  50.230  1.00  0.00     0.112 A 
HETATM   27  S   UNL     1      25.942  48.176  49.657  1.00  0.00    -0.067 SA
HETATM   28  C   UNL     1      24.718  49.053  48.830  1.00  0.00     0.035 A 
HETATM   29  C   UNL     1      23.498  48.402  49.007  1.00  0.00     0.075 A 
HETATM   30  C   UNL     1      24.829  50.237  48.083  1.00  0.00     0.021 A 
HETATM   31  N   UNL     1      23.546  47.256  49.784  1.00  0.00    -0.239 NA
HETATM   32  C   UNL     1      22.345  48.951  48.410  1.00  0.00     0.033 A 
HETATM   33  C   UNL     1      22.441  50.134  47.670  1.00  0.00     0.002 A 
HETATM   34  C   UNL     1      23.669  50.768  47.511  1.00  0.00     0.002 A 
ENDBRANCH  22  26
BRANCH  23  35
HETATM   35  O   UNL     1      24.241  44.248  49.664  1.00  0.00    -0.360 OA
HETATM   36  H   UNL     1      24.855  43.613  49.234  1.00  0.00     0.217 HD
ENDBRANCH  23  35
ENDBRANCH   1  20
TORSDOF 9
ENDMDL
MODEL 9
REMARK VINA RESULT:      -9.1      2.687      4.203
REMARK  9 active torsions:
REMARK  status: ('A' for Active; 'I' for Inactive)
REMARK    1  A    between atoms: C_2  and  N_3 
REMARK    2  A    between atoms: N_3  and  C_4 
REMARK    3  A    between atoms: N_3  and  C_32 
REMARK    4  A    between atoms: C_7  and  C_8 
REMARK       I    between atoms: C_8  and  N_9 
REMARK    5  A    between atoms: N_9  and  C_10 
REMARK    6  A    between atoms: C_10  and  N_11 
REMARK    7  A    between atoms: N_11  and  C_12 
REMARK    8  A    between atoms: C_14  and  C_15 
REMARK    9  A    between atoms: C_24  and  O_25 
ROOT
HETATM    1  N   UNL     1      27.126  42.859  50.221  1.00  0.00    -0.337 N 
HETATM    2  H   UNL     1      27.830  43.547  50.473  1.00  0.00     0.168 HD
ENDROOT
BRANCH   1   3
HETATM    3  C   UNL     1      27.634  41.597  50.007  1.00  0.00     0.157 C 
HETATM    4  S   UNL     1      26.889  40.639  48.859  1.00  0.00    -0.047 SA
BRANCH   3   5
HETATM    5  N   UNL     1      28.785  41.301  50.714  1.00  0.00    -0.201 NA
HETATM    6  C   UNL     1      28.831  40.950  52.051  1.00  0.00     0.237 C 
HETATM    7  O   UNL     1      29.070  39.787  52.370  1.00  0.00    -0.274 OA
HETATM    8  H   UNL     1      29.271  40.577  50.195  1.00  0.00     0.139 HD
BRANCH   6   9
HETATM    9  C   UNL     1      28.721  42.018  53.084  1.00  0.00     0.026 A 
HETATM   10  C   UNL     1      29.890  42.666  53.485  1.00  0.00     0.019 A 
HETATM   11  C   UNL     1      29.835  43.768  54.349  1.00  0.00     0.030 A 
HETATM   12  C   UNL     1      28.618  44.280  54.825  1.00  0.00     0.030 A 
HETATM   13  C   UNL     1      27.461  43.568  54.451  1.00  0.00     0.030 A 
HETATM   14  C   UNL     1      27.500  42.462  53.587  1.00  0.00     0.019 A 
BRANCH  12  15
HETATM   15  N   UNL     1      28.533  45.414  55.635  1.00  0.00    -0.382 N 
BRANCH  15  16
HETATM   16  C   UNL     1      27.495  46.409  55.316  1.00  0.00     0.118 C 
HETATM   17  C   UNL     1      28.118  47.617  54.630  1.00  0.00     0.026 C 
ENDBRANCH  15  16
BRANCH  15  18
HETATM   18  C   UNL     1      29.721  45.949  56.323  1.00  0.00     0.118 C 
HETATM   19  C   UNL     1      29.520  45.966  57.831  1.00  0.00     0.026 C 
ENDBRANCH  15  18
ENDBRANCH  12  15
ENDBRANCH   6   9
ENDBRANCH   3   5
ENDBRANCH   1   3
BRANCH   1  20
HETATM   20  C   UNL     1      25.804  43.337  50.092  1.00  0.00     0.035 A 
HETATM   21  C   UNL     1      25.510  44.632  49.642  1.00  0.00     0.046 A 
HETATM   22  C   UNL     1      24.186  45.114  49.591  1.00  0.00     0.035 A 
HETATM   23  C   UNL     1      23.164  44.228  49.978  1.00  0.00     0.078 A 
HETATM   24  C   UNL     1      23.446  42.940  50.432  1.00  0.00     0.040 A 
HETATM   25  C   UNL     1      24.768  42.505  50.513  1.00  0.00     0.032 A 
BRANCH  22  26
HETATM   26  C   UNL     1      23.862  46.510  49.217  1.00  0.00     0.112 A 
HETATM   27  S   UNL     1      24.844  47.848  49.676  1.00  0.00    -0.067 SA
HETATM   28  C   UNL     1      23.707  48.941  48.997  1.00  0.00     0.035 A 
HETATM   29  C   UNL     1      22.668  48.212  48.420  1.00  0.00     0.075 A 
HETATM   30  C   UNL     1      23.729  50.345  48.981  1.00  0.00     0.021 A 
HETATM   31  N   UNL     1      22.778  46.835  48.533  1.00  0.00    -0.239 NA
HETATM   32  C   UNL     1      21.613  48.911  47.799  1.00  0.00     0.033 A 
HETATM   33  C   UNL     1      21.620  50.310  47.783  1.00  0.00     0.002 A 
HETATM   34  C   UNL     1      22.666  51.016  48.369  1.00  0.00     0.002 A 
ENDBRANCH  22  26
BRANCH  23  35
HETATM   35  O   UNL     1      21.833  44.568  49.961  1.00  0.00    -0.360 OA
HETATM   36  H   UNL     1      21.423  44.142  49.177  1.00  0.00     0.217 HD
ENDBRANCH  23  35
ENDBRANCH   1  20
TORSDOF 9
ENDMDL
MODEL 10
REMARK VINA RESULT:      -8.9      2.480     10.888
REMARK  9 active torsions:
REMARK  status: ('A' for Active; 'I' for Inactive)
REMARK    1  A    between atoms: C_2  and  N_3 
REMARK    2  A    between atoms: N_3  and  C_4 
REMARK    3  A    between atoms: N_3  and  C_32 
REMARK    4  A    between atoms: C_7  and  C_8 
REMARK       I    between atoms: C_8  and  N_9 
REMARK    5  A    between atoms: N_9  and  C_10 
REMARK    6  A    between atoms: C_10  and  N_11 
REMARK    7  A    between atoms: N_11  and  C_12 
REMARK    8  A    between atoms: C_14  and  C_15 
REMARK    9  A    between atoms: C_24  and  O_25 
ROOT
HETATM    1  N   UNL     1      24.345  47.731  50.174  1.00  0.00    -0.337 N 
HETATM    2  H   UNL     1      23.374  48.013  50.283  1.00  0.00     0.168 HD
ENDROOT
BRANCH   1   3
HETATM    3  C   UNL     1      25.108  48.628  49.460  1.00  0.00     0.157 C 
HETATM    4  S   UNL     1      26.734  48.296  49.273  1.00  0.00    -0.047 SA
BRANCH   3   5
HETATM    5  N   UNL     1      24.403  49.671  48.888  1.00  0.00    -0.201 NA
HETATM    6  C   UNL     1      23.160  50.116  49.302  1.00  0.00     0.237 C 
HETATM    7  O   UNL     1      23.061  51.186  49.898  1.00  0.00    -0.274 OA
HETATM    8  H   UNL     1      25.023  50.474  48.878  1.00  0.00     0.139 HD
BRANCH   6   9
HETATM    9  C   UNL     1      21.947  49.351  48.899  1.00  0.00     0.026 A 
HETATM   10  C   UNL     1      20.799  49.481  49.681  1.00  0.00     0.019 A 
HETATM   11  C   UNL     1      19.591  48.897  49.278  1.00  0.00     0.030 A 
HETATM   12  C   UNL     1      19.474  48.185  48.074  1.00  0.00     0.030 A 
HETATM   13  C   UNL     1      20.663  48.019  47.337  1.00  0.00     0.030 A 
HETATM   14  C   UNL     1      21.881  48.598  47.728  1.00  0.00     0.019 A 
BRANCH  12  15
HETATM   15  N   UNL     1      18.267  47.648  47.620  1.00  0.00    -0.382 N 
BRANCH  15  16
HETATM   16  C   UNL     1      17.264  48.579  47.076  1.00  0.00     0.118 C 
HETATM   17  C   UNL     1      15.865  48.006  47.252  1.00  0.00     0.026 C 
ENDBRANCH  15  16
BRANCH  15  18
HETATM   18  C   UNL     1      17.721  46.408  48.197  1.00  0.00     0.118 C 
HETATM   19  C   UNL     1      18.605  45.213  47.870  1.00  0.00     0.026 C 
ENDBRANCH  15  18
ENDBRANCH  12  15
ENDBRANCH   6   9
ENDBRANCH   3   5
ENDBRANCH   1   3
BRANCH   1  20
HETATM   20  C   UNL     1      24.694  46.477  50.719  1.00  0.00     0.035 A 
HETATM   21  C   UNL     1      25.626  46.336  51.756  1.00  0.00     0.046 A 
HETATM   22  C   UNL     1      26.016  45.069  52.235  1.00  0.00     0.035 A 
HETATM   23  C   UNL     1      25.402  43.945  51.652  1.00  0.00     0.078 A 
HETATM   24  C   UNL     1      24.478  44.073  50.616  1.00  0.00     0.040 A 
HETATM   25  C   UNL     1      24.144  45.337  50.133  1.00  0.00     0.032 A 
BRANCH  22  26
HETATM   26  C   UNL     1      27.073  44.896  53.258  1.00  0.00     0.112 A 
HETATM   27  S   UNL     1      27.360  46.050  54.503  1.00  0.00    -0.067 SA
HETATM   28  C   UNL     1      28.726  45.160  55.042  1.00  0.00     0.035 A 
HETATM   29  C   UNL     1      28.851  44.010  54.264  1.00  0.00     0.075 A 
HETATM   30  C   UNL     1      29.627  45.460  56.076  1.00  0.00     0.021 A 
HETATM   31  N   UNL     1      27.896  43.861  53.270  1.00  0.00    -0.239 NA
HETATM   32  C   UNL     1      29.913  43.123  54.531  1.00  0.00     0.033 A 
HETATM   33  C   UNL     1      30.823  43.416  55.554  1.00  0.00     0.002 A 
HETATM   34  C   UNL     1      30.679  44.571  56.315  1.00  0.00     0.002 A 
ENDBRANCH  22  26
BRANCH  23  35
HETATM   35  O   UNL     1      25.681  42.657  52.036  1.00  0.00    -0.360 OA
HETATM   36  H   UNL     1      26.594  42.445  51.741  1.00  0.00     0.217 HD
ENDBRANCH  23  35
ENDBRANCH   1  20
TORSDOF 9
ENDMDL
