MODEL 1
REMARK VINA RESULT:      -8.6      0.000      0.000
REMARK  5 active torsions:
REMARK  status: ('A' for Active; 'I' for Inactive)
REMARK    1  A    between atoms: C_6  and  C_7 
REMARK    2  A    between atoms: C_7  and  C_8 
REMARK       I    between atoms: C_8  and  N_9 
REMARK    3  A    between atoms: N_9  and  C_10 
REMARK    4  A    between atoms: C_11  and  O_12 
REMARK    5  A    between atoms: O_12  and  C_13 
ROOT
HETATM    1  C   UNL     1      26.308  45.145  51.404  1.00  0.00     0.069 A 
HETATM    2  C   UNL     1      25.304  45.659  50.571  1.00  0.00     0.102 A 
HETATM    3  C   UNL     1      24.859  44.920  49.458  1.00  0.00     0.039 A 
HETATM    4  C   UNL     1      25.377  43.656  49.186  1.00  0.00     0.003 A 
HETATM    5  C   UNL     1      26.363  43.130  50.010  1.00  0.00     0.002 A 
HETATM    6  C   UNL     1      26.825  43.869  51.102  1.00  0.00     0.032 A 
ENDROOT
BRANCH   1   7
HETATM    7  N   UNL     1      26.848  45.728  52.573  1.00  0.00    -0.324 N 
HETATM    8  C   UNL     1      26.473  45.626  53.903  1.00  0.00     0.228 C 
HETATM    9  O   UNL     1      25.418  45.192  54.350  1.00  0.00    -0.273 OA
HETATM   10  H   UNL     1      27.711  46.252  52.430  1.00  0.00     0.169 HD
BRANCH   8  11
HETATM   11  C   UNL     1      27.517  46.190  54.863  1.00  0.00     0.164 C 
BRANCH  11  12
HETATM   12  C   UNL     1      28.655  45.244  55.057  1.00  0.00     0.065 A 
HETATM   13  N   UNL     1      28.706  44.104  54.350  1.00  0.00    -0.179 NA
HETATM   14  N   UNL     1      29.807  43.485  54.810  1.00  0.00    -0.282 N 
HETATM   15  C   UNL     1      30.399  44.136  55.856  1.00  0.00     0.026 A 
HETATM   16  H   UNL     1      30.077  42.603  54.386  1.00  0.00     0.189 HD
HETATM   17  C   UNL     1      31.557  43.578  56.590  1.00  0.00     0.070 C 
HETATM   18  C   UNL     1      29.690  45.305  56.017  1.00  0.00     0.055 A 
ENDBRANCH  11  12
ENDBRANCH   8  11
ENDBRANCH   1   7
BRANCH   2  19
HETATM   19  O   UNL     1      24.783  46.916  50.743  1.00  0.00    -0.308 OA
BRANCH  19  20
HETATM   20  C   UNL     1      25.181  47.897  49.860  1.00  0.00     0.082 A 
HETATM   21  C   UNL     1      24.296  48.654  49.091  1.00  0.00     0.079 A 
HETATM   22  C   UNL     1      24.796  49.658  48.266  1.00  0.00     0.122 A 
HETATM   23  F   UNL     1      23.949  50.385  47.526  1.00  0.00    -0.206 F 
HETATM   24  C   UNL     1      26.158  49.925  48.202  1.00  0.00     0.084 A 
HETATM   25  C   UNL     1      27.023  49.177  48.988  1.00  0.00     0.122 A 
HETATM   26  F   UNL     1      28.338  49.432  48.945  1.00  0.00    -0.206 F 
HETATM   27  C   UNL     1      26.549  48.171  49.822  1.00  0.00     0.079 A 
ENDBRANCH  19  20
ENDBRANCH   2  19
TORSDOF 5
ENDMDL
MODEL 2
REMARK VINA RESULT:      -8.4      3.830      6.614
REMARK  5 active torsions:
REMARK  status: ('A' for Active; 'I' for Inactive)
REMARK    1  A    between atoms: C_6  and  C_7 
REMARK    2  A    between atoms: C_7  and  C_8 
REMARK       I    between atoms: C_8  and  N_9 
REMARK    3  A    between atoms: N_9  and  C_10 
REMARK    4  A    between atoms: C_11  and  O_12 
REMARK    5  A    between atoms: O_12  and  C_13 
ROOT
HETATM    1  C   UNL     1      26.847  44.834  50.668  1.00  0.00     0.069 A 
HETATM    2  C   UNL     1      26.512  45.173  51.986  1.00  0.00     0.102 A 
HETATM    3  C   UNL     1      26.120  46.488  52.303  1.00  0.00     0.039 A 
HETATM    4  C   UNL     1      26.024  47.462  51.312  1.00  0.00     0.003 A 
HETATM    5  C   UNL     1      26.340  47.137  50.000  1.00  0.00     0.002 A 
HETATM    6  C   UNL     1      26.752  45.839  49.685  1.00  0.00     0.032 A 
ENDROOT
BRANCH   1   7
HETATM    7  N   UNL     1      27.226  43.567  50.168  1.00  0.00    -0.324 N 
HETATM    8  C   UNL     1      26.486  42.422  49.924  1.00  0.00     0.228 C 
HETATM    9  O   UNL     1      25.357  42.163  50.324  1.00  0.00    -0.273 OA
HETATM   10  H   UNL     1      28.194  43.503  49.855  1.00  0.00     0.169 HD
BRANCH   8  11
HETATM   11  C   UNL     1      27.247  41.381  49.106  1.00  0.00     0.164 C 
BRANCH  11  12
HETATM   12  C   UNL     1      28.010  40.443  49.982  1.00  0.00     0.065 A 
HETATM   13  N   UNL     1      28.445  40.854  51.183  1.00  0.00    -0.179 NA
HETATM   14  N   UNL     1      29.124  39.797  51.661  1.00  0.00    -0.282 N 
HETATM   15  C   UNL     1      29.227  38.767  50.768  1.00  0.00     0.026 A 
HETATM   16  H   UNL     1      29.520  39.860  52.594  1.00  0.00     0.189 HD
HETATM   17  C   UNL     1      30.025  37.552  51.039  1.00  0.00     0.070 C 
HETATM   18  C   UNL     1      28.480  39.147  49.676  1.00  0.00     0.055 A 
ENDBRANCH  11  12
ENDBRANCH   8  11
ENDBRANCH   1   7
BRANCH   2  19
HETATM   19  O   UNL     1      26.633  44.285  53.024  1.00  0.00    -0.308 OA
BRANCH  19  20
HETATM   20  C   UNL     1      27.760  44.375  53.812  1.00  0.00     0.082 A 
HETATM   21  C   UNL     1      27.887  45.260  54.885  1.00  0.00     0.079 A 
HETATM   22  C   UNL     1      29.048  45.239  55.653  1.00  0.00     0.122 A 
HETATM   23  F   UNL     1      29.173  46.086  56.681  1.00  0.00    -0.206 F 
HETATM   24  C   UNL     1      30.078  44.347  55.376  1.00  0.00     0.084 A 
HETATM   25  C   UNL     1      29.928  43.461  54.319  1.00  0.00     0.122 A 
HETATM   26  F   UNL     1      30.908  42.589  54.048  1.00  0.00    -0.206 F 
HETATM   27  C   UNL     1      28.777  43.460  53.539  1.00  0.00     0.079 A 
ENDBRANCH  19  20
ENDBRANCH   2  19
TORSDOF 5
ENDMDL
MODEL 3
REMARK VINA RESULT:      -8.3      2.526      4.673
REMARK  5 active torsions:
REMARK  status: ('A' for Active; 'I' for Inactive)
REMARK    1  A    between atoms: C_6  and  C_7 
REMARK    2  A    between atoms: C_7  and  C_8 
REMARK       I    between atoms: C_8  and  N_9 
REMARK    3  A    between atoms: N_9  and  C_10 
REMARK    4  A    between atoms: C_11  and  O_12 
REMARK    5  A    between atoms: O_12  and  C_13 
ROOT
HETATM    1  C   UNL     1      26.684  45.038  52.248  1.00  0.00     0.069 A 
HETATM    2  C   UNL     1      25.885  46.165  52.003  1.00  0.00     0.102 A 
HETATM    3  C   UNL     1      25.657  47.108  53.023  1.00  0.00     0.039 A 
HETATM    4  C   UNL     1      26.247  46.961  54.276  1.00  0.00     0.003 A 
HETATM    5  C   UNL     1      27.050  45.857  54.528  1.00  0.00     0.002 A 
HETATM    6  C   UNL     1      27.260  44.906  53.527  1.00  0.00     0.032 A 
ENDROOT
BRANCH   1   7
HETATM    7  N   UNL     1      27.043  44.016  51.340  1.00  0.00    -0.324 N 
HETATM    8  C   UNL     1      26.293  43.014  50.747  1.00  0.00     0.228 C 
HETATM    9  O   UNL     1      25.175  42.628  51.070  1.00  0.00    -0.273 OA
HETATM   10  H   UNL     1      28.001  44.068  50.995  1.00  0.00     0.169 HD
BRANCH   8  11
HETATM   11  C   UNL     1      27.025  42.314  49.605  1.00  0.00     0.164 C 
BRANCH  11  12
HETATM   12  C   UNL     1      27.751  41.099  50.080  1.00  0.00     0.065 A 
HETATM   13  N   UNL     1      28.261  41.066  51.321  1.00  0.00    -0.179 NA
HETATM   14  N   UNL     1      28.879  39.874  51.386  1.00  0.00    -0.282 N 
HETATM   15  C   UNL     1      28.872  39.192  50.201  1.00  0.00     0.026 A 
HETATM   16  H   UNL     1      29.314  39.604  52.263  1.00  0.00     0.189 HD
HETATM   17  C   UNL     1      29.589  37.911  50.013  1.00  0.00     0.070 C 
HETATM   18  C   UNL     1      28.113  39.951  49.340  1.00  0.00     0.055 A 
ENDBRANCH  11  12
ENDBRANCH   8  11
ENDBRANCH   1   7
BRANCH   2  19
HETATM   19  O   UNL     1      25.228  46.352  50.813  1.00  0.00    -0.308 OA
BRANCH  19  20
HETATM   20  C   UNL     1      25.537  47.481  50.086  1.00  0.00     0.082 A 
HETATM   21  C   UNL     1      26.840  47.941  49.884  1.00  0.00     0.079 A 
HETATM   22  C   UNL     1      27.050  49.065  49.089  1.00  0.00     0.122 A 
HETATM   23  F   UNL     1      28.297  49.509  48.895  1.00  0.00    -0.206 F 
HETATM   24  C   UNL     1      25.988  49.730  48.487  1.00  0.00     0.084 A 
HETATM   25  C   UNL     1      24.701  49.248  48.681  1.00  0.00     0.122 A 
HETATM   26  F   UNL     1      23.670  49.873  48.097  1.00  0.00    -0.206 F 
HETATM   27  C   UNL     1      24.465  48.126  49.468  1.00  0.00     0.079 A 
ENDBRANCH  19  20
ENDBRANCH   2  19
TORSDOF 5
ENDMDL
MODEL 4
REMARK VINA RESULT:      -8.3      4.405      8.636
REMARK  5 active torsions:
REMARK  status: ('A' for Active; 'I' for Inactive)
REMARK    1  A    between atoms: C_6  and  C_7 
REMARK    2  A    between atoms: C_7  and  C_8 
REMARK       I    between atoms: C_8  and  N_9 
REMARK    3  A    between atoms: N_9  and  C_10 
REMARK    4  A    between atoms: C_11  and  O_12 
REMARK    5  A    between atoms: O_12  and  C_13 
ROOT
HETATM    1  C   UNL     1      24.608  48.754  49.185  1.00  0.00     0.069 A 
HETATM    2  C   UNL     1      25.488  47.847  49.792  1.00  0.00     0.102 A 
HETATM    3  C   UNL     1      26.879  47.994  49.634  1.00  0.00     0.039 A 
HETATM    4  C   UNL     1      27.406  49.059  48.907  1.00  0.00     0.003 A 
HETATM    5  C   UNL     1      26.546  49.972  48.311  1.00  0.00     0.002 A 
HETATM    6  C   UNL     1      25.164  49.816  48.446  1.00  0.00     0.032 A 
ENDROOT
BRANCH   1   7
HETATM    7  N   UNL     1      23.196  48.778  49.264  1.00  0.00    -0.324 N 
HETATM    8  C   UNL     1      22.226  48.225  48.445  1.00  0.00     0.228 C 
HETATM    9  O   UNL     1      22.367  47.787  47.309  1.00  0.00    -0.273 OA
HETATM   10  H   UNL     1      22.823  49.205  50.110  1.00  0.00     0.169 HD
BRANCH   8  11
HETATM   11  C   UNL     1      20.832  48.249  49.069  1.00  0.00     0.164 C 
BRANCH  11  12
HETATM   12  C   UNL     1      20.233  49.615  49.025  1.00  0.00     0.065 A 
HETATM   13  N   UNL     1      20.956  50.649  48.567  1.00  0.00    -0.179 NA
HETATM   14  N   UNL     1      20.142  51.707  48.720  1.00  0.00    -0.282 N 
HETATM   15  C   UNL     1      18.970  51.405  49.356  1.00  0.00     0.026 A 
HETATM   16  H   UNL     1      20.465  52.614  48.398  1.00  0.00     0.189 HD
HETATM   17  C   UNL     1      17.976  52.435  49.731  1.00  0.00     0.070 C 
HETATM   18  C   UNL     1      18.986  50.040  49.537  1.00  0.00     0.055 A 
ENDBRANCH  11  12
ENDBRANCH   8  11
ENDBRANCH   1   7
BRANCH   2  19
HETATM   19  O   UNL     1      25.045  46.744  50.478  1.00  0.00    -0.308 OA
BRANCH  19  20
HETATM   20  C   UNL     1      25.660  46.450  51.677  1.00  0.00     0.082 A 
HETATM   21  C   UNL     1      25.558  47.250  52.817  1.00  0.00     0.079 A 
HETATM   22  C   UNL     1      26.175  46.839  53.995  1.00  0.00     0.122 A 
HETATM   23  F   UNL     1      26.080  47.604  55.090  1.00  0.00    -0.206 F 
HETATM   24  C   UNL     1      26.882  45.644  54.058  1.00  0.00     0.084 A 
HETATM   25  C   UNL     1      26.957  44.851  52.922  1.00  0.00     0.122 A 
HETATM   26  F   UNL     1      27.626  43.691  52.973  1.00  0.00    -0.206 F 
HETATM   27  C   UNL     1      26.347  45.238  51.734  1.00  0.00     0.079 A 
ENDBRANCH  19  20
ENDBRANCH   2  19
TORSDOF 5
ENDMDL
MODEL 5
REMARK VINA RESULT:      -8.1      2.679      4.290
REMARK  5 active torsions:
REMARK  status: ('A' for Active; 'I' for Inactive)
REMARK    1  A    between atoms: C_6  and  C_7 
REMARK    2  A    between atoms: C_7  and  C_8 
REMARK       I    between atoms: C_8  and  N_9 
REMARK    3  A    between atoms: N_9  and  C_10 
REMARK    4  A    between atoms: C_11  and  O_12 
REMARK    5  A    between atoms: O_12  and  C_13 
ROOT
HETATM    1  C   UNL     1      25.860  47.919  49.929  1.00  0.00     0.069 A 
HETATM    2  C   UNL     1      24.719  48.482  49.339  1.00  0.00     0.102 A 
HETATM    3  C   UNL     1      24.844  49.552  48.433  1.00  0.00     0.039 A 
HETATM    4  C   UNL     1      26.098  50.045  48.078  1.00  0.00     0.003 A 
HETATM    5  C   UNL     1      27.236  49.488  48.645  1.00  0.00     0.002 A 
HETATM    6  C   UNL     1      27.116  48.442  49.564  1.00  0.00     0.032 A 
ENDROOT
BRANCH   1   7
HETATM    7  N   UNL     1      25.924  46.829  50.827  1.00  0.00    -0.324 N 
HETATM    8  C   UNL     1      25.621  46.736  52.175  1.00  0.00     0.228 C 
HETATM    9  O   UNL     1      25.459  47.655  52.970  1.00  0.00    -0.273 OA
HETATM   10  H   UNL     1      26.154  45.934  50.397  1.00  0.00     0.169 HD
BRANCH   8  11
HETATM   11  C   UNL     1      25.555  45.295  52.676  1.00  0.00     0.164 C 
BRANCH  11  12
HETATM   12  C   UNL     1      26.917  44.704  52.831  1.00  0.00     0.065 A 
HETATM   13  N   UNL     1      27.527  44.140  51.777  1.00  0.00    -0.179 NA
HETATM   14  N   UNL     1      28.682  43.673  52.282  1.00  0.00    -0.282 N 
HETATM   15  C   UNL     1      28.784  43.824  53.636  1.00  0.00     0.026 A 
HETATM   16  H   UNL     1      29.341  43.232  51.648  1.00  0.00     0.189 HD
HETATM   17  C   UNL     1      29.919  43.282  54.417  1.00  0.00     0.070 C 
HETATM   18  C   UNL     1      27.662  44.525  54.018  1.00  0.00     0.055 A 
ENDBRANCH  11  12
ENDBRANCH   8  11
ENDBRANCH   1   7
BRANCH   2  19
HETATM   19  O   UNL     1      23.449  48.087  49.677  1.00  0.00    -0.308 OA
BRANCH  19  20
HETATM   20  C   UNL     1      22.397  48.721  49.051  1.00  0.00     0.082 A 
HETATM   21  C   UNL     1      22.073  50.065  49.249  1.00  0.00     0.079 A 
HETATM   22  C   UNL     1      21.021  50.625  48.529  1.00  0.00     0.122 A 
HETATM   23  F   UNL     1      20.707  51.912  48.717  1.00  0.00    -0.206 F 
HETATM   24  C   UNL     1      20.295  49.873  47.612  1.00  0.00     0.084 A 
HETATM   25  C   UNL     1      20.643  48.545  47.413  1.00  0.00     0.122 A 
HETATM   26  F   UNL     1      19.958  47.813  46.524  1.00  0.00    -0.206 F 
HETATM   27  C   UNL     1      21.691  47.962  48.117  1.00  0.00     0.079 A 
ENDBRANCH  19  20
ENDBRANCH   2  19
TORSDOF 5
ENDMDL
MODEL 6
REMARK VINA RESULT:      -8.1     16.678     18.322
REMARK  5 active torsions:
REMARK  status: ('A' for Active; 'I' for Inactive)
REMARK    1  A    between atoms: C_6  and  C_7 
REMARK    2  A    between atoms: C_7  and  C_8 
REMARK       I    between atoms: C_8  and  N_9 
REMARK    3  A    between atoms: N_9  and  C_10 
REMARK    4  A    between atoms: C_11  and  O_12 
REMARK    5  A    between atoms: O_12  and  C_13 
ROOT
HETATM    1  C   UNL     1      39.146  44.466  63.492  1.00  0.00     0.069 A 
HETATM    2  C   UNL     1      37.794  44.124  63.350  1.00  0.00     0.102 A 
HETATM    3  C   UNL     1      37.426  42.800  63.046  1.00  0.00     0.039 A 
HETATM    4  C   UNL     1      38.389  41.802  62.917  1.00  0.00     0.003 A 
HETATM    5  C   UNL     1      39.731  42.125  63.068  1.00  0.00     0.002 A 
HETATM    6  C   UNL     1      40.103  43.442  63.347  1.00  0.00     0.032 A 
ENDROOT
BRANCH   1   7
HETATM    7  N   UNL     1      39.692  45.727  63.826  1.00  0.00    -0.324 N 
HETATM    8  C   UNL     1      40.044  46.276  65.048  1.00  0.00     0.228 C 
HETATM    9  O   UNL     1      39.730  45.879  66.164  1.00  0.00    -0.273 OA
HETATM   10  H   UNL     1      39.947  46.307  63.028  1.00  0.00     0.169 HD
BRANCH   8  11
HETATM   11  C   UNL     1      40.870  47.553  64.914  1.00  0.00     0.164 C 
BRANCH  11  12
HETATM   12  C   UNL     1      40.197  48.714  65.570  1.00  0.00     0.065 A 
HETATM   13  N   UNL     1      40.390  48.948  66.877  1.00  0.00    -0.179 NA
HETATM   14  N   UNL     1      39.607  50.010  67.135  1.00  0.00    -0.282 N 
HETATM   15  C   UNL     1      38.843  50.395  66.069  1.00  0.00     0.026 A 
HETATM   16  H   UNL     1      39.618  50.401  68.072  1.00  0.00     0.189 HD
HETATM   17  C   UNL     1      37.828  51.467  66.160  1.00  0.00     0.070 C 
HETATM   18  C   UNL     1      39.232  49.589  65.023  1.00  0.00     0.055 A 
ENDBRANCH  11  12
ENDBRANCH   8  11
ENDBRANCH   1   7
BRANCH   2  19
HETATM   19  O   UNL     1      36.792  45.059  63.409  1.00  0.00    -0.308 OA
BRANCH  19  20
HETATM   20  C   UNL     1      36.371  45.464  64.658  1.00  0.00     0.082 A 
HETATM   21  C   UNL     1      35.957  44.583  65.660  1.00  0.00     0.079 A 
HETATM   22  C   UNL     1      35.599  45.089  66.906  1.00  0.00     0.122 A 
HETATM   23  F   UNL     1      35.200  44.247  67.868  1.00  0.00    -0.206 F 
HETATM   24  C   UNL     1      35.654  46.451  67.173  1.00  0.00     0.084 A 
HETATM   25  C   UNL     1      36.086  47.311  66.174  1.00  0.00     0.122 A 
HETATM   26  F   UNL     1      36.156  48.626  66.422  1.00  0.00    -0.206 F 
HETATM   27  C   UNL     1      36.453  46.831  64.921  1.00  0.00     0.079 A 
ENDBRANCH  19  20
ENDBRANCH   2  19
TORSDOF 5
ENDMDL
MODEL 7
REMARK VINA RESULT:      -7.9      2.548      5.085
REMARK  5 active torsions:
REMARK  status: ('A' for Active; 'I' for Inactive)
REMARK    1  A    between atoms: C_6  and  C_7 
REMARK    2  A    between atoms: C_7  and  C_8 
REMARK       I    between atoms: C_8  and  N_9 
REMARK    3  A    between atoms: N_9  and  C_10 
REMARK    4  A    between atoms: C_11  and  O_12 
REMARK    5  A    between atoms: O_12  and  C_13 
ROOT
HETATM    1  C   UNL     1      25.961  45.032  52.011  1.00  0.00     0.069 A 
HETATM    2  C   UNL     1      25.487  46.346  51.895  1.00  0.00     0.102 A 
HETATM    3  C   UNL     1      25.679  47.264  52.946  1.00  0.00     0.039 A 
HETATM    4  C   UNL     1      26.371  46.897  54.097  1.00  0.00     0.003 A 
HETATM    5  C   UNL     1      26.856  45.602  54.220  1.00  0.00     0.002 A 
HETATM    6  C   UNL     1      26.647  44.681  53.190  1.00  0.00     0.032 A 
ENDROOT
BRANCH   1   7
HETATM    7  N   UNL     1      25.887  43.995  51.052  1.00  0.00    -0.324 N 
HETATM    8  C   UNL     1      24.824  43.216  50.628  1.00  0.00     0.228 C 
HETATM    9  O   UNL     1      23.735  43.077  51.173  1.00  0.00    -0.273 OA
HETATM   10  H   UNL     1      26.743  43.845  50.519  1.00  0.00     0.169 HD
BRANCH   8  11
HETATM   11  C   UNL     1      25.133  42.420  49.362  1.00  0.00     0.164 C 
BRANCH  11  12
HETATM   12  C   UNL     1      25.752  41.099  49.681  1.00  0.00     0.065 A 
HETATM   13  N   UNL     1      26.218  40.859  50.916  1.00  0.00    -0.179 NA
HETATM   14  N   UNL     1      26.745  39.625  50.829  1.00  0.00    -0.282 N 
HETATM   15  C   UNL     1      26.727  39.113  49.562  1.00  0.00     0.026 A 
HETATM   16  H   UNL     1      27.131  39.205  51.669  1.00  0.00     0.189 HD
HETATM   17  C   UNL     1      27.354  37.819  49.214  1.00  0.00     0.070 C 
HETATM   18  C   UNL     1      26.053  40.038  48.797  1.00  0.00     0.055 A 
ENDBRANCH  11  12
ENDBRANCH   8  11
ENDBRANCH   1   7
BRANCH   2  19
HETATM   19  O   UNL     1      24.752  46.767  50.817  1.00  0.00    -0.308 OA
BRANCH  19  20
HETATM   20  C   UNL     1      25.277  47.781  50.044  1.00  0.00     0.082 A 
HETATM   21  C   UNL     1      26.645  48.035  49.924  1.00  0.00     0.079 A 
HETATM   22  C   UNL     1      27.078  49.051  49.076  1.00  0.00     0.122 A 
HETATM   23  F   UNL     1      28.388  49.298  48.960  1.00  0.00    -0.206 F 
HETATM   24  C   UNL     1      26.174  49.810  48.342  1.00  0.00     0.084 A 
HETATM   25  C   UNL     1      24.819  49.532  48.457  1.00  0.00     0.122 A 
HETATM   26  F   UNL     1      23.938  50.248  47.746  1.00  0.00    -0.206 F 
HETATM   27  C   UNL     1      24.362  48.520  49.295  1.00  0.00     0.079 A 
ENDBRANCH  19  20
ENDBRANCH   2  19
TORSDOF 5
ENDMDL
MODEL 8
REMARK VINA RESULT:      -7.9     11.586     14.063
REMARK  5 active torsions:
REMARK  status: ('A' for Active; 'I' for Inactive)
REMARK    1  A    between atoms: C_6  and  C_7 
REMARK    2  A    between atoms: C_7  and  C_8 
REMARK       I    between atoms: C_8  and  N_9 
REMARK    3  A    between atoms: N_9  and  C_10 
REMARK    4  A    between atoms: C_11  and  O_12 
REMARK    5  A    between atoms: O_12  and  C_13 
ROOT
HETATM    1  C   UNL     1      33.232  51.439  40.297  1.00  0.00     0.069 A 
HETATM    2  C   UNL     1      33.633  50.504  41.262  1.00  0.00     0.102 A 
HETATM    3  C   UNL     1      34.954  50.017  41.271  1.00  0.00     0.039 A 
HETATM    4  C   UNL     1      35.893  50.481  40.352  1.00  0.00     0.003 A 
HETATM    5  C   UNL     1      35.512  51.416  39.399  1.00  0.00     0.002 A 
HETATM    6  C   UNL     1      34.196  51.884  39.371  1.00  0.00     0.032 A 
ENDROOT
BRANCH   1   7
HETATM    7  N   UNL     1      31.966  52.055  40.159  1.00  0.00    -0.324 N 
HETATM    8  C   UNL     1      31.237  52.849  41.028  1.00  0.00     0.228 C 
HETATM    9  O   UNL     1      31.418  53.002  42.231  1.00  0.00    -0.273 OA
HETATM   10  H   UNL     1      31.549  51.970  39.234  1.00  0.00     0.169 HD
BRANCH   8  11
HETATM   11  C   UNL     1      30.053  53.540  40.357  1.00  0.00     0.164 C 
BRANCH  11  12
HETATM   12  C   UNL     1      28.841  52.669  40.347  1.00  0.00     0.065 A 
HETATM   13  N   UNL     1      28.006  52.672  41.397  1.00  0.00    -0.179 NA
HETATM   14  N   UNL     1      27.080  51.751  41.079  1.00  0.00    -0.282 N 
HETATM   15  C   UNL     1      27.351  51.086  39.915  1.00  0.00     0.026 A 
HETATM   16  H   UNL     1      26.306  51.604  41.719  1.00  0.00     0.189 HD
HETATM   17  C   UNL     1      26.529  49.956  39.431  1.00  0.00     0.070 C 
HETATM   18  C   UNL     1      28.476  51.688  39.397  1.00  0.00     0.055 A 
ENDBRANCH  11  12
ENDBRANCH   8  11
ENDBRANCH   1   7
BRANCH   2  19
HETATM   19  O   UNL     1      32.755  49.962  42.165  1.00  0.00    -0.308 OA
BRANCH  19  20
HETATM   20  C   UNL     1      31.689  49.244  41.666  1.00  0.00     0.082 A 
HETATM   21  C   UNL     1      31.810  48.252  40.692  1.00  0.00     0.079 A 
HETATM   22  C   UNL     1      30.678  47.548  40.291  1.00  0.00     0.122 A 
HETATM   23  F   UNL     1      30.791  46.597  39.356  1.00  0.00    -0.206 F 
HETATM   24  C   UNL     1      29.432  47.810  40.849  1.00  0.00     0.084 A 
HETATM   25  C   UNL     1      29.332  48.786  41.830  1.00  0.00     0.122 A 
HETATM   26  F   UNL     1      28.139  49.041  42.385  1.00  0.00    -0.206 F 
HETATM   27  C   UNL     1      30.448  49.501  42.250  1.00  0.00     0.079 A 
ENDBRANCH  19  20
ENDBRANCH   2  19
TORSDOF 5
ENDMDL
MODEL 9
REMARK VINA RESULT:      -7.9      4.649      7.418
REMARK  5 active torsions:
REMARK  status: ('A' for Active; 'I' for Inactive)
REMARK    1  A    between atoms: C_6  and  C_7 
REMARK    2  A    between atoms: C_7  and  C_8 
REMARK       I    between atoms: C_8  and  N_9 
REMARK    3  A    between atoms: N_9  and  C_10 
REMARK    4  A    between atoms: C_11  and  O_12 
REMARK    5  A    between atoms: O_12  and  C_13 
ROOT
HETATM    1  C   UNL     1      23.164  45.343  49.143  1.00  0.00     0.069 A 
HETATM    2  C   UNL     1      24.379  45.713  49.737  1.00  0.00     0.102 A 
HETATM    3  C   UNL     1      25.453  44.803  49.784  1.00  0.00     0.039 A 
HETATM    4  C   UNL     1      25.341  43.538  49.211  1.00  0.00     0.003 A 
HETATM    5  C   UNL     1      24.148  43.163  48.608  1.00  0.00     0.002 A 
HETATM    6  C   UNL     1      23.073  44.054  48.581  1.00  0.00     0.032 A 
ENDROOT
BRANCH   1   7
HETATM    7  N   UNL     1      22.003  46.133  48.979  1.00  0.00    -0.324 N 
HETATM    8  C   UNL     1      21.497  46.795  47.874  1.00  0.00     0.228 C 
HETATM    9  O   UNL     1      22.079  47.055  46.827  1.00  0.00    -0.273 OA
HETATM   10  H   UNL     1      21.385  46.156  49.789  1.00  0.00     0.169 HD
BRANCH   8  11
HETATM   11  C   UNL     1      20.063  47.281  48.072  1.00  0.00     0.164 C 
BRANCH  11  12
HETATM   12  C   UNL     1      20.022  48.634  48.701  1.00  0.00     0.065 A 
HETATM   13  N   UNL     1      20.961  48.985  49.593  1.00  0.00    -0.179 NA
HETATM   14  N   UNL     1      20.590  50.216  49.986  1.00  0.00    -0.282 N 
HETATM   15  C   UNL     1      19.396  50.620  49.458  1.00  0.00     0.026 A 
HETATM   16  H   UNL     1      21.184  50.712  50.644  1.00  0.00     0.189 HD
HETATM   17  C   UNL     1      18.742  51.890  49.840  1.00  0.00     0.070 C 
HETATM   18  C   UNL     1      19.018  49.621  48.588  1.00  0.00     0.055 A 
ENDBRANCH  11  12
ENDBRANCH   8  11
ENDBRANCH   1   7
BRANCH   2  19
HETATM   19  O   UNL     1      24.548  46.919  50.368  1.00  0.00    -0.308 OA
BRANCH  19  20
HETATM   20  C   UNL     1      25.117  47.944  49.642  1.00  0.00     0.082 A 
HETATM   21  C   UNL     1      24.380  48.876  48.908  1.00  0.00     0.079 A 
HETATM   22  C   UNL     1      25.046  49.906  48.250  1.00  0.00     0.122 A 
HETATM   23  F   UNL     1      24.343  50.800  47.544  1.00  0.00    -0.206 F 
HETATM   24  C   UNL     1      26.429  50.027  48.317  1.00  0.00     0.084 A 
HETATM   25  C   UNL     1      27.145  49.105  49.066  1.00  0.00     0.122 A 
HETATM   26  F   UNL     1      28.478  49.217  49.149  1.00  0.00    -0.206 F 
HETATM   27  C   UNL     1      26.503  48.069  49.736  1.00  0.00     0.079 A 
ENDBRANCH  19  20
ENDBRANCH   2  19
TORSDOF 5
ENDMDL
MODEL 10
REMARK VINA RESULT:      -7.8     11.480     12.593
REMARK  5 active torsions:
REMARK  status: ('A' for Active; 'I' for Inactive)
REMARK    1  A    between atoms: C_6  and  C_7 
REMARK    2  A    between atoms: C_7  and  C_8 
REMARK       I    between atoms: C_8  and  N_9 
REMARK    3  A    between atoms: N_9  and  C_10 
REMARK    4  A    between atoms: C_11  and  O_12 
REMARK    5  A    between atoms: O_12  and  C_13 
ROOT
HETATM    1  C   UNL     1      28.976  47.699  39.321  1.00  0.00     0.069 A 
HETATM    2  C   UNL     1      27.788  48.342  39.697  1.00  0.00     0.102 A 
HETATM    3  C   UNL     1      26.608  48.143  38.956  1.00  0.00     0.039 A 
HETATM    4  C   UNL     1      26.588  47.278  37.864  1.00  0.00     0.003 A 
HETATM    5  C   UNL     1      27.753  46.625  37.488  1.00  0.00     0.002 A 
HETATM    6  C   UNL     1      28.933  46.838  38.206  1.00  0.00     0.032 A 
ENDROOT
BRANCH   1   7
HETATM    7  N   UNL     1      30.235  47.757  39.962  1.00  0.00    -0.324 N 
HETATM    8  C   UNL     1      31.252  48.694  39.895  1.00  0.00     0.228 C 
HETATM    9  O   UNL     1      31.398  49.581  39.061  1.00  0.00    -0.273 OA
HETATM   10  H   UNL     1      30.395  47.027  40.655  1.00  0.00     0.169 HD
BRANCH   8  11
HETATM   11  C   UNL     1      32.310  48.507  40.980  1.00  0.00     0.164 C 
BRANCH  11  12
HETATM   12  C   UNL     1      32.467  49.736  41.813  1.00  0.00     0.065 A 
HETATM   13  N   UNL     1      33.257  50.735  41.390  1.00  0.00    -0.179 NA
HETATM   14  N   UNL     1      33.208  51.632  42.389  1.00  0.00    -0.282 N 
HETATM   15  C   UNL     1      32.504  51.198  43.477  1.00  0.00     0.026 A 
HETATM   16  H   UNL     1      33.709  52.508  42.275  1.00  0.00     0.189 HD
HETATM   17  C   UNL     1      32.415  51.974  44.733  1.00  0.00     0.070 C 
HETATM   18  C   UNL     1      31.979  49.977  43.117  1.00  0.00     0.055 A 
ENDBRANCH  11  12
ENDBRANCH   8  11
ENDBRANCH   1   7
BRANCH   2  19
HETATM   19  O   UNL     1      27.741  49.248  40.727  1.00  0.00    -0.308 OA
BRANCH  19  20
HETATM   20  C   UNL     1      28.253  50.506  40.493  1.00  0.00     0.082 A 
HETATM   21  C   UNL     1      28.096  51.196  39.289  1.00  0.00     0.079 A 
HETATM   22  C   UNL     1      28.608  52.485  39.171  1.00  0.00     0.122 A 
HETATM   23  F   UNL     1      28.459  53.149  38.018  1.00  0.00    -0.206 F 
HETATM   24  C   UNL     1      29.264  53.099  40.231  1.00  0.00     0.084 A 
HETATM   25  C   UNL     1      29.395  52.408  41.426  1.00  0.00     0.122 A 
HETATM   26  F   UNL     1      30.015  52.993  42.460  1.00  0.00    -0.206 F 
HETATM   27  C   UNL     1      28.890  51.120  41.571  1.00  0.00     0.079 A 
ENDBRANCH  19  20
ENDBRANCH   2  19
TORSDOF 5
ENDMDL
