MODEL 1
REMARK VINA RESULT:      -8.2      0.000      0.000
REMARK  5 active torsions:
REMARK  status: ('A' for Active; 'I' for Inactive)
REMARK    1  A    between atoms: C_8  and  N_9 
REMARK       I    between atoms: N_9  and  C_10 
REMARK       I    between atoms: C_10  and  N_11 
REMARK    2  A    between atoms: N_11  and  C_12 
REMARK    3  A    between atoms: C_13  and  O_14 
REMARK    4  A    between atoms: O_14  and  C_15 
REMARK    5  A    between atoms: C_15  and  C_16 
ROOT
HETATM    1  N   UNL     1      27.670  43.752  52.323  1.00  0.00    -0.305 N 
HETATM    2  C   UNL     1      28.044  43.541  53.637  1.00  0.00     0.325 C 
HETATM    3  N   UNL     1      29.308  44.055  53.862  1.00  0.00    -0.306 N 
HETATM    4  O   UNL     1      27.356  42.989  54.486  1.00  0.00    -0.247 OA
HETATM    5  H   UNL     1      28.035  44.592  51.899  1.00  0.00     0.171 HD
HETATM    6  H   UNL     1      29.925  44.073  53.060  1.00  0.00     0.171 HD
ENDROOT
BRANCH   3   7
HETATM    7  C   UNL     1      29.932  44.233  55.114  1.00  0.00     0.070 A 
HETATM    8  C   UNL     1      29.765  45.470  55.761  1.00  0.00     0.098 A 
HETATM    9  C   UNL     1      30.291  45.694  57.032  1.00  0.00     0.081 A 
HETATM   10  C   UNL     1      31.018  44.681  57.645  1.00  0.00     0.119 A 
HETATM   11  F   UNL     1      31.532  44.886  58.864  1.00  0.00    -0.206 F 
HETATM   12  C   UNL     1      31.219  43.458  57.014  1.00  0.00     0.044 A 
HETATM   13  C   UNL     1      30.672  43.231  55.747  1.00  0.00     0.035 A 
BRANCH   8  14
HETATM   14  O   UNL     1      29.047  46.450  55.116  1.00  0.00    -0.340 OA
BRANCH  14  15
HETATM   15  C   UNL     1      27.787  46.686  55.776  1.00  0.00     0.293 C 
BRANCH  15  16
HETATM   16  C   UNL     1      26.682  46.850  54.746  1.00  0.00     0.408 C 
HETATM   17  F   UNL     1      25.959  47.971  54.976  1.00  0.00    -0.169 F 
HETATM   18  F   UNL     1      27.176  46.926  53.491  1.00  0.00    -0.169 F 
HETATM   19  F   UNL     1      25.830  45.799  54.786  1.00  0.00    -0.169 F 
ENDBRANCH  15  16
ENDBRANCH  14  15
ENDBRANCH   8  14
ENDBRANCH   3   7
BRANCH   1  20
HETATM   20  C   UNL     1      26.563  43.188  51.712  1.00  0.00     0.086 A 
HETATM   21  C   UNL     1      26.547  41.891  51.237  1.00  0.00     0.052 A 
HETATM   22  C   UNL     1      27.578  40.831  51.184  1.00  0.00     0.072 C 
HETATM   23  N   UNL     1      25.297  41.706  50.717  1.00  0.00    -0.280 N 
HETATM   24  H   UNL     1      24.924  40.880  50.261  1.00  0.00     0.189 HD
HETATM   25  N   UNL     1      24.489  42.763  50.852  1.00  0.00    -0.177 NA
HETATM   26  C   UNL     1      25.250  43.683  51.464  1.00  0.00     0.079 A 
HETATM   27  C   UNL     1      24.637  44.982  51.839  1.00  0.00     0.075 C 
ENDBRANCH   1  20
TORSDOF 5
ENDMDL
MODEL 2
REMARK VINA RESULT:      -8.0      0.448      1.878
REMARK  5 active torsions:
REMARK  status: ('A' for Active; 'I' for Inactive)
REMARK    1  A    between atoms: C_8  and  N_9 
REMARK       I    between atoms: N_9  and  C_10 
REMARK       I    between atoms: C_10  and  N_11 
REMARK    2  A    between atoms: N_11  and  C_12 
REMARK    3  A    between atoms: C_13  and  O_14 
REMARK    4  A    between atoms: O_14  and  C_15 
REMARK    5  A    between atoms: C_15  and  C_16 
ROOT
HETATM    1  N   UNL     1      27.904  43.415  52.251  1.00  0.00    -0.305 N 
HETATM    2  C   UNL     1      28.289  43.219  53.564  1.00  0.00     0.325 C 
HETATM    3  N   UNL     1      29.458  43.910  53.826  1.00  0.00    -0.306 N 
HETATM    4  O   UNL     1      27.682  42.543  54.385  1.00  0.00    -0.247 OA
HETATM    5  H   UNL     1      28.143  44.314  51.860  1.00  0.00     0.171 HD
HETATM    6  H   UNL     1      30.076  44.046  53.036  1.00  0.00     0.171 HD
ENDROOT
BRANCH   3   7
HETATM    7  C   UNL     1      30.034  44.138  55.093  1.00  0.00     0.070 A 
HETATM    8  C   UNL     1      29.804  45.384  55.704  1.00  0.00     0.098 A 
HETATM    9  C   UNL     1      30.280  45.654  56.986  1.00  0.00     0.081 A 
HETATM   10  C   UNL     1      31.019  44.682  57.647  1.00  0.00     0.119 A 
HETATM   11  F   UNL     1      31.484  44.933  58.877  1.00  0.00    -0.206 F 
HETATM   12  C   UNL     1      31.281  43.452  57.053  1.00  0.00     0.044 A 
HETATM   13  C   UNL     1      30.785  43.176  55.775  1.00  0.00     0.035 A 
BRANCH   8  14
HETATM   14  O   UNL     1      29.077  46.323  55.012  1.00  0.00    -0.340 OA
BRANCH  14  15
HETATM   15  C   UNL     1      27.806  46.564  55.648  1.00  0.00     0.293 C 
BRANCH  15  16
HETATM   16  C   UNL     1      26.682  46.440  54.633  1.00  0.00     0.408 C 
HETATM   17  F   UNL     1      25.973  45.303  54.822  1.00  0.00    -0.169 F 
HETATM   18  F   UNL     1      25.825  47.481  54.707  1.00  0.00    -0.169 F 
HETATM   19  F   UNL     1      27.176  46.408  53.373  1.00  0.00    -0.169 F 
ENDBRANCH  15  16
ENDBRANCH  14  15
ENDBRANCH   8  14
ENDBRANCH   3   7
BRANCH   1  20
HETATM   20  C   UNL     1      26.901  42.712  51.605  1.00  0.00     0.086 A 
HETATM   21  C   UNL     1      25.624  43.208  51.438  1.00  0.00     0.052 A 
HETATM   22  C   UNL     1      24.972  44.463  51.874  1.00  0.00     0.072 C 
HETATM   23  N   UNL     1      24.939  42.239  50.759  1.00  0.00    -0.280 N 
HETATM   24  H   UNL     1      23.965  42.243  50.475  1.00  0.00     0.189 HD
HETATM   25  N   UNL     1      25.680  41.173  50.438  1.00  0.00    -0.177 NA
HETATM   26  C   UNL     1      26.890  41.448  50.947  1.00  0.00     0.079 A 
HETATM   27  C   UNL     1      27.998  40.489  50.710  1.00  0.00     0.075 C 
ENDBRANCH   1  20
TORSDOF 5
ENDMDL
MODEL 3
REMARK VINA RESULT:      -7.9      2.463      3.786
REMARK  5 active torsions:
REMARK  status: ('A' for Active; 'I' for Inactive)
REMARK    1  A    between atoms: C_8  and  N_9 
REMARK       I    between atoms: N_9  and  C_10 
REMARK       I    between atoms: C_10  and  N_11 
REMARK    2  A    between atoms: N_11  and  C_12 
REMARK    3  A    between atoms: C_13  and  O_14 
REMARK    4  A    between atoms: O_14  and  C_15 
REMARK    5  A    between atoms: C_15  and  C_16 
ROOT
HETATM    1  N   UNL     1      28.739  40.952  50.969  1.00  0.00    -0.305 N 
HETATM    2  C   UNL     1      28.713  41.372  52.286  1.00  0.00     0.325 C 
HETATM    3  N   UNL     1      29.589  42.426  52.468  1.00  0.00    -0.306 N 
HETATM    4  O   UNL     1      28.009  40.893  53.166  1.00  0.00    -0.247 OA
HETATM    5  H   UNL     1      28.923  41.674  50.289  1.00  0.00     0.171 HD
HETATM    6  H   UNL     1      30.391  42.443  51.851  1.00  0.00     0.171 HD
ENDROOT
BRANCH   3   7
HETATM    7  C   UNL     1      29.676  43.261  53.602  1.00  0.00     0.070 A 
HETATM    8  C   UNL     1      28.743  44.305  53.721  1.00  0.00     0.098 A 
HETATM    9  C   UNL     1      28.722  45.125  54.849  1.00  0.00     0.081 A 
HETATM   10  C   UNL     1      29.664  44.916  55.848  1.00  0.00     0.119 A 
HETATM   11  F   UNL     1      29.655  45.700  56.933  1.00  0.00    -0.206 F 
HETATM   12  C   UNL     1      30.613  43.906  55.740  1.00  0.00     0.044 A 
HETATM   13  C   UNL     1      30.618  43.073  54.617  1.00  0.00     0.035 A 
BRANCH   8  14
HETATM   14  O   UNL     1      27.834  44.485  52.705  1.00  0.00    -0.340 OA
BRANCH  14  15
HETATM   15  C   UNL     1      26.687  45.228  53.164  1.00  0.00     0.293 C 
BRANCH  15  16
HETATM   16  C   UNL     1      25.428  44.389  53.015  1.00  0.00     0.408 C 
HETATM   17  F   UNL     1      25.688  43.224  52.378  1.00  0.00    -0.169 F 
HETATM   18  F   UNL     1      24.882  44.092  54.214  1.00  0.00    -0.169 F 
HETATM   19  F   UNL     1      24.494  45.050  52.293  1.00  0.00    -0.169 F 
ENDBRANCH  15  16
ENDBRANCH  14  15
ENDBRANCH   8  14
ENDBRANCH   3   7
BRANCH   1  20
HETATM   20  C   UNL     1      28.143  39.797  50.492  1.00  0.00     0.086 A 
HETATM   21  C   UNL     1      26.818  39.740  50.107  1.00  0.00     0.052 A 
HETATM   22  C   UNL     1      25.728  40.740  50.118  1.00  0.00     0.072 C 
HETATM   23  N   UNL     1      26.610  38.452  49.697  1.00  0.00    -0.280 N 
HETATM   24  H   UNL     1      25.749  38.033  49.362  1.00  0.00     0.189 HD
HETATM   25  N   UNL     1      27.703  37.682  49.747  1.00  0.00    -0.177 NA
HETATM   26  C   UNL     1      28.655  38.493  50.231  1.00  0.00     0.079 A 
HETATM   27  C   UNL     1      30.040  37.973  50.353  1.00  0.00     0.075 C 
ENDBRANCH   1  20
TORSDOF 5
ENDMDL
MODEL 4
REMARK VINA RESULT:      -7.5      2.106      3.329
REMARK  5 active torsions:
REMARK  status: ('A' for Active; 'I' for Inactive)
REMARK    1  A    between atoms: C_8  and  N_9 
REMARK       I    between atoms: N_9  and  C_10 
REMARK       I    between atoms: C_10  and  N_11 
REMARK    2  A    between atoms: N_11  and  C_12 
REMARK    3  A    between atoms: C_13  and  O_14 
REMARK    4  A    between atoms: O_14  and  C_15 
REMARK    5  A    between atoms: C_15  and  C_16 
ROOT
HETATM    1  N   UNL     1      26.652  40.774  51.715  1.00  0.00    -0.305 N 
HETATM    2  C   UNL     1      27.433  41.874  52.015  1.00  0.00     0.325 C 
HETATM    3  N   UNL     1      27.419  42.112  53.377  1.00  0.00    -0.306 N 
HETATM    4  O   UNL     1      28.060  42.538  51.199  1.00  0.00    -0.247 OA
HETATM    5  H   UNL     1      26.622  40.058  52.426  1.00  0.00     0.171 HD
HETATM    6  H   UNL     1      26.582  41.823  53.866  1.00  0.00     0.171 HD
ENDROOT
BRANCH   3   7
HETATM    7  C   UNL     1      28.263  42.994  54.085  1.00  0.00     0.070 A 
HETATM    8  C   UNL     1      27.725  44.224  54.501  1.00  0.00     0.098 A 
HETATM    9  C   UNL     1      28.475  45.115  55.267  1.00  0.00     0.081 A 
HETATM   10  C   UNL     1      29.784  44.782  55.592  1.00  0.00     0.119 A 
HETATM   11  F   UNL     1      30.515  45.632  56.324  1.00  0.00    -0.206 F 
HETATM   12  C   UNL     1      30.346  43.582  55.171  1.00  0.00     0.044 A 
HETATM   13  C   UNL     1      29.584  42.683  54.419  1.00  0.00     0.035 A 
BRANCH   8  14
HETATM   14  O   UNL     1      26.429  44.520  54.150  1.00  0.00    -0.340 OA
BRANCH  14  15
HETATM   15  C   UNL     1      26.275  45.927  53.879  1.00  0.00     0.293 C 
BRANCH  15  16
HETATM   16  C   UNL     1      25.993  46.147  52.402  1.00  0.00     0.408 C 
HETATM   17  F   UNL     1      24.723  45.802  52.088  1.00  0.00    -0.169 F 
HETATM   18  F   UNL     1      26.172  47.438  52.046  1.00  0.00    -0.169 F 
HETATM   19  F   UNL     1      26.821  45.396  51.640  1.00  0.00    -0.169 F 
ENDBRANCH  15  16
ENDBRANCH  14  15
ENDBRANCH   8  14
ENDBRANCH   3   7
BRANCH   1  20
HETATM   20  C   UNL     1      26.284  40.385  50.438  1.00  0.00     0.086 A 
HETATM   21  C   UNL     1      25.312  41.039  49.706  1.00  0.00     0.052 A 
HETATM   22  C   UNL     1      24.426  42.184  50.014  1.00  0.00     0.072 C 
HETATM   23  N   UNL     1      25.240  40.373  48.514  1.00  0.00    -0.280 N 
HETATM   24  H   UNL     1      24.623  40.557  47.731  1.00  0.00     0.189 HD
HETATM   25  N   UNL     1      26.114  39.367  48.400  1.00  0.00    -0.177 NA
HETATM   26  C   UNL     1      26.766  39.362  49.572  1.00  0.00     0.079 A 
HETATM   27  C   UNL     1      27.877  38.397  49.766  1.00  0.00     0.075 C 
ENDBRANCH   1  20
TORSDOF 5
ENDMDL
MODEL 5
REMARK VINA RESULT:      -7.4      2.664      4.719
REMARK  5 active torsions:
REMARK  status: ('A' for Active; 'I' for Inactive)
REMARK    1  A    between atoms: C_8  and  N_9 
REMARK       I    between atoms: N_9  and  C_10 
REMARK       I    between atoms: C_10  and  N_11 
REMARK    2  A    between atoms: N_11  and  C_12 
REMARK    3  A    between atoms: C_13  and  O_14 
REMARK    4  A    between atoms: O_14  and  C_15 
REMARK    5  A    between atoms: C_15  and  C_16 
ROOT
HETATM    1  N   UNL     1      25.836  41.693  51.408  1.00  0.00    -0.305 N 
HETATM    2  C   UNL     1      26.224  43.013  51.543  1.00  0.00     0.325 C 
HETATM    3  N   UNL     1      25.844  43.499  52.780  1.00  0.00    -0.306 N 
HETATM    4  O   UNL     1      26.829  43.660  50.697  1.00  0.00    -0.247 OA
HETATM    5  H   UNL     1      25.828  41.156  52.262  1.00  0.00     0.171 HD
HETATM    6  H   UNL     1      25.019  43.075  53.185  1.00  0.00     0.171 HD
ENDROOT
BRANCH   3   7
HETATM    7  C   UNL     1      26.254  44.713  53.369  1.00  0.00     0.070 A 
HETATM    8  C   UNL     1      27.303  44.667  54.305  1.00  0.00     0.098 A 
HETATM    9  C   UNL     1      27.810  45.835  54.873  1.00  0.00     0.081 A 
HETATM   10  C   UNL     1      27.240  47.053  54.526  1.00  0.00     0.119 A 
HETATM   11  F   UNL     1      27.716  48.180  55.070  1.00  0.00    -0.206 F 
HETATM   12  C   UNL     1      26.185  47.121  53.623  1.00  0.00     0.044 A 
HETATM   13  C   UNL     1      25.692  45.950  53.039  1.00  0.00     0.035 A 
BRANCH   8  14
HETATM   14  O   UNL     1      27.832  43.440  54.629  1.00  0.00    -0.340 OA
BRANCH  14  15
HETATM   15  C   UNL     1      29.266  43.443  54.483  1.00  0.00     0.293 C 
BRANCH  15  16
HETATM   16  C   UNL     1      29.658  42.788  53.169  1.00  0.00     0.408 C 
HETATM   17  F   UNL     1      30.936  42.344  53.203  1.00  0.00    -0.169 F 
HETATM   18  F   UNL     1      28.862  41.737  52.878  1.00  0.00    -0.169 F 
HETATM   19  F   UNL     1      29.559  43.670  52.147  1.00  0.00    -0.169 F 
ENDBRANCH  15  16
ENDBRANCH  14  15
ENDBRANCH   8  14
ENDBRANCH   3   7
BRANCH   1  20
HETATM   20  C   UNL     1      25.875  40.970  50.228  1.00  0.00     0.086 A 
HETATM   21  C   UNL     1      24.917  41.091  49.242  1.00  0.00     0.052 A 
HETATM   22  C   UNL     1      23.672  41.885  49.146  1.00  0.00     0.072 C 
HETATM   23  N   UNL     1      25.302  40.233  48.249  1.00  0.00    -0.280 N 
HETATM   24  H   UNL     1      24.830  40.039  47.372  1.00  0.00     0.189 HD
HETATM   25  N   UNL     1      26.452  39.598  48.495  1.00  0.00    -0.177 NA
HETATM   26  C   UNL     1      26.821  40.041  49.706  1.00  0.00     0.079 A 
HETATM   27  C   UNL     1      28.116  39.584  50.269  1.00  0.00     0.075 C 
ENDBRANCH   1  20
TORSDOF 5
ENDMDL
MODEL 6
REMARK VINA RESULT:      -7.4      8.277     11.743
REMARK  5 active torsions:
REMARK  status: ('A' for Active; 'I' for Inactive)
REMARK    1  A    between atoms: C_8  and  N_9 
REMARK       I    between atoms: N_9  and  C_10 
REMARK       I    between atoms: C_10  and  N_11 
REMARK    2  A    between atoms: N_11  and  C_12 
REMARK    3  A    between atoms: C_13  and  O_14 
REMARK    4  A    between atoms: O_14  and  C_15 
REMARK    5  A    between atoms: C_15  and  C_16 
ROOT
HETATM    1  N   UNL     1      22.376  48.545  49.777  1.00  0.00    -0.305 N 
HETATM    2  C   UNL     1      21.355  48.301  48.877  1.00  0.00     0.325 C 
HETATM    3  N   UNL     1      20.197  47.959  49.551  1.00  0.00    -0.306 N 
HETATM    4  O   UNL     1      21.451  48.387  47.660  1.00  0.00    -0.247 OA
HETATM    5  H   UNL     1      22.089  48.931  50.663  1.00  0.00     0.171 HD
HETATM    6  H   UNL     1      20.327  47.503  50.446  1.00  0.00     0.171 HD
ENDROOT
BRANCH   3   7
HETATM    7  C   UNL     1      18.901  47.861  49.002  1.00  0.00     0.070 A 
HETATM    8  C   UNL     1      18.031  48.952  49.174  1.00  0.00     0.098 A 
HETATM    9  C   UNL     1      16.762  48.956  48.597  1.00  0.00     0.081 A 
HETATM   10  C   UNL     1      16.351  47.846  47.871  1.00  0.00     0.119 A 
HETATM   11  F   UNL     1      15.133  47.839  47.316  1.00  0.00    -0.206 F 
HETATM   12  C   UNL     1      17.184  46.745  47.709  1.00  0.00     0.044 A 
HETATM   13  C   UNL     1      18.464  46.752  48.272  1.00  0.00     0.035 A 
BRANCH   8  14
HETATM   14  O   UNL     1      18.473  50.026  49.909  1.00  0.00    -0.340 OA
BRANCH  14  15
HETATM   15  C   UNL     1      18.233  51.264  49.209  1.00  0.00     0.293 C 
BRANCH  15  16
HETATM   16  C   UNL     1      19.505  51.727  48.517  1.00  0.00     0.408 C 
HETATM   17  F   UNL     1      19.745  51.007  47.397  1.00  0.00    -0.169 F 
HETATM   18  F   UNL     1      19.437  53.029  48.166  1.00  0.00    -0.169 F 
HETATM   19  F   UNL     1      20.575  51.580  49.334  1.00  0.00    -0.169 F 
ENDBRANCH  15  16
ENDBRANCH  14  15
ENDBRANCH   8  14
ENDBRANCH   3   7
BRANCH   1  20
HETATM   20  C   UNL     1      23.709  48.709  49.439  1.00  0.00     0.086 A 
HETATM   21  C   UNL     1      24.690  47.806  49.798  1.00  0.00     0.052 A 
HETATM   22  C   UNL     1      24.662  46.560  50.595  1.00  0.00     0.072 C 
HETATM   23  N   UNL     1      25.855  48.306  49.285  1.00  0.00    -0.280 N 
HETATM   24  H   UNL     1      26.790  47.922  49.365  1.00  0.00     0.189 HD
HETATM   25  N   UNL     1      25.700  49.437  48.588  1.00  0.00    -0.177 NA
HETATM   26  C   UNL     1      24.387  49.697  48.669  1.00  0.00     0.079 A 
HETATM   27  C   UNL     1      23.845  50.868  47.935  1.00  0.00     0.075 C 
ENDBRANCH   1  20
TORSDOF 5
ENDMDL
MODEL 7
REMARK VINA RESULT:      -7.3      4.105      5.728
REMARK  5 active torsions:
REMARK  status: ('A' for Active; 'I' for Inactive)
REMARK    1  A    between atoms: C_8  and  N_9 
REMARK       I    between atoms: N_9  and  C_10 
REMARK       I    between atoms: C_10  and  N_11 
REMARK    2  A    between atoms: N_11  and  C_12 
REMARK    3  A    between atoms: C_13  and  O_14 
REMARK    4  A    between atoms: O_14  and  C_15 
REMARK    5  A    between atoms: C_15  and  C_16 
ROOT
HETATM    1  N   UNL     1      25.453  47.510  50.379  1.00  0.00    -0.305 N 
HETATM    2  C   UNL     1      26.173  46.335  50.271  1.00  0.00     0.325 C 
HETATM    3  N   UNL     1      26.307  45.741  51.512  1.00  0.00    -0.306 N 
HETATM    4  O   UNL     1      26.619  45.874  49.228  1.00  0.00    -0.247 OA
HETATM    5  H   UNL     1      24.751  47.522  51.104  1.00  0.00     0.171 HD
HETATM    6  H   UNL     1      26.309  46.371  52.304  1.00  0.00     0.171 HD
ENDROOT
BRANCH   3   7
HETATM    7  C   UNL     1      26.773  44.435  51.774  1.00  0.00     0.070 A 
HETATM    8  C   UNL     1      27.466  44.215  52.978  1.00  0.00     0.098 A 
HETATM    9  C   UNL     1      27.892  42.938  53.338  1.00  0.00     0.081 A 
HETATM   10  C   UNL     1      27.650  41.880  52.471  1.00  0.00     0.119 A 
HETATM   11  F   UNL     1      28.058  40.650  52.806  1.00  0.00    -0.206 F 
HETATM   12  C   UNL     1      26.988  42.078  51.264  1.00  0.00     0.044 A 
HETATM   13  C   UNL     1      26.545  43.357  50.915  1.00  0.00     0.035 A 
BRANCH   8  14
HETATM   14  O   UNL     1      27.694  45.291  53.803  1.00  0.00    -0.340 OA
BRANCH  14  15
HETATM   15  C   UNL     1      28.719  44.990  54.772  1.00  0.00     0.293 C 
BRANCH  15  16
HETATM   16  C   UNL     1      29.058  46.234  55.576  1.00  0.00     0.408 C 
HETATM   17  F   UNL     1      30.345  46.214  55.993  1.00  0.00    -0.169 F 
HETATM   18  F   UNL     1      28.874  47.361  54.854  1.00  0.00    -0.169 F 
HETATM   19  F   UNL     1      28.274  46.322  56.675  1.00  0.00    -0.169 F 
ENDBRANCH  15  16
ENDBRANCH  14  15
ENDBRANCH   8  14
ENDBRANCH   3   7
BRANCH   1  20
HETATM   20  C   UNL     1      25.313  48.451  49.373  1.00  0.00     0.086 A 
HETATM   21  C   UNL     1      26.378  49.161  48.855  1.00  0.00     0.052 A 
HETATM   22  C   UNL     1      27.820  49.188  49.188  1.00  0.00     0.072 C 
HETATM   23  N   UNL     1      25.845  49.973  47.893  1.00  0.00    -0.280 N 
HETATM   24  H   UNL     1      26.324  50.652  47.312  1.00  0.00     0.189 HD
HETATM   25  N   UNL     1      24.529  49.818  47.719  1.00  0.00    -0.177 NA
HETATM   26  C   UNL     1      24.185  48.884  48.618  1.00  0.00     0.079 A 
HETATM   27  C   UNL     1      22.779  48.409  48.652  1.00  0.00     0.075 C 
ENDBRANCH   1  20
TORSDOF 5
ENDMDL
MODEL 8
REMARK VINA RESULT:      -7.3      7.973     11.515
REMARK  5 active torsions:
REMARK  status: ('A' for Active; 'I' for Inactive)
REMARK    1  A    between atoms: C_8  and  N_9 
REMARK       I    between atoms: N_9  and  C_10 
REMARK       I    between atoms: C_10  and  N_11 
REMARK    2  A    between atoms: N_11  and  C_12 
REMARK    3  A    between atoms: C_13  and  O_14 
REMARK    4  A    between atoms: O_14  and  C_15 
REMARK    5  A    between atoms: C_15  and  C_16 
ROOT
HETATM    1  N   UNL     1      22.842  48.446  49.664  1.00  0.00    -0.305 N 
HETATM    2  C   UNL     1      21.813  48.129  48.797  1.00  0.00     0.325 C 
HETATM    3  N   UNL     1      20.669  47.817  49.508  1.00  0.00    -0.306 N 
HETATM    4  O   UNL     1      21.893  48.134  47.575  1.00  0.00    -0.247 OA
HETATM    5  H   UNL     1      22.560  48.887  50.526  1.00  0.00     0.171 HD
HETATM    6  H   UNL     1      20.816  47.425  50.429  1.00  0.00     0.171 HD
ENDROOT
BRANCH   3   7
HETATM    7  C   UNL     1      19.368  47.665  48.984  1.00  0.00     0.070 A 
HETATM    8  C   UNL     1      18.441  48.695  49.220  1.00  0.00     0.098 A 
HETATM    9  C   UNL     1      17.160  48.648  48.672  1.00  0.00     0.081 A 
HETATM   10  C   UNL     1      16.796  47.546  47.910  1.00  0.00     0.119 A 
HETATM   11  F   UNL     1      15.567  47.489  47.382  1.00  0.00    -0.206 F 
HETATM   12  C   UNL     1      17.688  46.503  47.683  1.00  0.00     0.044 A 
HETATM   13  C   UNL     1      18.979  46.563  48.218  1.00  0.00     0.035 A 
BRANCH   8  14
HETATM   14  O   UNL     1      18.837  49.763  49.989  1.00  0.00    -0.340 OA
BRANCH  14  15
HETATM   15  C   UNL     1      18.575  51.010  49.315  1.00  0.00     0.293 C 
BRANCH  15  16
HETATM   16  C   UNL     1      19.844  51.523  48.653  1.00  0.00     0.408 C 
HETATM   17  F   UNL     1      20.125  50.827  47.527  1.00  0.00    -0.169 F 
HETATM   18  F   UNL     1      19.741  52.827  48.320  1.00  0.00    -0.169 F 
HETATM   19  F   UNL     1      20.902  51.397  49.486  1.00  0.00    -0.169 F 
ENDBRANCH  15  16
ENDBRANCH  14  15
ENDBRANCH   8  14
ENDBRANCH   3   7
BRANCH   1  20
HETATM   20  C   UNL     1      24.168  48.605  49.298  1.00  0.00     0.086 A 
HETATM   21  C   UNL     1      24.621  49.686  48.568  1.00  0.00     0.052 A 
HETATM   22  C   UNL     1      23.931  50.851  47.971  1.00  0.00     0.072 C 
HETATM   23  N   UNL     1      25.965  49.489  48.415  1.00  0.00    -0.280 N 
HETATM   24  H   UNL     1      26.630  50.069  47.916  1.00  0.00     0.189 HD
HETATM   25  N   UNL     1      26.426  48.390  49.022  1.00  0.00    -0.177 NA
HETATM   26  C   UNL     1      25.336  47.836  49.572  1.00  0.00     0.079 A 
HETATM   27  C   UNL     1      25.497  46.612  50.398  1.00  0.00     0.075 C 
ENDBRANCH   1  20
TORSDOF 5
ENDMDL
MODEL 9
REMARK VINA RESULT:      -7.3      1.656      2.518
REMARK  5 active torsions:
REMARK  status: ('A' for Active; 'I' for Inactive)
REMARK    1  A    between atoms: C_8  and  N_9 
REMARK       I    between atoms: N_9  and  C_10 
REMARK       I    between atoms: C_10  and  N_11 
REMARK    2  A    between atoms: N_11  and  C_12 
REMARK    3  A    between atoms: C_13  and  O_14 
REMARK    4  A    between atoms: O_14  and  C_15 
REMARK    5  A    between atoms: C_15  and  C_16 
ROOT
HETATM    1  N   UNL     1      25.810  42.834  51.851  1.00  0.00    -0.305 N 
HETATM    2  C   UNL     1      27.015  43.417  52.198  1.00  0.00     0.325 C 
HETATM    3  N   UNL     1      27.197  43.358  53.567  1.00  0.00    -0.306 N 
HETATM    4  O   UNL     1      27.815  43.905  51.410  1.00  0.00    -0.247 OA
HETATM    5  H   UNL     1      25.514  42.071  52.441  1.00  0.00     0.171 HD
HETATM    6  H   UNL     1      26.352  43.357  54.124  1.00  0.00     0.171 HD
ENDROOT
BRANCH   3   7
HETATM    7  C   UNL     1      28.388  43.638  54.271  1.00  0.00     0.070 A 
HETATM    8  C   UNL     1      28.400  44.760  55.118  1.00  0.00     0.098 A 
HETATM    9  C   UNL     1      29.516  45.057  55.900  1.00  0.00     0.081 A 
HETATM   10  C   UNL     1      30.637  44.243  55.806  1.00  0.00     0.119 A 
HETATM   11  F   UNL     1      31.715  44.522  56.549  1.00  0.00    -0.206 F 
HETATM   12  C   UNL     1      30.657  43.142  54.957  1.00  0.00     0.044 A 
HETATM   13  C   UNL     1      29.529  42.836  54.189  1.00  0.00     0.035 A 
BRANCH   8  14
HETATM   14  O   UNL     1      27.274  45.546  55.173  1.00  0.00    -0.340 OA
BRANCH  14  15
HETATM   15  C   UNL     1      27.477  46.789  54.471  1.00  0.00     0.293 C 
BRANCH  15  16
HETATM   16  C   UNL     1      26.208  47.185  53.735  1.00  0.00     0.408 C 
HETATM   17  F   UNL     1      25.590  48.222  54.345  1.00  0.00    -0.169 F 
HETATM   18  F   UNL     1      26.464  47.548  52.459  1.00  0.00    -0.169 F 
HETATM   19  F   UNL     1      25.334  46.153  53.697  1.00  0.00    -0.169 F 
ENDBRANCH  15  16
ENDBRANCH  14  15
ENDBRANCH   8  14
ENDBRANCH   3   7
BRANCH   1  20
HETATM   20  C   UNL     1      25.226  42.905  50.598  1.00  0.00     0.086 A 
HETATM   21  C   UNL     1      24.610  44.045  50.121  1.00  0.00     0.052 A 
HETATM   22  C   UNL     1      24.359  45.374  50.721  1.00  0.00     0.072 C 
HETATM   23  N   UNL     1      24.169  43.727  48.867  1.00  0.00    -0.280 N 
HETATM   24  H   UNL     1      23.652  44.310  48.217  1.00  0.00     0.189 HD
HETATM   25  N   UNL     1      24.484  42.486  48.478  1.00  0.00    -0.177 NA
HETATM   26  C   UNL     1      25.137  41.968  49.529  1.00  0.00     0.079 A 
HETATM   27  C   UNL     1      25.702  40.600  49.414  1.00  0.00     0.075 C 
ENDBRANCH   1  20
TORSDOF 5
ENDMDL
MODEL 10
REMARK VINA RESULT:      -7.2      3.121      7.111
REMARK  5 active torsions:
REMARK  status: ('A' for Active; 'I' for Inactive)
REMARK    1  A    between atoms: C_8  and  N_9 
REMARK       I    between atoms: N_9  and  C_10 
REMARK       I    between atoms: C_10  and  N_11 
REMARK    2  A    between atoms: N_11  and  C_12 
REMARK    3  A    between atoms: C_13  and  O_14 
REMARK    4  A    between atoms: O_14  and  C_15 
REMARK    5  A    between atoms: C_15  and  C_16 
ROOT
HETATM    1  N   UNL     1      28.317  44.876  53.527  1.00  0.00    -0.305 N 
HETATM    2  C   UNL     1      27.050  44.412  53.224  1.00  0.00     0.325 C 
HETATM    3  N   UNL     1      26.848  44.433  51.856  1.00  0.00    -0.306 N 
HETATM    4  O   UNL     1      26.227  44.024  54.043  1.00  0.00    -0.247 OA
HETATM    5  H   UNL     1      29.025  44.681  52.835  1.00  0.00     0.171 HD
HETATM    6  H   UNL     1      27.363  45.140  51.346  1.00  0.00     0.171 HD
ENDROOT
BRANCH   3   7
HETATM    7  C   UNL     1      25.782  43.833  51.154  1.00  0.00     0.070 A 
HETATM    8  C   UNL     1      26.030  42.611  50.505  1.00  0.00     0.098 A 
HETATM    9  C   UNL     1      25.007  41.923  49.853  1.00  0.00     0.081 A 
HETATM   10  C   UNL     1      23.736  42.481  49.825  1.00  0.00     0.119 A 
HETATM   11  F   UNL     1      22.747  41.831  49.198  1.00  0.00    -0.206 F 
HETATM   12  C   UNL     1      23.472  43.700  50.438  1.00  0.00     0.044 A 
HETATM   13  C   UNL     1      24.496  44.378  51.108  1.00  0.00     0.035 A 
BRANCH   8  14
HETATM   14  O   UNL     1      27.305  42.098  50.548  1.00  0.00    -0.340 OA
BRANCH  14  15
HETATM   15  C   UNL     1      27.365  40.932  51.394  1.00  0.00     0.293 C 
BRANCH  15  16
HETATM   16  C   UNL     1      28.483  41.083  52.411  1.00  0.00     0.408 C 
HETATM   17  F   UNL     1      29.270  42.145  52.122  1.00  0.00    -0.169 F 
HETATM   18  F   UNL     1      28.001  41.253  53.661  1.00  0.00    -0.169 F 
HETATM   19  F   UNL     1      29.271  39.983  52.424  1.00  0.00    -0.169 F 
ENDBRANCH  15  16
ENDBRANCH  14  15
ENDBRANCH   8  14
ENDBRANCH   3   7
BRANCH   1  20
HETATM   20  C   UNL     1      28.768  45.178  54.800  1.00  0.00     0.086 A 
HETATM   21  C   UNL     1      29.770  44.466  55.429  1.00  0.00     0.052 A 
HETATM   22  C   UNL     1      30.554  43.276  55.031  1.00  0.00     0.072 C 
HETATM   23  N   UNL     1      29.934  45.061  56.649  1.00  0.00    -0.280 N 
HETATM   24  H   UNL     1      30.570  44.798  57.394  1.00  0.00     0.189 HD
HETATM   25  N   UNL     1      29.149  46.126  56.844  1.00  0.00    -0.177 NA
HETATM   26  C   UNL     1      28.428  46.215  55.716  1.00  0.00     0.079 A 
HETATM   27  C   UNL     1      27.484  47.350  55.560  1.00  0.00     0.075 C 
ENDBRANCH   1  20
TORSDOF 5
ENDMDL
