MODEL 1
REMARK VINA RESULT:      -8.7      0.000      0.000
REMARK  6 active torsions:
REMARK  status: ('A' for Active; 'I' for Inactive)
REMARK    1  A    between atoms: C_9  and  C_10 
REMARK       I    between atoms: C_10  and  N_11 
REMARK    2  A    between atoms: N_11  and  C_12 
REMARK    3  A    between atoms: C_12  and  C_13 
REMARK    4  A    between atoms: C_13  and  O_14 
REMARK    5  A    between atoms: C_13  and  C_15 
REMARK    6  A    between atoms: C_18  and  O_19 
ROOT
HETATM    1  C   UNL     1      26.150  46.555  53.151  1.00  0.00     0.258 C 
HETATM    2  N   UNL     1      26.141  45.463  52.318  1.00  0.00    -0.350 N 
HETATM    3  O   UNL     1      25.396  47.512  53.000  1.00  0.00    -0.267 OA
HETATM    4  H   UNL     1      26.721  44.665  52.574  1.00  0.00     0.163 HD
ENDROOT
BRANCH   2   5
HETATM    5  C   UNL     1      25.122  45.257  51.293  1.00  0.00     0.114 C 
HETATM    6  C   UNL     1      24.749  43.773  51.256  1.00  0.00     0.035 C 
BRANCH   5   7
HETATM    7  C   UNL     1      25.597  45.738  49.896  1.00  0.00     0.173 C 
BRANCH   7   8
HETATM    8  O   UNL     1      27.027  45.669  49.796  1.00  0.00    -0.389 OA
HETATM    9  H   UNL     1      27.382  46.183  50.542  1.00  0.00     0.210 HD
ENDBRANCH   7   8
BRANCH   7  10
HETATM   10  C   UNL     1      25.103  47.127  49.539  1.00  0.00    -0.028 A 
HETATM   11  C   UNL     1      23.730  47.406  49.559  1.00  0.00     0.012 A 
HETATM   12  C   UNL     1      23.259  48.681  49.238  1.00  0.00     0.037 A 
HETATM   13  C   UNL     1      24.146  49.704  48.894  1.00  0.00     0.068 A 
HETATM   14  C   UNL     1      25.515  49.440  48.884  1.00  0.00     0.037 A 
HETATM   15  C   UNL     1      25.990  48.164  49.209  1.00  0.00     0.012 A 
BRANCH  13  16
HETATM   16  O   UNL     1      23.552  50.898  48.597  1.00  0.00    -0.356 OA
HETATM   17  C   UNL     1      22.141  50.887  48.417  1.00  0.00     0.210 C 
ENDBRANCH  13  16
ENDBRANCH   7  10
ENDBRANCH   5   7
ENDBRANCH   2   5
BRANCH   1  18
HETATM   18  C   UNL     1      27.106  46.490  54.245  1.00  0.00     0.105 A 
HETATM   19  C   UNL     1      28.121  45.567  54.434  1.00  0.00     0.169 A 
HETATM   20  N   UNL     1      28.529  44.496  53.679  1.00  0.00    -0.233 NA
HETATM   21  N   UNL     1      28.729  45.890  55.653  1.00  0.00    -0.219 N 
HETATM   22  C   UNL     1      29.495  43.773  54.168  1.00  0.00     0.035 A 
HETATM   23  C   UNL     1      29.976  42.592  53.363  1.00  0.00     0.070 C 
HETATM   24  C   UNL     1      30.194  44.039  55.463  1.00  0.00     0.053 A 
HETATM   25  C   UNL     1      29.776  45.109  56.163  1.00  0.00     0.036 A 
HETATM   26  C   UNL     1      30.372  45.504  57.478  1.00  0.00     0.070 C 
HETATM   27  N   UNL     1      28.173  46.993  56.209  1.00  0.00    -0.170 NA
HETATM   28  C   UNL     1      27.194  47.349  55.371  1.00  0.00     0.071 A 
HETATM   29  C   UNL     1      26.346  48.529  55.683  1.00  0.00     0.073 C 
ENDBRANCH   1  18
TORSDOF 6
ENDMDL
MODEL 2
REMARK VINA RESULT:      -8.6      2.574      8.294
REMARK  6 active torsions:
REMARK  status: ('A' for Active; 'I' for Inactive)
REMARK    1  A    between atoms: C_9  and  C_10 
REMARK       I    between atoms: C_10  and  N_11 
REMARK    2  A    between atoms: N_11  and  C_12 
REMARK    3  A    between atoms: C_12  and  C_13 
REMARK    4  A    between atoms: C_13  and  O_14 
REMARK    5  A    between atoms: C_13  and  C_15 
REMARK    6  A    between atoms: C_18  and  O_19 
ROOT
HETATM    1  C   UNL     1      26.512  46.128  50.005  1.00  0.00     0.258 C 
HETATM    2  N   UNL     1      26.019  45.633  51.188  1.00  0.00    -0.350 N 
HETATM    3  O   UNL     1      27.438  45.599  49.398  1.00  0.00    -0.267 OA
HETATM    4  H   UNL     1      25.180  46.067  51.572  1.00  0.00     0.163 HD
ENDROOT
BRANCH   2   5
HETATM    5  C   UNL     1      26.426  44.344  51.738  1.00  0.00     0.114 C 
HETATM    6  C   UNL     1      25.576  43.242  51.100  1.00  0.00     0.035 C 
BRANCH   5   7
HETATM    7  C   UNL     1      26.302  44.306  53.284  1.00  0.00     0.173 C 
BRANCH   7   8
HETATM    8  O   UNL     1      25.533  45.422  53.758  1.00  0.00    -0.389 OA
HETATM    9  H   UNL     1      24.649  45.337  53.362  1.00  0.00     0.210 HD
ENDBRANCH   7   8
BRANCH   7  10
HETATM   10  C   UNL     1      27.642  44.239  53.994  1.00  0.00    -0.028 A 
HETATM   11  C   UNL     1      28.047  45.296  54.819  1.00  0.00     0.012 A 
HETATM   12  C   UNL     1      29.275  45.248  55.483  1.00  0.00     0.037 A 
HETATM   13  C   UNL     1      30.120  44.144  55.341  1.00  0.00     0.068 A 
HETATM   14  C   UNL     1      29.719  43.081  54.534  1.00  0.00     0.037 A 
HETATM   15  C   UNL     1      28.487  43.127  53.870  1.00  0.00     0.012 A 
BRANCH  13  16
HETATM   16  O   UNL     1      31.291  44.230  56.041  1.00  0.00    -0.356 OA
HETATM   17  C   UNL     1      31.482  43.292  57.093  1.00  0.00     0.210 C 
ENDBRANCH  13  16
ENDBRANCH   7  10
ENDBRANCH   5   7
ENDBRANCH   2   5
BRANCH   1  18
HETATM   18  C   UNL     1      25.840  47.318  49.506  1.00  0.00     0.105 A 
HETATM   19  C   UNL     1      24.508  47.460  49.157  1.00  0.00     0.169 A 
HETATM   20  N   UNL     1      23.460  46.574  49.190  1.00  0.00    -0.233 NA
HETATM   21  N   UNL     1      24.359  48.769  48.686  1.00  0.00    -0.219 N 
HETATM   22  C   UNL     1      22.320  47.004  48.730  1.00  0.00     0.035 A 
HETATM   23  C   UNL     1      21.143  46.062  48.756  1.00  0.00     0.070 C 
HETATM   24  C   UNL     1      22.074  48.381  48.199  1.00  0.00     0.053 A 
HETATM   25  C   UNL     1      23.122  49.222  48.203  1.00  0.00     0.036 A 
HETATM   26  C   UNL     1      23.037  50.630  47.701  1.00  0.00     0.070 C 
HETATM   27  N   UNL     1      25.520  49.462  48.765  1.00  0.00    -0.170 NA
HETATM   28  C   UNL     1      26.411  48.591  49.248  1.00  0.00     0.071 A 
HETATM   29  C   UNL     1      27.823  49.012  49.451  1.00  0.00     0.073 C 
ENDBRANCH   1  18
TORSDOF 6
ENDMDL
MODEL 3
REMARK VINA RESULT:      -8.5      1.242      1.577
REMARK  6 active torsions:
REMARK  status: ('A' for Active; 'I' for Inactive)
REMARK    1  A    between atoms: C_9  and  C_10 
REMARK       I    between atoms: C_10  and  N_11 
REMARK    2  A    between atoms: N_11  and  C_12 
REMARK    3  A    between atoms: C_12  and  C_13 
REMARK    4  A    between atoms: C_13  and  O_14 
REMARK    5  A    between atoms: C_13  and  C_15 
REMARK    6  A    between atoms: C_18  and  O_19 
ROOT
HETATM    1  C   UNL     1      25.919  46.066  52.778  1.00  0.00     0.258 C 
HETATM    2  N   UNL     1      26.181  46.840  51.674  1.00  0.00    -0.350 N 
HETATM    3  O   UNL     1      24.941  45.327  52.854  1.00  0.00    -0.267 OA
HETATM    4  H   UNL     1      27.069  47.342  51.646  1.00  0.00     0.163 HD
ENDROOT
BRANCH   2   5
HETATM    5  C   UNL     1      25.430  46.724  50.428  1.00  0.00     0.114 C 
HETATM    6  C   UNL     1      25.764  45.381  49.772  1.00  0.00     0.035 C 
BRANCH   5   7
HETATM    7  C   UNL     1      25.728  47.898  49.458  1.00  0.00     0.173 C 
BRANCH   7   8
HETATM    8  O   UNL     1      26.671  48.809  50.040  1.00  0.00    -0.389 OA
HETATM    9  H   UNL     1      27.011  48.380  50.844  1.00  0.00     0.210 HD
ENDBRANCH   7   8
BRANCH   7  10
HETATM   10  C   UNL     1      24.481  48.634  49.005  1.00  0.00    -0.028 A 
HETATM   11  C   UNL     1      23.216  48.101  49.284  1.00  0.00     0.012 A 
HETATM   12  C   UNL     1      22.058  48.770  48.879  1.00  0.00     0.037 A 
HETATM   13  C   UNL     1      22.139  49.984  48.193  1.00  0.00     0.068 A 
HETATM   14  C   UNL     1      23.393  50.530  47.924  1.00  0.00     0.037 A 
HETATM   15  C   UNL     1      24.554  49.863  48.331  1.00  0.00     0.012 A 
BRANCH  13  16
HETATM   16  O   UNL     1      20.931  50.527  47.852  1.00  0.00    -0.356 OA
HETATM   17  C   UNL     1      20.447  51.583  48.671  1.00  0.00     0.210 C 
ENDBRANCH  13  16
ENDBRANCH   7  10
ENDBRANCH   5   7
ENDBRANCH   2   5
BRANCH   1  18
HETATM   18  C   UNL     1      26.897  46.166  53.850  1.00  0.00     0.105 A 
HETATM   19  C   UNL     1      27.965  45.323  54.108  1.00  0.00     0.169 A 
HETATM   20  N   UNL     1      28.417  44.202  53.456  1.00  0.00    -0.233 NA
HETATM   21  N   UNL     1      28.577  45.803  55.271  1.00  0.00    -0.219 N 
HETATM   22  C   UNL     1      29.431  43.587  53.994  1.00  0.00     0.035 A 
HETATM   23  C   UNL     1      29.962  42.356  53.303  1.00  0.00     0.070 C 
HETATM   24  C   UNL     1      30.139  44.023  55.238  1.00  0.00     0.053 A 
HETATM   25  C   UNL     1      29.675  45.136  55.833  1.00  0.00     0.036 A 
HETATM   26  C   UNL     1      30.272  45.697  57.086  1.00  0.00     0.070 C 
HETATM   27  N   UNL     1      27.971  46.927  55.725  1.00  0.00    -0.170 NA
HETATM   28  C   UNL     1      26.958  47.140  54.879  1.00  0.00     0.071 A 
HETATM   29  C   UNL     1      26.052  48.300  55.088  1.00  0.00     0.073 C 
ENDBRANCH   1  18
TORSDOF 6
ENDMDL
MODEL 4
REMARK VINA RESULT:      -8.4      2.885      8.056
REMARK  6 active torsions:
REMARK  status: ('A' for Active; 'I' for Inactive)
REMARK    1  A    between atoms: C_9  and  C_10 
REMARK       I    between atoms: C_10  and  N_11 
REMARK    2  A    between atoms: N_11  and  C_12 
REMARK    3  A    between atoms: C_12  and  C_13 
REMARK    4  A    between atoms: C_13  and  O_14 
REMARK    5  A    between atoms: C_13  and  C_15 
REMARK    6  A    between atoms: C_18  and  O_19 
ROOT
HETATM    1  C   UNL     1      26.412  44.290  50.563  1.00  0.00     0.258 C 
HETATM    2  N   UNL     1      26.478  44.152  51.928  1.00  0.00    -0.350 N 
HETATM    3  O   UNL     1      27.110  43.635  49.794  1.00  0.00    -0.267 OA
HETATM    4  H   UNL     1      25.790  44.652  52.490  1.00  0.00     0.163 HD
ENDROOT
BRANCH   2   5
HETATM    5  C   UNL     1      27.246  43.096  52.581  1.00  0.00     0.114 C 
HETATM    6  C   UNL     1      26.756  42.946  54.023  1.00  0.00     0.035 C 
BRANCH   5   7
HETATM    7  C   UNL     1      28.771  43.381  52.547  1.00  0.00     0.173 C 
BRANCH   7   8
HETATM    8  O   UNL     1      29.490  42.239  52.059  1.00  0.00    -0.389 OA
HETATM    9  H   UNL     1      28.859  41.722  51.529  1.00  0.00     0.210 HD
ENDBRANCH   7   8
BRANCH   7  10
HETATM   10  C   UNL     1      29.328  43.832  53.885  1.00  0.00    -0.028 A 
HETATM   11  C   UNL     1      30.315  43.069  54.523  1.00  0.00     0.012 A 
HETATM   12  C   UNL     1      30.841  43.473  55.752  1.00  0.00     0.037 A 
HETATM   13  C   UNL     1      30.398  44.646  56.367  1.00  0.00     0.068 A 
HETATM   14  C   UNL     1      29.426  45.419  55.734  1.00  0.00     0.037 A 
HETATM   15  C   UNL     1      28.899  45.018  54.501  1.00  0.00     0.012 A 
BRANCH  13  16
HETATM   16  O   UNL     1      30.992  44.920  57.568  1.00  0.00    -0.356 OA
HETATM   17  C   UNL     1      30.205  45.607  58.532  1.00  0.00     0.210 C 
ENDBRANCH  13  16
ENDBRANCH   7  10
ENDBRANCH   5   7
ENDBRANCH   2   5
BRANCH   1  18
HETATM   18  C   UNL     1      25.436  45.257  50.086  1.00  0.00     0.105 A 
HETATM   19  C   UNL     1      25.658  46.563  49.683  1.00  0.00     0.169 A 
HETATM   20  N   UNL     1      26.810  47.304  49.595  1.00  0.00    -0.233 NA
HETATM   21  N   UNL     1      24.404  47.099  49.366  1.00  0.00    -0.219 N 
HETATM   22  C   UNL     1      26.676  48.546  49.229  1.00  0.00     0.035 A 
HETATM   23  C   UNL     1      27.920  49.391  49.114  1.00  0.00     0.070 C 
HETATM   24  C   UNL     1      25.377  49.203  48.882  1.00  0.00     0.053 A 
HETATM   25  C   UNL     1      24.276  48.436  48.963  1.00  0.00     0.036 A 
HETATM   26  C   UNL     1      22.904  48.948  48.653  1.00  0.00     0.070 C 
HETATM   27  N   UNL     1      23.419  46.180  49.509  1.00  0.00    -0.170 NA
HETATM   28  C   UNL     1      24.035  45.078  49.950  1.00  0.00     0.071 A 
HETATM   29  C   UNL     1      23.242  43.854  50.239  1.00  0.00     0.073 C 
ENDBRANCH   1  18
TORSDOF 6
ENDMDL
MODEL 5
REMARK VINA RESULT:      -8.1      2.806      8.095
REMARK  6 active torsions:
REMARK  status: ('A' for Active; 'I' for Inactive)
REMARK    1  A    between atoms: C_9  and  C_10 
REMARK       I    between atoms: C_10  and  N_11 
REMARK    2  A    between atoms: N_11  and  C_12 
REMARK    3  A    between atoms: C_12  and  C_13 
REMARK    4  A    between atoms: C_13  and  O_14 
REMARK    5  A    between atoms: C_13  and  C_15 
REMARK    6  A    between atoms: C_18  and  O_19 
ROOT
HETATM    1  C   UNL     1      25.423  44.288  51.629  1.00  0.00     0.258 C 
HETATM    2  N   UNL     1      26.755  44.238  51.962  1.00  0.00    -0.350 N 
HETATM    3  O   UNL     1      24.670  43.326  51.753  1.00  0.00    -0.267 OA
HETATM    4  H   UNL     1      27.285  45.108  51.932  1.00  0.00     0.163 HD
ENDROOT
BRANCH   2   5
HETATM    5  C   UNL     1      27.355  43.104  52.658  1.00  0.00     0.114 C 
HETATM    6  C   UNL     1      26.785  43.035  54.078  1.00  0.00     0.035 C 
BRANCH   5   7
HETATM    7  C   UNL     1      28.903  43.197  52.693  1.00  0.00     0.173 C 
BRANCH   7   8
HETATM    8  O   UNL     1      29.495  41.934  52.354  1.00  0.00    -0.389 OA
HETATM    9  H   UNL     1      30.447  42.018  52.535  1.00  0.00     0.210 HD
ENDBRANCH   7   8
BRANCH   7  10
HETATM   10  C   UNL     1      29.445  43.703  54.017  1.00  0.00    -0.028 A 
HETATM   11  C   UNL     1      30.404  42.954  54.710  1.00  0.00     0.012 A 
HETATM   12  C   UNL     1      30.917  43.409  55.928  1.00  0.00     0.037 A 
HETATM   13  C   UNL     1      30.487  44.620  56.475  1.00  0.00     0.068 A 
HETATM   14  C   UNL     1      29.543  45.380  55.786  1.00  0.00     0.037 A 
HETATM   15  C   UNL     1      29.030  44.927  54.564  1.00  0.00     0.012 A 
BRANCH  13  16
HETATM   16  O   UNL     1      31.065  44.942  57.671  1.00  0.00    -0.356 OA
HETATM   17  C   UNL     1      30.603  46.124  58.311  1.00  0.00     0.210 C 
ENDBRANCH  13  16
ENDBRANCH   7  10
ENDBRANCH   5   7
ENDBRANCH   2   5
BRANCH   1  18
HETATM   18  C   UNL     1      24.957  45.574  51.135  1.00  0.00     0.105 A 
HETATM   19  C   UNL     1      24.103  45.820  50.073  1.00  0.00     0.169 A 
HETATM   20  N   UNL     1      23.452  44.970  49.214  1.00  0.00    -0.233 NA
HETATM   21  N   UNL     1      24.002  47.211  49.960  1.00  0.00    -0.219 N 
HETATM   22  C   UNL     1      22.755  45.524  48.265  1.00  0.00     0.035 A 
HETATM   23  C   UNL     1      22.019  44.623  47.305  1.00  0.00     0.070 C 
HETATM   24  C   UNL     1      22.599  46.998  48.063  1.00  0.00     0.053 A 
HETATM   25  C   UNL     1      23.238  47.795  48.938  1.00  0.00     0.036 A 
HETATM   26  C   UNL     1      23.184  49.289  48.867  1.00  0.00     0.070 C 
HETATM   27  N   UNL     1      24.713  47.843  50.924  1.00  0.00    -0.170 NA
HETATM   28  C   UNL     1      25.294  46.863  51.624  1.00  0.00     0.071 A 
HETATM   29  C   UNL     1      26.181  47.198  52.769  1.00  0.00     0.073 C 
ENDBRANCH   1  18
TORSDOF 6
ENDMDL
MODEL 6
REMARK VINA RESULT:      -7.9      2.980      8.633
REMARK  6 active torsions:
REMARK  status: ('A' for Active; 'I' for Inactive)
REMARK    1  A    between atoms: C_9  and  C_10 
REMARK       I    between atoms: C_10  and  N_11 
REMARK    2  A    between atoms: N_11  and  C_12 
REMARK    3  A    between atoms: C_12  and  C_13 
REMARK    4  A    between atoms: C_13  and  O_14 
REMARK    5  A    between atoms: C_13  and  C_15 
REMARK    6  A    between atoms: C_18  and  O_19 
ROOT
HETATM    1  C   UNL     1      26.275  44.140  49.972  1.00  0.00     0.258 C 
HETATM    2  N   UNL     1      26.267  43.410  51.136  1.00  0.00    -0.350 N 
HETATM    3  O   UNL     1      27.271  44.734  49.567  1.00  0.00    -0.267 OA
HETATM    4  H   UNL     1      25.435  42.859  51.345  1.00  0.00     0.163 HD
ENDROOT
BRANCH   2   5
HETATM    5  C   UNL     1      27.477  43.125  51.901  1.00  0.00     0.114 C 
HETATM    6  C   UNL     1      28.123  41.851  51.350  1.00  0.00     0.035 C 
BRANCH   5   7
HETATM    7  C   UNL     1      27.184  42.981  53.418  1.00  0.00     0.173 C 
BRANCH   7   8
HETATM    8  O   UNL     1      25.864  43.451  53.727  1.00  0.00    -0.389 OA
HETATM    9  H   UNL     1      25.974  44.195  54.344  1.00  0.00     0.210 HD
ENDBRANCH   7   8
BRANCH   7  10
HETATM   10  C   UNL     1      28.215  43.666  54.296  1.00  0.00    -0.028 A 
HETATM   11  C   UNL     1      27.926  44.910  54.871  1.00  0.00     0.012 A 
HETATM   12  C   UNL     1      28.862  45.551  55.686  1.00  0.00     0.037 A 
HETATM   13  C   UNL     1      30.101  44.963  55.948  1.00  0.00     0.068 A 
HETATM   14  C   UNL     1      30.393  43.718  55.392  1.00  0.00     0.037 A 
HETATM   15  C   UNL     1      29.456  43.073  54.577  1.00  0.00     0.012 A 
BRANCH  13  16
HETATM   16  O   UNL     1      30.923  45.700  56.755  1.00  0.00    -0.356 OA
HETATM   17  C   UNL     1      30.436  46.011  58.054  1.00  0.00     0.210 C 
ENDBRANCH  13  16
ENDBRANCH   7  10
ENDBRANCH   5   7
ENDBRANCH   2   5
BRANCH   1  18
HETATM   18  C   UNL     1      25.021  44.143  49.235  1.00  0.00     0.105 A 
HETATM   19  C   UNL     1      24.173  45.212  49.004  1.00  0.00     0.169 A 
HETATM   20  N   UNL     1      24.257  46.534  49.363  1.00  0.00    -0.233 NA
HETATM   21  N   UNL     1      23.078  44.703  48.297  1.00  0.00    -0.219 N 
HETATM   22  C   UNL     1      23.247  47.290  49.039  1.00  0.00     0.035 A 
HETATM   23  C   UNL     1      23.306  48.750  49.410  1.00  0.00     0.070 C 
HETATM   24  C   UNL     1      22.035  46.829  48.294  1.00  0.00     0.053 A 
HETATM   25  C   UNL     1      22.002  45.531  47.944  1.00  0.00     0.036 A 
HETATM   26  C   UNL     1      20.856  44.918  47.201  1.00  0.00     0.070 C 
HETATM   27  N   UNL     1      23.222  43.381  48.038  1.00  0.00    -0.170 NA
HETATM   28  C   UNL     1      24.383  43.042  48.608  1.00  0.00     0.071 A 
HETATM   29  C   UNL     1      24.858  41.635  48.536  1.00  0.00     0.073 C 
ENDBRANCH   1  18
TORSDOF 6
ENDMDL
MODEL 7
REMARK VINA RESULT:      -7.8      4.146      7.191
REMARK  6 active torsions:
REMARK  status: ('A' for Active; 'I' for Inactive)
REMARK    1  A    between atoms: C_9  and  C_10 
REMARK       I    between atoms: C_10  and  N_11 
REMARK    2  A    between atoms: N_11  and  C_12 
REMARK    3  A    between atoms: C_12  and  C_13 
REMARK    4  A    between atoms: C_13  and  O_14 
REMARK    5  A    between atoms: C_13  and  C_15 
REMARK    6  A    between atoms: C_18  and  O_19 
ROOT
HETATM    1  C   UNL     1      22.289  47.528  48.053  1.00  0.00     0.258 C 
HETATM    2  N   UNL     1      22.617  48.626  48.811  1.00  0.00    -0.350 N 
HETATM    3  O   UNL     1      21.709  47.615  46.975  1.00  0.00    -0.267 OA
HETATM    4  H   UNL     1      23.193  48.477  49.639  1.00  0.00     0.163 HD
ENDROOT
BRANCH   2   5
HETATM    5  C   UNL     1      22.470  49.995  48.327  1.00  0.00     0.114 C 
HETATM    6  C   UNL     1      23.825  50.486  47.809  1.00  0.00     0.035 C 
BRANCH   5   7
HETATM    7  C   UNL     1      21.927  50.945  49.427  1.00  0.00     0.173 C 
BRANCH   7   8
HETATM    8  O   UNL     1      22.417  50.557  50.719  1.00  0.00    -0.389 OA
HETATM    9  H   UNL     1      22.955  51.299  51.045  1.00  0.00     0.210 HD
ENDBRANCH   7   8
BRANCH   7  10
HETATM   10  C   UNL     1      20.413  51.049  49.438  1.00  0.00    -0.028 A 
HETATM   11  C   UNL     1      19.775  52.028  48.666  1.00  0.00     0.012 A 
HETATM   12  C   UNL     1      18.382  52.132  48.661  1.00  0.00     0.037 A 
HETATM   13  C   UNL     1      17.598  51.262  49.421  1.00  0.00     0.068 A 
HETATM   14  C   UNL     1      18.223  50.274  50.182  1.00  0.00     0.037 A 
HETATM   15  C   UNL     1      19.619  50.166  50.186  1.00  0.00     0.012 A 
BRANCH  13  16
HETATM   16  O   UNL     1      16.252  51.479  49.328  1.00  0.00    -0.356 OA
HETATM   17  C   UNL     1      15.834  52.629  48.604  1.00  0.00     0.210 C 
ENDBRANCH  13  16
ENDBRANCH   7  10
ENDBRANCH   5   7
ENDBRANCH   2   5
BRANCH   1  18
HETATM   18  C   UNL     1      22.699  46.248  48.610  1.00  0.00     0.105 A 
HETATM   19  C   UNL     1      23.628  46.014  49.609  1.00  0.00     0.169 A 
HETATM   20  N   UNL     1      24.395  46.871  50.358  1.00  0.00    -0.233 NA
HETATM   21  N   UNL     1      23.711  44.624  49.754  1.00  0.00    -0.219 N 
HETATM   22  C   UNL     1      25.232  46.325  51.192  1.00  0.00     0.035 A 
HETATM   23  C   UNL     1      26.088  47.235  52.038  1.00  0.00     0.070 C 
HETATM   24  C   UNL     1      25.394  44.853  51.405  1.00  0.00     0.053 A 
HETATM   25  C   UNL     1      24.610  44.050  50.665  1.00  0.00     0.036 A 
HETATM   26  C   UNL     1      24.657  42.556  50.759  1.00  0.00     0.070 C 
HETATM   27  N   UNL     1      22.850  43.984  48.927  1.00  0.00    -0.170 NA
HETATM   28  C   UNL     1      22.249  44.956  48.234  1.00  0.00     0.071 A 
HETATM   29  C   UNL     1      21.236  44.610  47.202  1.00  0.00     0.073 C 
ENDBRANCH   1  18
TORSDOF 6
ENDMDL
MODEL 8
REMARK VINA RESULT:      -7.8      3.572      8.139
REMARK  6 active torsions:
REMARK  status: ('A' for Active; 'I' for Inactive)
REMARK    1  A    between atoms: C_9  and  C_10 
REMARK       I    between atoms: C_10  and  N_11 
REMARK    2  A    between atoms: N_11  and  C_12 
REMARK    3  A    between atoms: C_12  and  C_13 
REMARK    4  A    between atoms: C_13  and  O_14 
REMARK    5  A    between atoms: C_13  and  C_15 
REMARK    6  A    between atoms: C_18  and  O_19 
ROOT
HETATM    1  C   UNL     1      26.589  44.231  49.863  1.00  0.00     0.258 C 
HETATM    2  N   UNL     1      26.454  42.873  50.025  1.00  0.00    -0.350 N 
HETATM    3  O   UNL     1      27.676  44.800  49.907  1.00  0.00    -0.267 OA
HETATM    4  H   UNL     1      25.533  42.466  49.867  1.00  0.00     0.163 HD
ENDROOT
BRANCH   2   5
HETATM    5  C   UNL     1      27.595  41.965  50.083  1.00  0.00     0.114 C 
HETATM    6  C   UNL     1      27.459  40.927  48.966  1.00  0.00     0.035 C 
BRANCH   5   7
HETATM    7  C   UNL     1      27.714  41.270  51.465  1.00  0.00     0.173 C 
BRANCH   7   8
HETATM    8  O   UNL     1      26.449  40.730  51.872  1.00  0.00    -0.389 OA
HETATM    9  H   UNL     1      26.591  39.780  52.029  1.00  0.00     0.210 HD
ENDBRANCH   7   8
BRANCH   7  10
HETATM   10  C   UNL     1      28.282  42.173  52.545  1.00  0.00    -0.028 A 
HETATM   11  C   UNL     1      27.421  42.959  53.321  1.00  0.00     0.012 A 
HETATM   12  C   UNL     1      27.928  43.791  54.322  1.00  0.00     0.037 A 
HETATM   13  C   UNL     1      29.300  43.853  54.571  1.00  0.00     0.068 A 
HETATM   14  C   UNL     1      30.165  43.064  53.813  1.00  0.00     0.037 A 
HETATM   15  C   UNL     1      29.659  42.227  52.812  1.00  0.00     0.012 A 
BRANCH  13  16
HETATM   16  O   UNL     1      29.660  44.711  55.573  1.00  0.00    -0.356 OA
HETATM   17  C   UNL     1      30.909  44.471  56.209  1.00  0.00     0.210 C 
ENDBRANCH  13  16
ENDBRANCH   7  10
ENDBRANCH   5   7
ENDBRANCH   2   5
BRANCH   1  18
HETATM   18  C   UNL     1      25.350  44.950  49.613  1.00  0.00     0.105 A 
HETATM   19  C   UNL     1      24.263  44.536  48.863  1.00  0.00     0.169 A 
HETATM   20  N   UNL     1      24.022  43.372  48.175  1.00  0.00    -0.233 NA
HETATM   21  N   UNL     1      23.346  45.593  48.877  1.00  0.00    -0.219 N 
HETATM   22  C   UNL     1      22.906  43.312  47.508  1.00  0.00     0.035 A 
HETATM   23  C   UNL     1      22.603  42.047  46.745  1.00  0.00     0.070 C 
HETATM   24  C   UNL     1      21.875  44.395  47.459  1.00  0.00     0.053 A 
HETATM   25  C   UNL     1      22.142  45.510  48.162  1.00  0.00     0.036 A 
HETATM   26  C   UNL     1      21.213  46.683  48.210  1.00  0.00     0.070 C 
HETATM   27  N   UNL     1      23.788  46.626  49.634  1.00  0.00    -0.170 NA
HETATM   28  C   UNL     1      24.994  46.246  50.068  1.00  0.00     0.071 A 
HETATM   29  C   UNL     1      25.792  47.160  50.927  1.00  0.00     0.073 C 
ENDBRANCH   1  18
TORSDOF 6
ENDMDL
MODEL 9
REMARK VINA RESULT:      -7.5      2.781      5.052
REMARK  6 active torsions:
REMARK  status: ('A' for Active; 'I' for Inactive)
REMARK    1  A    between atoms: C_9  and  C_10 
REMARK       I    between atoms: C_10  and  N_11 
REMARK    2  A    between atoms: N_11  and  C_12 
REMARK    3  A    between atoms: C_12  and  C_13 
REMARK    4  A    between atoms: C_13  and  O_14 
REMARK    5  A    between atoms: C_13  and  C_15 
REMARK    6  A    between atoms: C_18  and  O_19 
ROOT
HETATM    1  C   UNL     1      26.064  46.182  52.730  1.00  0.00     0.258 C 
HETATM    2  N   UNL     1      26.058  45.013  52.009  1.00  0.00    -0.350 N 
HETATM    3  O   UNL     1      25.330  47.129  52.466  1.00  0.00    -0.267 OA
HETATM    4  H   UNL     1      26.618  44.236  52.358  1.00  0.00     0.163 HD
ENDROOT
BRANCH   2   5
HETATM    5  C   UNL     1      25.062  44.720  50.983  1.00  0.00     0.114 C 
HETATM    6  C   UNL     1      24.207  43.537  51.445  1.00  0.00     0.035 C 
BRANCH   5   7
HETATM    7  C   UNL     1      25.714  44.421  49.608  1.00  0.00     0.173 C 
BRANCH   7   8
HETATM    8  O   UNL     1      24.845  44.817  48.537  1.00  0.00    -0.389 OA
HETATM    9  H   UNL     1      24.080  45.254  48.950  1.00  0.00     0.210 HD
ENDBRANCH   7   8
BRANCH   7  10
HETATM   10  C   UNL     1      26.137  42.972  49.446  1.00  0.00    -0.028 A 
HETATM   11  C   UNL     1      25.382  42.111  48.639  1.00  0.00     0.012 A 
HETATM   12  C   UNL     1      25.761  40.777  48.475  1.00  0.00     0.037 A 
HETATM   13  C   UNL     1      26.901  40.276  49.109  1.00  0.00     0.068 A 
HETATM   14  C   UNL     1      27.666  41.128  49.903  1.00  0.00     0.037 A 
HETATM   15  C   UNL     1      27.290  42.467  50.065  1.00  0.00     0.012 A 
BRANCH  13  16
HETATM   16  O   UNL     1      27.152  38.954  48.867  1.00  0.00    -0.356 OA
HETATM   17  C   UNL     1      28.129  38.325  49.688  1.00  0.00     0.210 C 
ENDBRANCH  13  16
ENDBRANCH   7  10
ENDBRANCH   5   7
ENDBRANCH   2   5
BRANCH   1  18
HETATM   18  C   UNL     1      26.992  46.212  53.850  1.00  0.00     0.105 A 
HETATM   19  C   UNL     1      28.038  45.344  54.112  1.00  0.00     0.169 A 
HETATM   20  N   UNL     1      28.510  44.254  53.423  1.00  0.00    -0.233 NA
HETATM   21  N   UNL     1      28.598  45.753  55.327  1.00  0.00    -0.219 N 
HETATM   22  C   UNL     1      29.492  43.599  53.973  1.00  0.00     0.035 A 
HETATM   23  C   UNL     1      30.043  42.400  53.242  1.00  0.00     0.070 C 
HETATM   24  C   UNL     1      30.143  43.959  55.270  1.00  0.00     0.053 A 
HETATM   25  C   UNL     1      29.663  45.043  55.903  1.00  0.00     0.036 A 
HETATM   26  C   UNL     1      30.205  45.528  57.211  1.00  0.00     0.070 C 
HETATM   27  N   UNL     1      27.983  46.858  55.813  1.00  0.00    -0.170 NA
HETATM   28  C   UNL     1      27.014  47.129  54.933  1.00  0.00     0.071 A 
HETATM   29  C   UNL     1      26.110  48.287  55.162  1.00  0.00     0.073 C 
ENDBRANCH   1  18
TORSDOF 6
ENDMDL
MODEL 10
REMARK VINA RESULT:      -7.5      3.670      8.883
REMARK  6 active torsions:
REMARK  status: ('A' for Active; 'I' for Inactive)
REMARK    1  A    between atoms: C_9  and  C_10 
REMARK       I    between atoms: C_10  and  N_11 
REMARK    2  A    between atoms: N_11  and  C_12 
REMARK    3  A    between atoms: C_12  and  C_13 
REMARK    4  A    between atoms: C_13  and  O_14 
REMARK    5  A    between atoms: C_13  and  C_15 
REMARK    6  A    between atoms: C_18  and  O_19 
ROOT
HETATM    1  C   UNL     1      23.489  48.442  49.519  1.00  0.00     0.258 C 
HETATM    2  N   UNL     1      23.849  47.271  50.142  1.00  0.00    -0.350 N 
HETATM    3  O   UNL     1      24.180  49.456  49.561  1.00  0.00    -0.267 OA
HETATM    4  H   UNL     1      23.277  46.445  49.968  1.00  0.00     0.163 HD
ENDROOT
BRANCH   2   5
HETATM    5  C   UNL     1      25.159  47.070  50.754  1.00  0.00     0.114 C 
HETATM    6  C   UNL     1      26.243  47.346  49.708  1.00  0.00     0.035 C 
BRANCH   5   7
HETATM    7  C   UNL     1      25.313  45.641  51.338  1.00  0.00     0.173 C 
BRANCH   7   8
HETATM    8  O   UNL     1      24.035  45.103  51.707  1.00  0.00    -0.389 OA
HETATM    9  H   UNL     1      23.372  45.769  51.456  1.00  0.00     0.210 HD
ENDBRANCH   7   8
BRANCH   7  10
HETATM   10  C   UNL     1      26.279  45.571  52.507  1.00  0.00    -0.028 A 
HETATM   11  C   UNL     1      27.152  44.482  52.626  1.00  0.00     0.012 A 
HETATM   12  C   UNL     1      28.051  44.405  53.693  1.00  0.00     0.037 A 
HETATM   13  C   UNL     1      28.100  45.414  54.658  1.00  0.00     0.068 A 
HETATM   14  C   UNL     1      27.246  46.509  54.540  1.00  0.00     0.037 A 
HETATM   15  C   UNL     1      26.346  46.589  53.470  1.00  0.00     0.012 A 
BRANCH  13  16
HETATM   16  O   UNL     1      29.021  45.210  55.648  1.00  0.00    -0.356 OA
HETATM   17  C   UNL     1      28.939  46.060  56.786  1.00  0.00     0.210 C 
ENDBRANCH  13  16
ENDBRANCH   7  10
ENDBRANCH   5   7
ENDBRANCH   2   5
BRANCH   1  18
HETATM   18  C   UNL     1      22.236  48.390  48.783  1.00  0.00     0.105 A 
HETATM   19  C   UNL     1      21.853  47.473  47.819  1.00  0.00     0.169 A 
HETATM   20  N   UNL     1      22.495  46.377  47.300  1.00  0.00    -0.233 NA
HETATM   21  N   UNL     1      20.589  47.874  47.371  1.00  0.00    -0.219 N 
HETATM   22  C   UNL     1      21.880  45.741  46.344  1.00  0.00     0.035 A 
HETATM   23  C   UNL     1      22.550  44.526  45.753  1.00  0.00     0.070 C 
HETATM   24  C   UNL     1      20.535  46.104  45.798  1.00  0.00     0.053 A 
HETATM   25  C   UNL     1      19.933  47.174  46.348  1.00  0.00     0.036 A 
HETATM   26  C   UNL     1      18.589  47.666  45.908  1.00  0.00     0.070 C 
HETATM   27  N   UNL     1      20.147  48.968  48.038  1.00  0.00    -0.170 NA
HETATM   28  C   UNL     1      21.138  49.284  48.879  1.00  0.00     0.071 A 
HETATM   29  C   UNL     1      21.002  50.466  49.770  1.00  0.00     0.073 C 
ENDBRANCH   1  18
TORSDOF 6
ENDMDL
