MODEL 1
REMARK VINA RESULT:      -8.9      0.000      0.000
REMARK  7 active torsions:
REMARK  status: ('A' for Active; 'I' for Inactive)
REMARK    1  A    between atoms: C_2  and  N_3 
REMARK    2  A    between atoms: C_2  and  C_10 
REMARK    3  A    between atoms: N_11  and  C_12 
REMARK    4  A    between atoms: C_19  and  S_20 
REMARK    5  A    between atoms: S_20  and  C_21 
REMARK    6  A    between atoms: C_21  and  C_22 
REMARK    7  A    between atoms: C_21  and  C_28 
REMARK       I    between atoms: C_22  and  N_23 
REMARK       I    between atoms: N_23  and  C_24 
REMARK       I    between atoms: C_24  and  N_25 
ROOT
HETATM    1  C   UNL     1      25.290  46.915  51.135  1.00  0.00     0.166 A 
HETATM    2  N   UNL     1      25.659  45.759  51.821  1.00  0.00    -0.274 N 
HETATM    3  C   UNL     1      25.696  46.159  53.145  1.00  0.00     0.197 A 
HETATM    4  N   UNL     1      25.428  47.440  53.240  1.00  0.00    -0.122 NA
HETATM    5  N   UNL     1      25.208  47.919  51.985  1.00  0.00    -0.131 NA
ENDROOT
BRANCH   3   6
HETATM    6  S   UNL     1      26.122  45.180  54.505  1.00  0.00    -0.070 SA
BRANCH   6   7
HETATM    7  C   UNL     1      27.930  44.986  54.289  1.00  0.00     0.180 C 
BRANCH   7   8
HETATM    8  C   UNL     1      28.670  45.398  55.570  1.00  0.00     0.244 C 
HETATM    9  N   UNL     1      29.812  44.663  55.849  1.00  0.00    -0.278 N 
HETATM   10  C   UNL     1      30.691  44.812  56.881  1.00  0.00     0.320 C 
HETATM   11  H   UNL     1      30.051  43.885  55.250  1.00  0.00     0.173 HD
HETATM   12  N   UNL     1      30.516  45.877  57.690  1.00  0.00    -0.352 N 
HETATM   13  O   UNL     1      31.612  44.020  57.049  1.00  0.00    -0.247 OA
HETATM   14  H   UNL     1      29.627  46.364  57.686  1.00  0.00     0.160 HD
HETATM   15  H   UNL     1      31.104  45.945  58.508  1.00  0.00     0.160 HD
HETATM   16  O   UNL     1      28.226  46.296  56.292  1.00  0.00    -0.271 OA
ENDBRANCH   7   8
BRANCH   7  17
HETATM   17  C   UNL     1      28.388  43.618  53.786  1.00  0.00    -0.035 A 
HETATM   18  C   UNL     1      29.598  43.389  53.109  1.00  0.00     0.009 A 
HETATM   19  C   UNL     1      29.934  42.112  52.650  1.00  0.00     0.001 A 
HETATM   20  C   UNL     1      29.065  41.044  52.848  1.00  0.00     0.000 A 
HETATM   21  C   UNL     1      27.859  41.248  53.509  1.00  0.00     0.001 A 
HETATM   22  C   UNL     1      27.524  42.521  53.977  1.00  0.00     0.009 A 
ENDBRANCH   7  17
ENDBRANCH   6   7
ENDBRANCH   3   6
BRANCH   2  23
HETATM   23  C   UNL     1      25.866  44.468  51.271  1.00  0.00     0.043 A 
HETATM   24  C   UNL     1      27.042  44.195  50.556  1.00  0.00     0.033 A 
HETATM   25  C   UNL     1      27.234  42.932  49.992  1.00  0.00     0.044 A 
HETATM   26  C   UNL     1      26.259  41.953  50.145  1.00  0.00     0.116 A 
HETATM   27  F   UNL     1      26.445  40.748  49.595  1.00  0.00    -0.206 F 
HETATM   28  C   UNL     1      25.096  42.209  50.859  1.00  0.00     0.044 A 
HETATM   29  C   UNL     1      24.894  43.468  51.429  1.00  0.00     0.033 A 
ENDBRANCH   2  23
BRANCH   1  30
HETATM   30  C   UNL     1      24.866  47.004  49.699  1.00  0.00     0.255 C 
HETATM   31  C   UNL     1      25.098  48.408  49.135  1.00  0.00     0.049 C 
BRANCH  30  32
HETATM   32  N   UNL     1      23.397  46.595  49.439  1.00  0.00    -0.060 N 
HETATM   33  H   UNL     1      22.969  46.509  50.369  1.00  0.00     0.280 HD
HETATM   34  C   UNL     1      22.632  47.678  48.706  1.00  0.00     0.236 C 
HETATM   35  C   UNL     1      21.147  47.340  48.708  1.00  0.00     0.028 C 
HETATM   36  C   UNL     1      20.878  45.964  48.110  1.00  0.00     0.003 C 
HETATM   37  C   UNL     1      21.723  44.890  48.786  1.00  0.00     0.028 C 
HETATM   38  C   UNL     1      23.204  45.249  48.756  1.00  0.00     0.236 C 
ENDBRANCH  30  32
ENDBRANCH   1  30
TORSDOF 7
ENDMDL
MODEL 2
REMARK VINA RESULT:      -8.5      3.182      4.856
REMARK  7 active torsions:
REMARK  status: ('A' for Active; 'I' for Inactive)
REMARK    1  A    between atoms: C_2  and  N_3 
REMARK    2  A    between atoms: C_2  and  C_10 
REMARK    3  A    between atoms: N_11  and  C_12 
REMARK    4  A    between atoms: C_19  and  S_20 
REMARK    5  A    between atoms: S_20  and  C_21 
REMARK    6  A    between atoms: C_21  and  C_22 
REMARK    7  A    between atoms: C_21  and  C_28 
REMARK       I    between atoms: C_22  and  N_23 
REMARK       I    between atoms: N_23  and  C_24 
REMARK       I    between atoms: C_24  and  N_25 
ROOT
HETATM    1  C   UNL     1      23.020  47.643  49.216  1.00  0.00     0.166 A 
HETATM    2  N   UNL     1      23.854  46.545  49.423  1.00  0.00    -0.274 N 
HETATM    3  C   UNL     1      24.991  47.096  49.987  1.00  0.00     0.197 A 
HETATM    4  N   UNL     1      24.873  48.401  50.064  1.00  0.00    -0.122 NA
HETATM    5  N   UNL     1      23.660  48.746  49.553  1.00  0.00    -0.131 NA
ENDROOT
BRANCH   3   6
HETATM    6  S   UNL     1      26.424  46.248  50.452  1.00  0.00    -0.070 SA
BRANCH   6   7
HETATM    7  C   UNL     1      25.936  45.521  52.060  1.00  0.00     0.180 C 
BRANCH   7   8
HETATM    8  C   UNL     1      25.763  44.000  51.930  1.00  0.00     0.244 C 
HETATM    9  N   UNL     1      26.394  43.431  50.835  1.00  0.00    -0.278 N 
HETATM   10  C   UNL     1      26.454  42.117  50.473  1.00  0.00     0.320 C 
HETATM   11  H   UNL     1      26.864  44.033  50.173  1.00  0.00     0.173 HD
HETATM   12  N   UNL     1      25.937  41.217  51.334  1.00  0.00    -0.352 N 
HETATM   13  O   UNL     1      26.976  41.774  49.418  1.00  0.00    -0.247 OA
HETATM   14  H   UNL     1      25.303  41.531  52.060  1.00  0.00     0.160 HD
HETATM   15  H   UNL     1      25.894  40.253  51.034  1.00  0.00     0.160 HD
HETATM   16  O   UNL     1      25.073  43.374  52.739  1.00  0.00    -0.271 OA
ENDBRANCH   7   8
BRANCH   7  17
HETATM   17  C   UNL     1      26.827  45.890  53.245  1.00  0.00    -0.035 A 
HETATM   18  C   UNL     1      27.738  45.010  53.853  1.00  0.00     0.009 A 
HETATM   19  C   UNL     1      28.498  45.412  54.957  1.00  0.00     0.001 A 
HETATM   20  C   UNL     1      28.354  46.693  55.479  1.00  0.00     0.000 A 
HETATM   21  C   UNL     1      27.453  47.579  54.897  1.00  0.00     0.001 A 
HETATM   22  C   UNL     1      26.700  47.184  53.790  1.00  0.00     0.009 A 
ENDBRANCH   7  17
ENDBRANCH   6   7
ENDBRANCH   3   6
BRANCH   2  23
HETATM   23  C   UNL     1      23.549  45.183  49.174  1.00  0.00     0.043 A 
HETATM   24  C   UNL     1      22.950  44.407  50.178  1.00  0.00     0.033 A 
HETATM   25  C   UNL     1      22.674  43.059  49.941  1.00  0.00     0.044 A 
HETATM   26  C   UNL     1      22.992  42.495  48.711  1.00  0.00     0.116 A 
HETATM   27  F   UNL     1      22.733  41.201  48.493  1.00  0.00    -0.206 F 
HETATM   28  C   UNL     1      23.576  43.255  47.706  1.00  0.00     0.044 A 
HETATM   29  C   UNL     1      23.855  44.606  47.931  1.00  0.00     0.033 A 
ENDBRANCH   2  23
BRANCH   1  30
HETATM   30  C   UNL     1      21.566  47.604  48.851  1.00  0.00     0.255 C 
HETATM   31  C   UNL     1      21.368  47.714  47.337  1.00  0.00     0.049 C 
BRANCH  30  32
HETATM   32  N   UNL     1      20.701  48.680  49.549  1.00  0.00    -0.060 N 
HETATM   33  H   UNL     1      21.182  48.885  50.433  1.00  0.00     0.280 HD
HETATM   34  C   UNL     1      20.668  49.974  48.761  1.00  0.00     0.236 C 
HETATM   35  C   UNL     1      20.030  51.068  49.609  1.00  0.00     0.028 C 
HETATM   36  C   UNL     1      18.639  50.672  50.091  1.00  0.00     0.003 C 
HETATM   37  C   UNL     1      18.661  49.321  50.799  1.00  0.00     0.028 C 
HETATM   38  C   UNL     1      19.291  48.245  49.921  1.00  0.00     0.236 C 
ENDBRANCH  30  32
ENDBRANCH   1  30
TORSDOF 7
ENDMDL
MODEL 3
REMARK VINA RESULT:      -8.4      4.251      6.261
REMARK  7 active torsions:
REMARK  status: ('A' for Active; 'I' for Inactive)
REMARK    1  A    between atoms: C_2  and  N_3 
REMARK    2  A    between atoms: C_2  and  C_10 
REMARK    3  A    between atoms: N_11  and  C_12 
REMARK    4  A    between atoms: C_19  and  S_20 
REMARK    5  A    between atoms: S_20  and  C_21 
REMARK    6  A    between atoms: C_21  and  C_22 
REMARK    7  A    between atoms: C_21  and  C_28 
REMARK       I    between atoms: C_22  and  N_23 
REMARK       I    between atoms: N_23  and  C_24 
REMARK       I    between atoms: C_24  and  N_25 
ROOT
HETATM    1  C   UNL     1      25.909  44.884  50.306  1.00  0.00     0.166 A 
HETATM    2  N   UNL     1      26.290  43.670  50.875  1.00  0.00    -0.274 N 
HETATM    3  C   UNL     1      25.674  42.723  50.076  1.00  0.00     0.197 A 
HETATM    4  N   UNL     1      24.952  43.310  49.151  1.00  0.00    -0.122 NA
HETATM    5  N   UNL     1      25.070  44.656  49.314  1.00  0.00    -0.131 NA
ENDROOT
BRANCH   3   6
HETATM    6  S   UNL     1      25.733  41.008  50.279  1.00  0.00    -0.070 SA
BRANCH   6   7
HETATM    7  C   UNL     1      27.206  40.553  49.290  1.00  0.00     0.180 C 
BRANCH   7   8
HETATM    8  C   UNL     1      27.703  39.154  49.682  1.00  0.00     0.244 C 
HETATM    9  N   UNL     1      29.061  39.069  49.949  1.00  0.00    -0.278 N 
HETATM   10  C   UNL     1      29.785  37.985  50.352  1.00  0.00     0.320 C 
HETATM   11  H   UNL     1      29.638  39.888  49.816  1.00  0.00     0.173 HD
HETATM   12  N   UNL     1      29.099  36.862  50.647  1.00  0.00    -0.352 N 
HETATM   13  O   UNL     1      31.004  38.042  50.460  1.00  0.00    -0.247 OA
HETATM   14  H   UNL     1      28.145  36.761  50.318  1.00  0.00     0.160 HD
HETATM   15  H   UNL     1      29.631  36.029  50.857  1.00  0.00     0.160 HD
HETATM   16  O   UNL     1      26.927  38.194  49.706  1.00  0.00    -0.271 OA
ENDBRANCH   7   8
BRANCH   7  17
HETATM   17  C   UNL     1      27.051  40.696  47.777  1.00  0.00    -0.035 A 
HETATM   18  C   UNL     1      25.827  40.591  47.095  1.00  0.00     0.009 A 
HETATM   19  C   UNL     1      25.769  40.702  45.702  1.00  0.00     0.001 A 
HETATM   20  C   UNL     1      26.931  40.908  44.965  1.00  0.00     0.000 A 
HETATM   21  C   UNL     1      28.155  41.009  45.619  1.00  0.00     0.001 A 
HETATM   22  C   UNL     1      28.215  40.907  47.011  1.00  0.00     0.009 A 
ENDBRANCH   7  17
ENDBRANCH   6   7
ENDBRANCH   3   6
BRANCH   2  23
HETATM   23  C   UNL     1      27.169  43.479  51.971  1.00  0.00     0.043 A 
HETATM   24  C   UNL     1      28.548  43.350  51.745  1.00  0.00     0.033 A 
HETATM   25  C   UNL     1      29.411  43.136  52.822  1.00  0.00     0.044 A 
HETATM   26  C   UNL     1      28.898  43.056  54.111  1.00  0.00     0.116 A 
HETATM   27  F   UNL     1      29.728  42.843  55.138  1.00  0.00    -0.206 F 
HETATM   28  C   UNL     1      27.536  43.193  54.348  1.00  0.00     0.044 A 
HETATM   29  C   UNL     1      26.664  43.409  53.278  1.00  0.00     0.033 A 
ENDBRANCH   2  23
BRANCH   1  30
HETATM   30  C   UNL     1      26.479  46.235  50.619  1.00  0.00     0.255 C 
HETATM   31  C   UNL     1      26.131  46.671  52.044  1.00  0.00     0.049 C 
BRANCH  30  32
HETATM   32  N   UNL     1      26.056  47.352  49.635  1.00  0.00    -0.060 N 
HETATM   33  H   UNL     1      26.028  46.905  48.711  1.00  0.00     0.280 HD
HETATM   34  C   UNL     1      24.654  47.852  49.920  1.00  0.00     0.236 C 
HETATM   35  C   UNL     1      24.195  48.750  48.779  1.00  0.00     0.028 C 
HETATM   36  C   UNL     1      25.162  49.904  48.541  1.00  0.00     0.003 C 
HETATM   37  C   UNL     1      26.589  49.402  48.351  1.00  0.00     0.028 C 
HETATM   38  C   UNL     1      27.026  48.519  49.515  1.00  0.00     0.236 C 
ENDBRANCH  30  32
ENDBRANCH   1  30
TORSDOF 7
ENDMDL
MODEL 4
REMARK VINA RESULT:      -8.3      3.780      8.235
REMARK  7 active torsions:
REMARK  status: ('A' for Active; 'I' for Inactive)
REMARK    1  A    between atoms: C_2  and  N_3 
REMARK    2  A    between atoms: C_2  and  C_10 
REMARK    3  A    between atoms: N_11  and  C_12 
REMARK    4  A    between atoms: C_19  and  S_20 
REMARK    5  A    between atoms: S_20  and  C_21 
REMARK    6  A    between atoms: C_21  and  C_22 
REMARK    7  A    between atoms: C_21  and  C_28 
REMARK       I    between atoms: C_22  and  N_23 
REMARK       I    between atoms: N_23  and  C_24 
REMARK       I    between atoms: C_24  and  N_25 
ROOT
HETATM    1  C   UNL     1      25.241  45.549  52.263  1.00  0.00     0.166 A 
HETATM    2  N   UNL     1      24.741  45.533  50.962  1.00  0.00    -0.274 N 
HETATM    3  C   UNL     1      24.749  46.866  50.589  1.00  0.00     0.197 A 
HETATM    4  N   UNL     1      25.165  47.613  51.584  1.00  0.00    -0.122 NA
HETATM    5  N   UNL     1      25.439  46.797  52.638  1.00  0.00    -0.131 NA
ENDROOT
BRANCH   3   6
HETATM    6  S   UNL     1      24.212  47.516  49.080  1.00  0.00    -0.070 SA
BRANCH   6   7
HETATM    7  C   UNL     1      22.395  47.326  49.204  1.00  0.00     0.180 C 
BRANCH   7   8
HETATM    8  C   UNL     1      21.701  48.685  49.027  1.00  0.00     0.244 C 
HETATM    9  N   UNL     1      20.655  48.926  49.904  1.00  0.00    -0.278 N 
HETATM   10  C   UNL     1      19.878  50.042  50.019  1.00  0.00     0.320 C 
HETATM   11  H   UNL     1      20.377  48.197  50.547  1.00  0.00     0.173 HD
HETATM   12  N   UNL     1      20.221  51.110  49.271  1.00  0.00    -0.352 N 
HETATM   13  O   UNL     1      18.923  50.073  50.786  1.00  0.00    -0.247 OA
HETATM   14  H   UNL     1      20.842  50.984  48.479  1.00  0.00     0.160 HD
HETATM   15  H   UNL     1      19.600  51.907  49.279  1.00  0.00     0.160 HD
HETATM   16  O   UNL     1      22.052  49.459  48.132  1.00  0.00    -0.271 OA
ENDBRANCH   7   8
BRANCH   7  17
HETATM   17  C   UNL     1      21.784  46.256  48.300  1.00  0.00    -0.035 A 
HETATM   18  C   UNL     1      20.478  45.755  48.440  1.00  0.00     0.009 A 
HETATM   19  C   UNL     1      20.000  44.751  47.593  1.00  0.00     0.001 A 
HETATM   20  C   UNL     1      20.817  44.222  46.599  1.00  0.00     0.000 A 
HETATM   21  C   UNL     1      22.115  44.698  46.446  1.00  0.00     0.001 A 
HETATM   22  C   UNL     1      22.593  45.707  47.285  1.00  0.00     0.009 A 
ENDBRANCH   7  17
ENDBRANCH   6   7
ENDBRANCH   3   6
BRANCH   2  23
HETATM   23  C   UNL     1      24.386  44.393  50.197  1.00  0.00     0.043 A 
HETATM   24  C   UNL     1      23.123  43.805  50.367  1.00  0.00     0.033 A 
HETATM   25  C   UNL     1      22.783  42.666  49.632  1.00  0.00     0.044 A 
HETATM   26  C   UNL     1      23.698  42.126  48.736  1.00  0.00     0.116 A 
HETATM   27  F   UNL     1      23.369  41.030  48.041  1.00  0.00    -0.206 F 
HETATM   28  C   UNL     1      24.946  42.705  48.552  1.00  0.00     0.044 A 
HETATM   29  C   UNL     1      25.296  43.846  49.280  1.00  0.00     0.033 A 
ENDBRANCH   2  23
BRANCH   1  30
HETATM   30  C   UNL     1      25.674  44.360  53.067  1.00  0.00     0.255 C 
HETATM   31  C   UNL     1      25.042  44.369  54.461  1.00  0.00     0.049 C 
BRANCH  30  32
HETATM   32  N   UNL     1      27.207  44.208  53.212  1.00  0.00    -0.060 N 
HETATM   33  H   UNL     1      27.607  45.040  52.763  1.00  0.00     0.280 HD
HETATM   34  C   UNL     1      27.642  44.245  54.663  1.00  0.00     0.236 C 
HETATM   35  C   UNL     1      29.159  44.355  54.735  1.00  0.00     0.028 C 
HETATM   36  C   UNL     1      29.846  43.226  53.975  1.00  0.00     0.003 C 
HETATM   37  C   UNL     1      29.334  43.130  52.542  1.00  0.00     0.028 C 
HETATM   38  C   UNL     1      27.815  43.007  52.502  1.00  0.00     0.236 C 
ENDBRANCH  30  32
ENDBRANCH   1  30
TORSDOF 7
ENDMDL
MODEL 5
REMARK VINA RESULT:      -8.0      7.404     12.448
REMARK  7 active torsions:
REMARK  status: ('A' for Active; 'I' for Inactive)
REMARK    1  A    between atoms: C_2  and  N_3 
REMARK    2  A    between atoms: C_2  and  C_10 
REMARK    3  A    between atoms: N_11  and  C_12 
REMARK    4  A    between atoms: C_19  and  S_20 
REMARK    5  A    between atoms: S_20  and  C_21 
REMARK    6  A    between atoms: C_21  and  C_22 
REMARK    7  A    between atoms: C_21  and  C_28 
REMARK       I    between atoms: C_22  and  N_23 
REMARK       I    between atoms: N_23  and  C_24 
REMARK       I    between atoms: C_24  and  N_25 
ROOT
HETATM    1  C   UNL     1      22.003  48.600  47.832  1.00  0.00     0.166 A 
HETATM    2  N   UNL     1      20.619  48.756  47.897  1.00  0.00    -0.274 N 
HETATM    3  C   UNL     1      20.128  47.603  47.310  1.00  0.00     0.197 A 
HETATM    4  N   UNL     1      21.118  46.853  46.887  1.00  0.00    -0.122 NA
HETATM    5  N   UNL     1      22.285  47.488  47.181  1.00  0.00    -0.131 NA
ENDROOT
BRANCH   3   6
HETATM    6  S   UNL     1      18.466  47.203  47.059  1.00  0.00    -0.070 SA
BRANCH   6   7
HETATM    7  C   UNL     1      17.987  48.366  45.727  1.00  0.00     0.180 C 
BRANCH   7   8
HETATM    8  C   UNL     1      17.303  47.611  44.578  1.00  0.00     0.244 C 
HETATM    9  N   UNL     1      16.851  46.341  44.898  1.00  0.00    -0.278 N 
HETATM   10  C   UNL     1      16.180  45.450  44.112  1.00  0.00     0.320 C 
HETATM   11  H   UNL     1      17.044  45.970  45.818  1.00  0.00     0.173 HD
HETATM   12  N   UNL     1      15.792  45.876  42.893  1.00  0.00    -0.352 N 
HETATM   13  O   UNL     1      15.926  44.320  44.510  1.00  0.00    -0.247 OA
HETATM   14  H   UNL     1      16.220  46.706  42.496  1.00  0.00     0.160 HD
HETATM   15  H   UNL     1      15.378  45.198  42.269  1.00  0.00     0.160 HD
HETATM   16  O   UNL     1      17.218  48.118  43.455  1.00  0.00    -0.271 OA
ENDBRANCH   7   8
BRANCH   7  17
HETATM   17  C   UNL     1      17.170  49.576  46.175  1.00  0.00    -0.035 A 
HETATM   18  C   UNL     1      17.210  50.833  45.547  1.00  0.00     0.009 A 
HETATM   19  C   UNL     1      16.455  51.904  46.036  1.00  0.00     0.001 A 
HETATM   20  C   UNL     1      15.656  51.744  47.164  1.00  0.00     0.000 A 
HETATM   21  C   UNL     1      15.606  50.511  47.805  1.00  0.00     0.001 A 
HETATM   22  C   UNL     1      16.352  49.437  47.315  1.00  0.00     0.009 A 
ENDBRANCH   7  17
ENDBRANCH   6   7
ENDBRANCH   3   6
BRANCH   2  23
HETATM   23  C   UNL     1      19.908  49.824  48.501  1.00  0.00     0.043 A 
HETATM   24  C   UNL     1      19.181  49.600  49.681  1.00  0.00     0.033 A 
HETATM   25  C   UNL     1      18.460  50.645  50.261  1.00  0.00     0.044 A 
HETATM   26  C   UNL     1      18.470  51.902  49.668  1.00  0.00     0.116 A 
HETATM   27  F   UNL     1      17.770  52.898  50.224  1.00  0.00    -0.206 F 
HETATM   28  C   UNL     1      19.194  52.139  48.507  1.00  0.00     0.044 A 
HETATM   29  C   UNL     1      19.921  51.101  47.919  1.00  0.00     0.033 A 
ENDBRANCH   2  23
BRANCH   1  30
HETATM   30  C   UNL     1      23.030  49.436  48.533  1.00  0.00     0.255 C 
HETATM   31  C   UNL     1      23.314  50.730  47.767  1.00  0.00     0.049 C 
BRANCH  30  32
HETATM   32  N   UNL     1      24.369  48.710  48.806  1.00  0.00    -0.060 N 
HETATM   33  H   UNL     1      24.496  48.066  48.016  1.00  0.00     0.280 HD
HETATM   34  C   UNL     1      25.544  49.667  48.781  1.00  0.00     0.236 C 
HETATM   35  C   UNL     1      26.844  48.874  48.793  1.00  0.00     0.028 C 
HETATM   36  C   UNL     1      26.921  47.928  49.985  1.00  0.00     0.003 C 
HETATM   37  C   UNL     1      25.689  47.033  50.063  1.00  0.00     0.028 C 
HETATM   38  C   UNL     1      24.405  47.854  50.064  1.00  0.00     0.236 C 
ENDBRANCH  30  32
ENDBRANCH   1  30
TORSDOF 7
ENDMDL
MODEL 6
REMARK VINA RESULT:      -7.9      3.430      7.795
REMARK  7 active torsions:
REMARK  status: ('A' for Active; 'I' for Inactive)
REMARK    1  A    between atoms: C_2  and  N_3 
REMARK    2  A    between atoms: C_2  and  C_10 
REMARK    3  A    between atoms: N_11  and  C_12 
REMARK    4  A    between atoms: C_19  and  S_20 
REMARK    5  A    between atoms: S_20  and  C_21 
REMARK    6  A    between atoms: C_21  and  C_22 
REMARK    7  A    between atoms: C_21  and  C_28 
REMARK       I    between atoms: C_22  and  N_23 
REMARK       I    between atoms: N_23  and  C_24 
REMARK       I    between atoms: C_24  and  N_25 
ROOT
HETATM    1  C   UNL     1      25.832  45.455  53.176  1.00  0.00     0.166 A 
HETATM    2  N   UNL     1      25.701  45.366  51.791  1.00  0.00    -0.274 N 
HETATM    3  C   UNL     1      25.635  46.685  51.380  1.00  0.00     0.197 A 
HETATM    4  N   UNL     1      25.671  47.487  52.418  1.00  0.00    -0.122 NA
HETATM    5  N   UNL     1      25.760  46.721  53.540  1.00  0.00    -0.131 NA
ENDROOT
BRANCH   3   6
HETATM    6  S   UNL     1      25.437  47.250  49.758  1.00  0.00    -0.070 SA
BRANCH   6   7
HETATM    7  C   UNL     1      23.621  47.167  49.540  1.00  0.00     0.180 C 
BRANCH   7   8
HETATM    8  C   UNL     1      23.091  48.487  48.960  1.00  0.00     0.244 C 
HETATM    9  N   UNL     1      22.395  49.283  49.856  1.00  0.00    -0.278 N 
HETATM   10  C   UNL     1      21.842  50.514  49.653  1.00  0.00     0.320 C 
HETATM   11  H   UNL     1      22.228  48.937  50.791  1.00  0.00     0.173 HD
HETATM   12  N   UNL     1      22.083  51.109  48.467  1.00  0.00    -0.352 N 
HETATM   13  O   UNL     1      21.172  51.059  50.522  1.00  0.00    -0.247 OA
HETATM   14  H   UNL     1      22.418  50.551  47.689  1.00  0.00     0.160 HD
HETATM   15  H   UNL     1      21.604  51.976  48.272  1.00  0.00     0.160 HD
HETATM   16  O   UNL     1      23.258  48.762  47.768  1.00  0.00    -0.271 OA
ENDBRANCH   7   8
BRANCH   7  17
HETATM   17  C   UNL     1      23.107  45.959  48.760  1.00  0.00    -0.035 A 
HETATM   18  C   UNL     1      23.932  45.051  48.074  1.00  0.00     0.009 A 
HETATM   19  C   UNL     1      23.384  43.985  47.354  1.00  0.00     0.001 A 
HETATM   20  C   UNL     1      22.005  43.811  47.298  1.00  0.00     0.000 A 
HETATM   21  C   UNL     1      21.168  44.700  47.964  1.00  0.00     0.001 A 
HETATM   22  C   UNL     1      21.713  45.761  48.691  1.00  0.00     0.009 A 
ENDBRANCH   7  17
ENDBRANCH   6   7
ENDBRANCH   3   6
BRANCH   2  23
HETATM   23  C   UNL     1      25.712  44.184  51.007  1.00  0.00     0.043 A 
HETATM   24  C   UNL     1      24.613  43.313  51.043  1.00  0.00     0.033 A 
HETATM   25  C   UNL     1      24.635  42.136  50.290  1.00  0.00     0.044 A 
HETATM   26  C   UNL     1      25.746  41.838  49.509  1.00  0.00     0.116 A 
HETATM   27  F   UNL     1      25.764  40.706  48.797  1.00  0.00    -0.206 F 
HETATM   28  C   UNL     1      26.835  42.698  49.458  1.00  0.00     0.044 A 
HETATM   29  C   UNL     1      26.822  43.879  50.205  1.00  0.00     0.033 A 
ENDBRANCH   2  23
BRANCH   1  30
HETATM   30  C   UNL     1      26.186  44.340  54.113  1.00  0.00     0.255 C 
HETATM   31  C   UNL     1      25.032  44.025  55.067  1.00  0.00     0.049 C 
BRANCH  30  32
HETATM   32  N   UNL     1      27.470  44.583  54.942  1.00  0.00    -0.060 N 
HETATM   33  H   UNL     1      27.375  43.987  55.774  1.00  0.00     0.280 HD
HETATM   34  C   UNL     1      28.711  44.114  54.210  1.00  0.00     0.236 C 
HETATM   35  C   UNL     1      29.900  44.134  55.162  1.00  0.00     0.028 C 
HETATM   36  C   UNL     1      30.105  45.511  55.783  1.00  0.00     0.003 C 
HETATM   37  C   UNL     1      28.825  46.022  56.436  1.00  0.00     0.028 C 
HETATM   38  C   UNL     1      27.657  46.004  55.455  1.00  0.00     0.236 C 
ENDBRANCH  30  32
ENDBRANCH   1  30
TORSDOF 7
ENDMDL
MODEL 7
REMARK VINA RESULT:      -7.6      6.557     10.218
REMARK  7 active torsions:
REMARK  status: ('A' for Active; 'I' for Inactive)
REMARK    1  A    between atoms: C_2  and  N_3 
REMARK    2  A    between atoms: C_2  and  C_10 
REMARK    3  A    between atoms: N_11  and  C_12 
REMARK    4  A    between atoms: C_19  and  S_20 
REMARK    5  A    between atoms: S_20  and  C_21 
REMARK    6  A    between atoms: C_21  and  C_22 
REMARK    7  A    between atoms: C_21  and  C_28 
REMARK       I    between atoms: C_22  and  N_23 
REMARK       I    between atoms: N_23  and  C_24 
REMARK       I    between atoms: C_24  and  N_25 
ROOT
HETATM    1  C   UNL     1      17.988  51.702  47.676  1.00  0.00     0.166 A 
HETATM    2  N   UNL     1      18.525  50.442  47.931  1.00  0.00    -0.274 N 
HETATM    3  C   UNL     1      19.543  50.694  48.835  1.00  0.00     0.197 A 
HETATM    4  N   UNL     1      19.641  51.983  49.060  1.00  0.00    -0.122 NA
HETATM    5  N   UNL     1      18.695  52.615  48.313  1.00  0.00    -0.131 NA
ENDROOT
BRANCH   3   6
HETATM    6  S   UNL     1      20.620  49.531  49.523  1.00  0.00    -0.070 SA
BRANCH   6   7
HETATM    7  C   UNL     1      21.458  48.856  48.041  1.00  0.00     0.180 C 
BRANCH   7   8
HETATM    8  C   UNL     1      22.970  49.114  48.117  1.00  0.00     0.244 C 
HETATM    9  N   UNL     1      23.619  48.489  49.171  1.00  0.00    -0.278 N 
HETATM   10  C   UNL     1      24.947  48.496  49.479  1.00  0.00     0.320 C 
HETATM   11  H   UNL     1      23.072  47.968  49.842  1.00  0.00     0.173 HD
HETATM   12  N   UNL     1      25.780  49.088  48.599  1.00  0.00    -0.352 N 
HETATM   13  O   UNL     1      25.363  47.968  50.504  1.00  0.00    -0.247 OA
HETATM   14  H   UNL     1      25.402  49.721  47.904  1.00  0.00     0.160 HD
HETATM   15  H   UNL     1      26.752  49.179  48.862  1.00  0.00     0.160 HD
HETATM   16  O   UNL     1      23.522  49.861  47.304  1.00  0.00    -0.271 OA
ENDBRANCH   7   8
BRANCH   7  17
HETATM   17  C   UNL     1      21.148  47.395  47.719  1.00  0.00    -0.035 A 
HETATM   18  C   UNL     1      21.437  46.778  46.490  1.00  0.00     0.009 A 
HETATM   19  C   UNL     1      21.094  45.443  46.258  1.00  0.00     0.001 A 
HETATM   20  C   UNL     1      20.448  44.703  47.244  1.00  0.00     0.000 A 
HETATM   21  C   UNL     1      20.146  45.294  48.466  1.00  0.00     0.001 A 
HETATM   22  C   UNL     1      20.496  46.626  48.703  1.00  0.00     0.009 A 
ENDBRANCH   7  17
ENDBRANCH   6   7
ENDBRANCH   3   6
BRANCH   2  23
HETATM   23  C   UNL     1      18.065  49.199  47.426  1.00  0.00     0.043 A 
HETATM   24  C   UNL     1      17.339  48.334  48.259  1.00  0.00     0.033 A 
HETATM   25  C   UNL     1      16.909  47.098  47.770  1.00  0.00     0.044 A 
HETATM   26  C   UNL     1      17.200  46.736  46.460  1.00  0.00     0.116 A 
HETATM   27  F   UNL     1      16.792  45.548  45.999  1.00  0.00    -0.206 F 
HETATM   28  C   UNL     1      17.909  47.589  45.623  1.00  0.00     0.044 A 
HETATM   29  C   UNL     1      18.343  48.827  46.102  1.00  0.00     0.033 A 
ENDBRANCH   2  23
BRANCH   1  30
HETATM   30  C   UNL     1      16.707  51.997  46.954  1.00  0.00     0.255 C 
HETATM   31  C   UNL     1      16.970  52.463  45.520  1.00  0.00     0.049 C 
BRANCH  30  32
HETATM   32  N   UNL     1      15.798  53.032  47.659  1.00  0.00    -0.060 N 
HETATM   33  H   UNL     1      16.387  53.861  47.800  1.00  0.00     0.280 HD
HETATM   34  C   UNL     1      14.644  53.461  46.776  1.00  0.00     0.236 C 
HETATM   35  C   UNL     1      13.941  54.656  47.407  1.00  0.00     0.028 C 
HETATM   36  C   UNL     1      13.476  54.357  48.827  1.00  0.00     0.003 C 
HETATM   37  C   UNL     1      14.621  53.832  49.687  1.00  0.00     0.028 C 
HETATM   38  C   UNL     1      15.295  52.628  49.037  1.00  0.00     0.236 C 
ENDBRANCH  30  32
ENDBRANCH   1  30
TORSDOF 7
ENDMDL
MODEL 8
REMARK VINA RESULT:      -7.6     13.617     16.274
REMARK  7 active torsions:
REMARK  status: ('A' for Active; 'I' for Inactive)
REMARK    1  A    between atoms: C_2  and  N_3 
REMARK    2  A    between atoms: C_2  and  C_10 
REMARK    3  A    between atoms: N_11  and  C_12 
REMARK    4  A    between atoms: C_19  and  S_20 
REMARK    5  A    between atoms: S_20  and  C_21 
REMARK    6  A    between atoms: C_21  and  C_22 
REMARK    7  A    between atoms: C_21  and  C_28 
REMARK       I    between atoms: C_22  and  N_23 
REMARK       I    between atoms: N_23  and  C_24 
REMARK       I    between atoms: C_24  and  N_25 
ROOT
HETATM    1  C   UNL     1      34.098  49.394  41.427  1.00  0.00     0.166 A 
HETATM    2  N   UNL     1      32.759  49.754  41.284  1.00  0.00    -0.274 N 
HETATM    3  C   UNL     1      32.084  48.548  41.350  1.00  0.00     0.197 A 
HETATM    4  N   UNL     1      32.936  47.557  41.468  1.00  0.00    -0.122 NA
HETATM    5  N   UNL     1      34.192  48.079  41.483  1.00  0.00    -0.131 NA
ENDROOT
BRANCH   3   6
HETATM    6  S   UNL     1      30.378  48.314  41.205  1.00  0.00    -0.070 SA
BRANCH   6   7
HETATM    7  C   UNL     1      30.087  48.675  39.433  1.00  0.00     0.180 C 
BRANCH   7   8
HETATM    8  C   UNL     1      29.218  47.580  38.799  1.00  0.00     0.244 C 
HETATM    9  N   UNL     1      29.589  46.282  39.114  1.00  0.00    -0.278 N 
HETATM   10  C   UNL     1      28.999  45.110  38.740  1.00  0.00     0.320 C 
HETATM   11  H   UNL     1      30.418  46.132  39.673  1.00  0.00     0.173 HD
HETATM   12  N   UNL     1      27.833  45.197  38.066  1.00  0.00    -0.352 N 
HETATM   13  O   UNL     1      29.499  44.029  39.023  1.00  0.00    -0.247 OA
HETATM   14  H   UNL     1      27.572  46.076  37.633  1.00  0.00     0.160 HD
HETATM   15  H   UNL     1      27.436  44.341  37.705  1.00  0.00     0.160 HD
HETATM   16  O   UNL     1      28.292  47.873  38.038  1.00  0.00    -0.271 OA
ENDBRANCH   7   8
BRANCH   7  17
HETATM   17  C   UNL     1      29.551  50.072  39.127  1.00  0.00    -0.035 A 
HETATM   18  C   UNL     1      28.553  50.718  39.878  1.00  0.00     0.009 A 
HETATM   19  C   UNL     1      28.090  51.987  39.515  1.00  0.00     0.001 A 
HETATM   20  C   UNL     1      28.606  52.628  38.393  1.00  0.00     0.000 A 
HETATM   21  C   UNL     1      29.589  52.006  37.632  1.00  0.00     0.001 A 
HETATM   22  C   UNL     1      30.060  50.742  37.996  1.00  0.00     0.009 A 
ENDBRANCH   7  17
ENDBRANCH   6   7
ENDBRANCH   3   6
BRANCH   2  23
HETATM   23  C   UNL     1      32.235  51.067  41.175  1.00  0.00     0.043 A 
HETATM   24  C   UNL     1      31.373  51.558  42.167  1.00  0.00     0.033 A 
HETATM   25  C   UNL     1      30.836  52.842  42.047  1.00  0.00     0.044 A 
HETATM   26  C   UNL     1      31.162  53.625  40.945  1.00  0.00     0.116 A 
HETATM   27  F   UNL     1      30.639  54.851  40.831  1.00  0.00    -0.206 F 
HETATM   28  C   UNL     1      32.023  53.154  39.963  1.00  0.00     0.044 A 
HETATM   29  C   UNL     1      32.567  51.872  40.074  1.00  0.00     0.033 A 
ENDBRANCH   2  23
BRANCH   1  30
HETATM   30  C   UNL     1      35.251  50.321  41.670  1.00  0.00     0.255 C 
HETATM   31  C   UNL     1      34.945  51.308  42.798  1.00  0.00     0.049 C 
BRANCH  30  32
HETATM   32  N   UNL     1      35.710  51.112  40.422  1.00  0.00    -0.060 N 
HETATM   33  H   UNL     1      34.902  51.115  39.788  1.00  0.00     0.280 HD
HETATM   34  C   UNL     1      36.010  52.560  40.752  1.00  0.00     0.236 C 
HETATM   35  C   UNL     1      36.201  53.345  39.461  1.00  0.00     0.028 C 
HETATM   36  C   UNL     1      37.287  52.736  38.582  1.00  0.00     0.003 C 
HETATM   37  C   UNL     1      37.033  51.254  38.332  1.00  0.00     0.028 C 
HETATM   38  C   UNL     1      36.861  50.492  39.642  1.00  0.00     0.236 C 
ENDBRANCH  30  32
ENDBRANCH   1  30
TORSDOF 7
ENDMDL
MODEL 9
REMARK VINA RESULT:      -7.6      3.931      6.289
REMARK  7 active torsions:
REMARK  status: ('A' for Active; 'I' for Inactive)
REMARK    1  A    between atoms: C_2  and  N_3 
REMARK    2  A    between atoms: C_2  and  C_10 
REMARK    3  A    between atoms: N_11  and  C_12 
REMARK    4  A    between atoms: C_19  and  S_20 
REMARK    5  A    between atoms: S_20  and  C_21 
REMARK    6  A    between atoms: C_21  and  C_22 
REMARK    7  A    between atoms: C_21  and  C_28 
REMARK       I    between atoms: C_22  and  N_23 
REMARK       I    between atoms: N_23  and  C_24 
REMARK       I    between atoms: C_24  and  N_25 
ROOT
HETATM    1  C   UNL     1      24.909  41.768  47.763  1.00  0.00     0.166 A 
HETATM    2  N   UNL     1      25.685  41.538  48.898  1.00  0.00    -0.274 N 
HETATM    3  C   UNL     1      25.178  42.423  49.831  1.00  0.00     0.197 A 
HETATM    4  N   UNL     1      24.225  43.150  49.296  1.00  0.00    -0.122 NA
HETATM    5  N   UNL     1      24.080  42.766  47.999  1.00  0.00    -0.131 NA
ENDROOT
BRANCH   3   6
HETATM    6  S   UNL     1      25.741  42.650  51.450  1.00  0.00    -0.070 SA
BRANCH   6   7
HETATM    7  C   UNL     1      27.333  43.515  51.186  1.00  0.00     0.180 C 
BRANCH   7   8
HETATM    8  C   UNL     1      27.090  44.922  50.619  1.00  0.00     0.244 C 
HETATM    9  N   UNL     1      26.205  45.702  51.348  1.00  0.00    -0.278 N 
HETATM   10  C   UNL     1      25.819  46.991  51.122  1.00  0.00     0.320 C 
HETATM   11  H   UNL     1      25.738  45.296  52.146  1.00  0.00     0.173 HD
HETATM   12  N   UNL     1      26.449  47.658  50.134  1.00  0.00    -0.352 N 
HETATM   13  O   UNL     1      24.951  47.521  51.805  1.00  0.00    -0.247 OA
HETATM   14  H   UNL     1      26.970  47.139  49.436  1.00  0.00     0.160 HD
HETATM   15  H   UNL     1      26.107  48.579  49.898  1.00  0.00     0.160 HD
HETATM   16  O   UNL     1      27.632  45.279  49.569  1.00  0.00    -0.271 OA
ENDBRANCH   7   8
BRANCH   7  17
HETATM   17  C   UNL     1      28.272  43.545  52.390  1.00  0.00    -0.035 A 
HETATM   18  C   UNL     1      29.515  42.890  52.440  1.00  0.00     0.009 A 
HETATM   19  C   UNL     1      30.306  42.937  53.593  1.00  0.00     0.001 A 
HETATM   20  C   UNL     1      29.867  43.628  54.718  1.00  0.00     0.000 A 
HETATM   21  C   UNL     1      28.638  44.278  54.694  1.00  0.00     0.001 A 
HETATM   22  C   UNL     1      27.849  44.241  53.541  1.00  0.00     0.009 A 
ENDBRANCH   7  17
ENDBRANCH   6   7
ENDBRANCH   3   6
BRANCH   2  23
HETATM   23  C   UNL     1      26.702  40.561  49.053  1.00  0.00     0.043 A 
HETATM   24  C   UNL     1      28.025  40.869  48.697  1.00  0.00     0.033 A 
HETATM   25  C   UNL     1      29.022  39.899  48.825  1.00  0.00     0.044 A 
HETATM   26  C   UNL     1      28.697  38.636  49.306  1.00  0.00     0.116 A 
HETATM   27  F   UNL     1      29.655  37.709  49.419  1.00  0.00    -0.206 F 
HETATM   28  C   UNL     1      27.394  38.323  49.671  1.00  0.00     0.044 A 
HETATM   29  C   UNL     1      26.389  39.287  49.549  1.00  0.00     0.033 A 
ENDBRANCH   2  23
BRANCH   1  30
HETATM   30  C   UNL     1      24.862  40.922  46.526  1.00  0.00     0.255 C 
HETATM   31  C   UNL     1      23.942  39.713  46.711  1.00  0.00     0.049 C 
BRANCH  30  32
HETATM   32  N   UNL     1      26.245  40.430  46.035  1.00  0.00    -0.060 N 
HETATM   33  H   UNL     1      26.899  40.654  46.794  1.00  0.00     0.280 HD
HETATM   34  C   UNL     1      26.277  38.925  45.861  1.00  0.00     0.236 C 
HETATM   35  C   UNL     1      27.714  38.472  45.633  1.00  0.00     0.028 C 
HETATM   36  C   UNL     1      28.352  39.185  44.447  1.00  0.00     0.003 C 
HETATM   37  C   UNL     1      28.230  40.700  44.579  1.00  0.00     0.028 C 
HETATM   38  C   UNL     1      26.781  41.124  44.791  1.00  0.00     0.236 C 
ENDBRANCH  30  32
ENDBRANCH   1  30
TORSDOF 7
ENDMDL
MODEL 10
REMARK VINA RESULT:      -7.4     12.250     15.171
REMARK  7 active torsions:
REMARK  status: ('A' for Active; 'I' for Inactive)
REMARK    1  A    between atoms: C_2  and  N_3 
REMARK    2  A    between atoms: C_2  and  C_10 
REMARK    3  A    between atoms: N_11  and  C_12 
REMARK    4  A    between atoms: C_19  and  S_20 
REMARK    5  A    between atoms: S_20  and  C_21 
REMARK    6  A    between atoms: C_21  and  C_22 
REMARK    7  A    between atoms: C_21  and  C_28 
REMARK       I    between atoms: C_22  and  N_23 
REMARK       I    between atoms: N_23  and  C_24 
REMARK       I    between atoms: C_24  and  N_25 
ROOT
HETATM    1  C   UNL     1      32.739  48.706  40.929  1.00  0.00     0.166 A 
HETATM    2  N   UNL     1      31.570  48.783  40.173  1.00  0.00    -0.274 N 
HETATM    3  C   UNL     1      31.151  47.468  40.077  1.00  0.00     0.197 A 
HETATM    4  N   UNL     1      32.010  46.674  40.672  1.00  0.00    -0.122 NA
HETATM    5  N   UNL     1      33.017  47.441  41.173  1.00  0.00    -0.131 NA
ENDROOT
BRANCH   3   6
HETATM    6  S   UNL     1      29.761  46.890  39.230  1.00  0.00    -0.070 SA
BRANCH   6   7
HETATM    7  C   UNL     1      28.460  46.978  40.517  1.00  0.00     0.180 C 
BRANCH   7   8
HETATM    8  C   UNL     1      27.633  48.262  40.354  1.00  0.00     0.244 C 
HETATM    9  N   UNL     1      27.468  48.690  39.046  1.00  0.00    -0.278 N 
HETATM   10  C   UNL     1      26.762  49.761  38.581  1.00  0.00     0.320 C 
HETATM   11  H   UNL     1      27.936  48.188  38.304  1.00  0.00     0.173 HD
HETATM   12  N   UNL     1      26.025  50.448  39.478  1.00  0.00    -0.352 N 
HETATM   13  O   UNL     1      26.785  50.070  37.396  1.00  0.00    -0.247 OA
HETATM   14  H   UNL     1      26.213  50.335  40.468  1.00  0.00     0.160 HD
HETATM   15  H   UNL     1      25.574  51.295  39.163  1.00  0.00     0.160 HD
HETATM   16  O   UNL     1      27.197  48.859  41.342  1.00  0.00    -0.271 OA
ENDBRANCH   7   8
BRANCH   7  17
HETATM   17  C   UNL     1      27.571  45.742  40.638  1.00  0.00    -0.035 A 
HETATM   18  C   UNL     1      27.649  44.626  39.788  1.00  0.00     0.009 A 
HETATM   19  C   UNL     1      26.776  43.544  39.943  1.00  0.00     0.001 A 
HETATM   20  C   UNL     1      25.807  43.561  40.941  1.00  0.00     0.000 A 
HETATM   21  C   UNL     1      25.707  44.658  41.789  1.00  0.00     0.001 A 
HETATM   22  C   UNL     1      26.582  45.737  41.643  1.00  0.00     0.009 A 
ENDBRANCH   7  17
ENDBRANCH   6   7
ENDBRANCH   3   6
BRANCH   2  23
HETATM   23  C   UNL     1      30.940  49.960  39.693  1.00  0.00     0.043 A 
HETATM   24  C   UNL     1      30.077  50.681  40.532  1.00  0.00     0.033 A 
HETATM   25  C   UNL     1      29.436  51.825  40.051  1.00  0.00     0.044 A 
HETATM   26  C   UNL     1      29.660  52.243  38.744  1.00  0.00     0.116 A 
HETATM   27  F   UNL     1      29.037  53.335  38.287  1.00  0.00    -0.206 F 
HETATM   28  C   UNL     1      30.521  51.543  37.908  1.00  0.00     0.044 A 
HETATM   29  C   UNL     1      31.168  50.399  38.380  1.00  0.00     0.033 A 
ENDBRANCH   2  23
BRANCH   1  30
HETATM   30  C   UNL     1      33.484  49.854  41.541  1.00  0.00     0.255 C 
HETATM   31  C   UNL     1      32.629  50.584  42.580  1.00  0.00     0.049 C 
BRANCH  30  32
HETATM   32  N   UNL     1      34.022  50.886  40.520  1.00  0.00    -0.060 N 
HETATM   33  H   UNL     1      33.772  50.512  39.597  1.00  0.00     0.280 HD
HETATM   34  C   UNL     1      33.325  52.225  40.652  1.00  0.00     0.236 C 
HETATM   35  C   UNL     1      33.700  53.110  39.471  1.00  0.00     0.028 C 
HETATM   36  C   UNL     1      35.210  53.276  39.343  1.00  0.00     0.003 C 
HETATM   37  C   UNL     1      35.916  51.925  39.308  1.00  0.00     0.028 C 
HETATM   38  C   UNL     1      35.533  51.068  40.510  1.00  0.00     0.236 C 
ENDBRANCH  30  32
ENDBRANCH   1  30
TORSDOF 7
ENDMDL
