MODEL 1
REMARK VINA RESULT:     -10.3      0.000      0.000
REMARK  6 active torsions:
REMARK  status: ('A' for Active; 'I' for Inactive)
REMARK    1  A    between atoms: C_7  and  C_8 
REMARK    2  A    between atoms: C_12  and  S_13 
REMARK    3  A    between atoms: S_13  and  C_14 
REMARK    4  A    between atoms: C_14  and  C_15 
REMARK       I    between atoms: C_15  and  N_16 
REMARK    5  A    between atoms: N_16  and  C_17 
REMARK    6  A    between atoms: C_25  and  C_26 
REMARK       I    between atoms: C_26  and  N_27 
ROOT
HETATM    1  C   UNL     1      26.241  45.469  50.715  1.00  0.00     0.232 C 
HETATM    2  N   UNL     1      26.136  45.290  52.081  1.00  0.00    -0.320 N 
HETATM    3  O   UNL     1      27.184  45.113  50.009  1.00  0.00    -0.272 OA
HETATM    4  H   UNL     1      25.272  45.610  52.509  1.00  0.00     0.169 HD
ENDROOT
BRANCH   1   5
HETATM    5  C   UNL     1      25.027  46.103  50.035  1.00  0.00     0.185 C 
BRANCH   5   6
HETATM    6  S   UNL     1      25.060  47.912  49.836  1.00  0.00    -0.081 SA
BRANCH   6   7
HETATM    7  C   UNL     1      23.420  48.220  49.420  1.00  0.00     0.185 A 
HETATM    8  N   UNL     1      22.596  47.253  48.948  1.00  0.00    -0.253 N 
HETATM    9  N   UNL     1      21.348  47.722  48.804  1.00  0.00    -0.152 NA
HETATM   10  H   UNL     1      22.802  46.285  48.734  1.00  0.00     0.191 HD
HETATM   11  C   UNL     1      21.476  49.006  49.175  1.00  0.00     0.183 A 
HETATM   12  N   UNL     1      22.759  49.335  49.573  1.00  0.00    -0.201 NA
BRANCH  11  13
HETATM   13  C   UNL     1      20.384  49.976  49.268  1.00  0.00     0.035 A 
HETATM   14  C   UNL     1      19.200  49.774  49.998  1.00  0.00     0.049 A 
HETATM   15  C   UNL     1      18.218  50.775  50.050  1.00  0.00     0.048 A 
HETATM   16 CL   UNL     1      18.820  48.304  50.833  1.00  0.00    -0.083 Cl
HETATM   17  C   UNL     1      18.402  51.974  49.370  1.00  0.00     0.035 A 
HETATM   18  C   UNL     1      19.557  52.190  48.628  1.00  0.00     0.025 A 
HETATM   19 CL   UNL     1      17.191  53.194  49.439  1.00  0.00    -0.084 Cl
HETATM   20  C   UNL     1      20.539  51.197  48.577  1.00  0.00     0.019 A 
ENDBRANCH  11  13
ENDBRANCH   6   7
ENDBRANCH   5   6
ENDBRANCH   1   5
BRANCH   2  21
HETATM   21  C   UNL     1      27.128  44.902  52.971  1.00  0.00     0.093 A 
HETATM   22  S   UNL     1      28.031  43.486  52.717  1.00  0.00    -0.075 SA
HETATM   23  C   UNL     1      29.037  43.801  54.041  1.00  0.00    -0.008 A 
HETATM   24  C   UNL     1      28.706  44.974  54.691  1.00  0.00    -0.026 A 
HETATM   25  C   UNL     1      30.172  42.894  54.406  1.00  0.00     0.047 C 
HETATM   26  C   UNL     1      29.470  45.447  55.898  1.00  0.00     0.041 C 
HETATM   27  C   UNL     1      27.540  45.598  54.103  1.00  0.00     0.072 A 
HETATM   28  C   UNL     1      30.812  44.711  56.057  1.00  0.00     0.005 C 
HETATM   29  C   UNL     1      30.666  43.202  55.827  1.00  0.00     0.005 C 
BRANCH  27  30
HETATM   30  C   UNL     1      26.903  46.813  54.610  1.00  0.00     0.252 C 
HETATM   31  N   UNL     1      27.734  47.890  54.780  1.00  0.00    -0.366 N 
HETATM   32  H   UNL     1      28.583  47.930  54.230  1.00  0.00     0.159 HD
HETATM   33  H   UNL     1      27.246  48.767  54.920  1.00  0.00     0.159 HD
HETATM   34  O   UNL     1      25.702  46.926  54.822  1.00  0.00    -0.268 OA
ENDBRANCH  27  30
ENDBRANCH   2  21
TORSDOF 6
ENDMDL
MODEL 2
REMARK VINA RESULT:     -10.2      2.199      3.246
REMARK  6 active torsions:
REMARK  status: ('A' for Active; 'I' for Inactive)
REMARK    1  A    between atoms: C_7  and  C_8 
REMARK    2  A    between atoms: C_12  and  S_13 
REMARK    3  A    between atoms: S_13  and  C_14 
REMARK    4  A    between atoms: C_14  and  C_15 
REMARK       I    between atoms: C_15  and  N_16 
REMARK    5  A    between atoms: N_16  and  C_17 
REMARK    6  A    between atoms: C_25  and  C_26 
REMARK       I    between atoms: C_26  and  N_27 
ROOT
HETATM    1  C   UNL     1      25.889  44.904  53.447  1.00  0.00     0.232 C 
HETATM    2  N   UNL     1      27.085  45.584  53.574  1.00  0.00    -0.320 N 
HETATM    3  O   UNL     1      25.439  44.076  54.240  1.00  0.00    -0.272 OA
HETATM    4  H   UNL     1      27.293  46.262  52.847  1.00  0.00     0.169 HD
ENDROOT
BRANCH   1   5
HETATM    5  C   UNL     1      25.035  45.286  52.239  1.00  0.00     0.185 C 
BRANCH   5   6
HETATM    6  S   UNL     1      25.887  46.143  50.878  1.00  0.00    -0.081 SA
BRANCH   6   7
HETATM    7  C   UNL     1      24.547  46.756  49.993  1.00  0.00     0.185 A 
HETATM    8  N   UNL     1      23.758  45.963  49.226  1.00  0.00    -0.253 N 
HETATM    9  N   UNL     1      22.724  46.659  48.731  1.00  0.00    -0.152 NA
HETATM   10  H   UNL     1      23.847  44.975  49.025  1.00  0.00     0.191 HD
HETATM   11  C   UNL     1      22.952  47.894  49.205  1.00  0.00     0.183 A 
HETATM   12  N   UNL     1      24.079  47.974  50.004  1.00  0.00    -0.201 NA
BRANCH  11  13
HETATM   13  C   UNL     1      22.077  49.051  49.016  1.00  0.00     0.035 A 
HETATM   14  C   UNL     1      22.481  50.269  48.442  1.00  0.00     0.049 A 
HETATM   15  C   UNL     1      21.562  51.317  48.276  1.00  0.00     0.048 A 
HETATM   16 CL   UNL     1      24.106  50.611  47.947  1.00  0.00    -0.083 Cl
HETATM   17  C   UNL     1      20.242  51.163  48.690  1.00  0.00     0.035 A 
HETATM   18  C   UNL     1      19.824  49.975  49.275  1.00  0.00     0.025 A 
HETATM   19 CL   UNL     1      19.125  52.455  48.484  1.00  0.00    -0.084 Cl
HETATM   20  C   UNL     1      20.736  48.928  49.437  1.00  0.00     0.019 A 
ENDBRANCH  11  13
ENDBRANCH   6   7
ENDBRANCH   5   6
ENDBRANCH   1   5
BRANCH   2  21
HETATM   21  C   UNL     1      28.123  45.330  54.461  1.00  0.00     0.093 A 
HETATM   22  S   UNL     1      28.392  46.330  55.807  1.00  0.00    -0.075 SA
HETATM   23  C   UNL     1      29.623  45.329  56.398  1.00  0.00    -0.008 A 
HETATM   24  C   UNL     1      29.846  44.232  55.591  1.00  0.00    -0.026 A 
HETATM   25  C   UNL     1      30.336  45.626  57.681  1.00  0.00     0.047 C 
HETATM   26  C   UNL     1      30.899  43.210  55.927  1.00  0.00     0.041 C 
HETATM   27  C   UNL     1      29.008  44.258  54.411  1.00  0.00     0.072 A 
HETATM   28  C   UNL     1      31.379  43.333  57.383  1.00  0.00     0.005 C 
HETATM   29  C   UNL     1      31.622  44.793  57.783  1.00  0.00     0.005 C 
BRANCH  27  30
HETATM   30  C   UNL     1      29.061  43.273  53.331  1.00  0.00     0.252 C 
HETATM   31  N   UNL     1      28.104  42.293  53.377  1.00  0.00    -0.366 N 
HETATM   32  H   UNL     1      27.240  42.490  53.869  1.00  0.00     0.159 HD
HETATM   33  H   UNL     1      28.022  41.759  52.520  1.00  0.00     0.159 HD
HETATM   34  O   UNL     1      29.850  43.317  52.395  1.00  0.00    -0.268 OA
ENDBRANCH  27  30
ENDBRANCH   2  21
TORSDOF 6
ENDMDL
MODEL 3
REMARK VINA RESULT:     -10.2      1.601      1.979
REMARK  6 active torsions:
REMARK  status: ('A' for Active; 'I' for Inactive)
REMARK    1  A    between atoms: C_7  and  C_8 
REMARK    2  A    between atoms: C_12  and  S_13 
REMARK    3  A    between atoms: S_13  and  C_14 
REMARK    4  A    between atoms: C_14  and  C_15 
REMARK       I    between atoms: C_15  and  N_16 
REMARK    5  A    between atoms: N_16  and  C_17 
REMARK    6  A    between atoms: C_25  and  C_26 
REMARK       I    between atoms: C_26  and  N_27 
ROOT
HETATM    1  C   UNL     1      25.207  44.560  52.477  1.00  0.00     0.232 C 
HETATM    2  N   UNL     1      26.540  44.919  52.446  1.00  0.00    -0.320 N 
HETATM    3  O   UNL     1      24.586  44.164  53.464  1.00  0.00    -0.272 OA
HETATM    4  H   UNL     1      26.891  45.261  51.557  1.00  0.00     0.169 HD
ENDROOT
BRANCH   1   5
HETATM    5  C   UNL     1      24.439  44.752  51.170  1.00  0.00     0.185 C 
BRANCH   5   6
HETATM    6  S   UNL     1      25.178  45.882  49.950  1.00  0.00    -0.081 SA
BRANCH   6   7
HETATM    7  C   UNL     1      23.770  46.641  49.319  1.00  0.00     0.185 A 
HETATM    8  N   UNL     1      22.874  45.981  48.545  1.00  0.00    -0.253 N 
HETATM    9  N   UNL     1      21.816  46.760  48.274  1.00  0.00    -0.152 NA
HETATM   10  H   UNL     1      22.904  45.029  48.201  1.00  0.00     0.191 HD
HETATM   11  C   UNL     1      22.140  47.911  48.885  1.00  0.00     0.183 A 
HETATM   12  N   UNL     1      23.351  47.855  49.552  1.00  0.00    -0.201 NA
BRANCH  11  13
HETATM   13  C   UNL     1      21.292  49.101  48.959  1.00  0.00     0.035 A 
HETATM   14  C   UNL     1      21.651  50.367  48.468  1.00  0.00     0.049 A 
HETATM   15  C   UNL     1      20.758  51.446  48.560  1.00  0.00     0.048 A 
HETATM   16 CL   UNL     1      23.196  50.729  47.771  1.00  0.00    -0.083 Cl
HETATM   17  C   UNL     1      19.511  51.275  49.151  1.00  0.00     0.035 A 
HETATM   18  C   UNL     1      19.139  50.036  49.660  1.00  0.00     0.025 A 
HETATM   19 CL   UNL     1      18.425  52.604  49.262  1.00  0.00    -0.084 Cl
HETATM   20  C   UNL     1      20.024  48.959  49.565  1.00  0.00     0.019 A 
ENDBRANCH  11  13
ENDBRANCH   6   7
ENDBRANCH   5   6
ENDBRANCH   1   5
BRANCH   2  21
HETATM   21  C   UNL     1      27.507  44.699  53.417  1.00  0.00     0.093 A 
HETATM   22  S   UNL     1      28.488  43.312  53.382  1.00  0.00    -0.075 SA
HETATM   23  C   UNL     1      29.416  43.844  54.695  1.00  0.00    -0.008 A 
HETATM   24  C   UNL     1      28.999  45.069  55.176  1.00  0.00    -0.026 A 
HETATM   25  C   UNL     1      30.574  43.052  55.217  1.00  0.00     0.047 C 
HETATM   26  C   UNL     1      29.682  45.728  56.343  1.00  0.00     0.041 C 
HETATM   27  C   UNL     1      27.833  45.552  54.468  1.00  0.00     0.072 A 
HETATM   28  C   UNL     1      31.049  45.092  56.648  1.00  0.00     0.005 C 
HETATM   29  C   UNL     1      30.987  43.560  56.606  1.00  0.00     0.005 C 
BRANCH  27  30
HETATM   30  C   UNL     1      27.115  46.784  54.791  1.00  0.00     0.252 C 
HETATM   31  N   UNL     1      27.863  47.932  54.751  1.00  0.00    -0.366 N 
HETATM   32  H   UNL     1      28.694  47.942  54.171  1.00  0.00     0.159 HD
HETATM   33  H   UNL     1      27.312  48.782  54.762  1.00  0.00     0.159 HD
HETATM   34  O   UNL     1      25.914  46.843  55.025  1.00  0.00    -0.268 OA
ENDBRANCH  27  30
ENDBRANCH   2  21
TORSDOF 6
ENDMDL
MODEL 4
REMARK VINA RESULT:     -10.0      2.087      3.094
REMARK  6 active torsions:
REMARK  status: ('A' for Active; 'I' for Inactive)
REMARK    1  A    between atoms: C_7  and  C_8 
REMARK    2  A    between atoms: C_12  and  S_13 
REMARK    3  A    between atoms: S_13  and  C_14 
REMARK    4  A    between atoms: C_14  and  C_15 
REMARK       I    between atoms: C_15  and  N_16 
REMARK    5  A    between atoms: N_16  and  C_17 
REMARK    6  A    between atoms: C_25  and  C_26 
REMARK       I    between atoms: C_26  and  N_27 
ROOT
HETATM    1  C   UNL     1      25.754  44.301  51.127  1.00  0.00     0.232 C 
HETATM    2  N   UNL     1      25.921  43.958  52.455  1.00  0.00    -0.320 N 
HETATM    3  O   UNL     1      26.651  44.598  50.338  1.00  0.00    -0.272 OA
HETATM    4  H   UNL     1      25.078  43.705  52.961  1.00  0.00     0.169 HD
ENDROOT
BRANCH   1   5
HETATM    5  C   UNL     1      24.321  44.227  50.600  1.00  0.00     0.185 C 
BRANCH   5   6
HETATM    6  S   UNL     1      24.041  44.851  48.913  1.00  0.00    -0.081 SA
BRANCH   6   7
HETATM    7  C   UNL     1      23.587  46.476  49.241  1.00  0.00     0.185 A 
HETATM    8  N   UNL     1      24.448  47.378  49.774  1.00  0.00    -0.253 N 
HETATM    9  N   UNL     1      23.887  48.595  49.830  1.00  0.00    -0.152 NA
HETATM   10  H   UNL     1      25.403  47.245  50.084  1.00  0.00     0.191 HD
HETATM   11  C   UNL     1      22.656  48.369  49.345  1.00  0.00     0.183 A 
HETATM   12  N   UNL     1      22.451  47.055  48.962  1.00  0.00    -0.201 NA
BRANCH  11  13
HETATM   13  C   UNL     1      21.630  49.388  49.124  1.00  0.00     0.035 A 
HETATM   14  C   UNL     1      21.862  50.633  48.515  1.00  0.00     0.049 A 
HETATM   15  C   UNL     1      20.808  51.538  48.321  1.00  0.00     0.048 A 
HETATM   16 CL   UNL     1      23.425  51.182  48.008  1.00  0.00    -0.083 Cl
HETATM   17  C   UNL     1      19.521  51.216  48.741  1.00  0.00     0.035 A 
HETATM   18  C   UNL     1      19.270  49.998  49.361  1.00  0.00     0.025 A 
HETATM   19 CL   UNL     1      18.236  52.334  48.501  1.00  0.00    -0.084 Cl
HETATM   20  C   UNL     1      20.317  49.092  49.551  1.00  0.00     0.019 A 
ENDBRANCH  11  13
ENDBRANCH   6   7
ENDBRANCH   5   6
ENDBRANCH   1   5
BRANCH   2  21
HETATM   21  C   UNL     1      27.061  44.094  53.236  1.00  0.00     0.093 A 
HETATM   22  S   UNL     1      27.327  45.492  54.165  1.00  0.00    -0.075 SA
HETATM   23  C   UNL     1      28.723  44.845  54.872  1.00  0.00    -0.008 A 
HETATM   24  C   UNL     1      29.006  43.573  54.418  1.00  0.00    -0.026 A 
HETATM   25  C   UNL     1      29.510  45.598  55.900  1.00  0.00     0.047 C 
HETATM   26  C   UNL     1      30.205  42.810  54.914  1.00  0.00     0.041 C 
HETATM   27  C   UNL     1      28.064  43.146  53.405  1.00  0.00     0.072 A 
HETATM   28  C   UNL     1      30.799  43.433  56.189  1.00  0.00     0.005 C 
HETATM   29  C   UNL     1      30.894  44.960  56.087  1.00  0.00     0.005 C 
BRANCH  27  30
HETATM   30  C   UNL     1      28.140  41.877  52.682  1.00  0.00     0.252 C 
HETATM   31  N   UNL     1      27.787  40.765  53.401  1.00  0.00    -0.366 N 
HETATM   32  H   UNL     1      27.168  40.884  54.194  1.00  0.00     0.159 HD
HETATM   33  H   UNL     1      27.638  39.939  52.833  1.00  0.00     0.159 HD
HETATM   34  O   UNL     1      28.431  41.774  51.496  1.00  0.00    -0.268 OA
ENDBRANCH  27  30
ENDBRANCH   2  21
TORSDOF 6
ENDMDL
MODEL 5
REMARK VINA RESULT:      -9.9      3.867     10.937
REMARK  6 active torsions:
REMARK  status: ('A' for Active; 'I' for Inactive)
REMARK    1  A    between atoms: C_7  and  C_8 
REMARK    2  A    between atoms: C_12  and  S_13 
REMARK    3  A    between atoms: S_13  and  C_14 
REMARK    4  A    between atoms: C_14  and  C_15 
REMARK       I    between atoms: C_15  and  N_16 
REMARK    5  A    between atoms: N_16  and  C_17 
REMARK    6  A    between atoms: C_25  and  C_26 
REMARK       I    between atoms: C_26  and  N_27 
ROOT
HETATM    1  C   UNL     1      24.226  48.673  49.299  1.00  0.00     0.232 C 
HETATM    2  N   UNL     1      22.916  48.636  49.736  1.00  0.00    -0.320 N 
HETATM    3  O   UNL     1      24.695  49.466  48.482  1.00  0.00    -0.272 OA
HETATM    4  H   UNL     1      22.700  47.939  50.442  1.00  0.00     0.169 HD
ENDROOT
BRANCH   1   5
HETATM    5  C   UNL     1      25.173  47.671  49.960  1.00  0.00     0.185 C 
BRANCH   5   6
HETATM    6  S   UNL     1      24.727  45.913  49.817  1.00  0.00    -0.081 SA
BRANCH   6   7
HETATM    7  C   UNL     1      25.302  45.311  51.321  1.00  0.00     0.185 A 
HETATM    8  N   UNL     1      24.516  44.602  52.169  1.00  0.00    -0.253 N 
HETATM    9  N   UNL     1      25.226  44.157  53.216  1.00  0.00    -0.152 NA
HETATM   10  H   UNL     1      23.533  44.370  52.087  1.00  0.00     0.191 HD
HETATM   11  C   UNL     1      26.448  44.658  52.971  1.00  0.00     0.183 A 
HETATM   12  N   UNL     1      26.519  45.373  51.788  1.00  0.00    -0.201 NA
BRANCH  11  13
HETATM   13  C   UNL     1      27.642  44.419  53.781  1.00  0.00     0.035 A 
HETATM   14  C   UNL     1      28.234  45.372  54.627  1.00  0.00     0.049 A 
HETATM   15  C   UNL     1      29.366  45.042  55.389  1.00  0.00     0.048 A 
HETATM   16 CL   UNL     1      27.683  47.009  54.772  1.00  0.00    -0.083 Cl
HETATM   17  C   UNL     1      29.920  43.769  55.305  1.00  0.00     0.035 A 
HETATM   18  C   UNL     1      29.362  42.815  54.464  1.00  0.00     0.025 A 
HETATM   19 CL   UNL     1      31.308  43.376  56.241  1.00  0.00    -0.084 Cl
HETATM   20  C   UNL     1      28.232  43.139  53.707  1.00  0.00     0.019 A 
ENDBRANCH  11  13
ENDBRANCH   6   7
ENDBRANCH   5   6
ENDBRANCH   1   5
BRANCH   2  21
HETATM   21  C   UNL     1      21.819  49.299  49.203  1.00  0.00     0.093 A 
HETATM   22  S   UNL     1      21.368  50.840  49.759  1.00  0.00    -0.075 SA
HETATM   23  C   UNL     1      20.151  50.987  48.592  1.00  0.00    -0.008 A 
HETATM   24  C   UNL     1      20.068  49.880  47.771  1.00  0.00    -0.026 A 
HETATM   25  C   UNL     1      19.307  52.219  48.481  1.00  0.00     0.047 C 
HETATM   26  C   UNL     1      19.051  49.797  46.664  1.00  0.00     0.041 C 
HETATM   27  C   UNL     1      21.007  48.852  48.165  1.00  0.00     0.072 A 
HETATM   28  C   UNL     1      18.434  51.168  46.343  1.00  0.00     0.005 C 
HETATM   29  C   UNL     1      18.069  51.942  47.616  1.00  0.00     0.005 C 
BRANCH  27  30
HETATM   30  C   UNL     1      21.111  47.535  47.536  1.00  0.00     0.252 C 
HETATM   31  N   UNL     1      20.023  46.717  47.695  1.00  0.00    -0.366 N 
HETATM   32  H   UNL     1      19.123  47.146  47.873  1.00  0.00     0.159 HD
HETATM   33  H   UNL     1      20.024  45.911  47.081  1.00  0.00     0.159 HD
HETATM   34  O   UNL     1      22.060  47.170  46.853  1.00  0.00    -0.268 OA
ENDBRANCH  27  30
ENDBRANCH   2  21
TORSDOF 6
ENDMDL
MODEL 6
REMARK VINA RESULT:      -9.8      3.369      4.300
REMARK  6 active torsions:
REMARK  status: ('A' for Active; 'I' for Inactive)
REMARK    1  A    between atoms: C_7  and  C_8 
REMARK    2  A    between atoms: C_12  and  S_13 
REMARK    3  A    between atoms: S_13  and  C_14 
REMARK    4  A    between atoms: C_14  and  C_15 
REMARK       I    between atoms: C_15  and  N_16 
REMARK    5  A    between atoms: N_16  and  C_17 
REMARK    6  A    between atoms: C_25  and  C_26 
REMARK       I    between atoms: C_26  and  N_27 
ROOT
HETATM    1  C   UNL     1      26.931  41.799  51.135  1.00  0.00     0.232 C 
HETATM    2  N   UNL     1      26.836  41.831  52.513  1.00  0.00    -0.320 N 
HETATM    3  O   UNL     1      27.841  42.282  50.461  1.00  0.00    -0.272 OA
HETATM    4  H   UNL     1      26.037  41.352  52.917  1.00  0.00     0.169 HD
ENDROOT
BRANCH   1   5
HETATM    5  C   UNL     1      25.829  41.024  50.414  1.00  0.00     0.185 C 
BRANCH   5   6
HETATM    6  S   UNL     1      25.253  41.712  48.830  1.00  0.00    -0.081 SA
BRANCH   6   7
HETATM    7  C   UNL     1      24.557  43.193  49.355  1.00  0.00     0.185 A 
HETATM    8  N   UNL     1      23.996  43.338  50.581  1.00  0.00    -0.253 N 
HETATM    9  N   UNL     1      23.626  44.611  50.786  1.00  0.00    -0.152 NA
HETATM   10  H   UNL     1      23.862  42.648  51.309  1.00  0.00     0.191 HD
HETATM   11  C   UNL     1      23.957  45.200  49.625  1.00  0.00     0.183 A 
HETATM   12  N   UNL     1      24.549  44.335  48.723  1.00  0.00    -0.201 NA
BRANCH  11  13
HETATM   13  C   UNL     1      23.825  46.626  49.329  1.00  0.00     0.035 A 
HETATM   14  C   UNL     1      24.839  47.579  49.528  1.00  0.00     0.049 A 
HETATM   15  C   UNL     1      24.629  48.924  49.189  1.00  0.00     0.048 A 
HETATM   16 CL   UNL     1      26.378  47.215  50.238  1.00  0.00    -0.083 Cl
HETATM   17  C   UNL     1      23.407  49.330  48.660  1.00  0.00     0.035 A 
HETATM   18  C   UNL     1      22.384  48.411  48.469  1.00  0.00     0.025 A 
HETATM   19 CL   UNL     1      23.160  50.982  48.249  1.00  0.00    -0.084 Cl
HETATM   20  C   UNL     1      22.592  47.069  48.802  1.00  0.00     0.019 A 
ENDBRANCH  11  13
ENDBRANCH   6   7
ENDBRANCH   5   6
ENDBRANCH   1   5
BRANCH   2  21
HETATM   21  C   UNL     1      27.584  42.588  53.404  1.00  0.00     0.093 A 
HETATM   22  S   UNL     1      29.175  42.150  53.808  1.00  0.00    -0.075 SA
HETATM   23  C   UNL     1      29.404  43.550  54.733  1.00  0.00    -0.008 A 
HETATM   24  C   UNL     1      28.288  44.362  54.751  1.00  0.00    -0.026 A 
HETATM   25  C   UNL     1      30.707  43.845  55.410  1.00  0.00     0.047 C 
HETATM   26  C   UNL     1      28.271  45.658  55.515  1.00  0.00     0.041 C 
HETATM   27  C   UNL     1      27.188  43.771  54.020  1.00  0.00     0.072 A 
HETATM   28  C   UNL     1      29.685  46.112  55.914  1.00  0.00     0.005 C 
HETATM   29  C   UNL     1      30.525  44.951  56.461  1.00  0.00     0.005 C 
BRANCH  27  30
HETATM   30  C   UNL     1      25.850  44.355  53.915  1.00  0.00     0.252 C 
HETATM   31  N   UNL     1      25.705  45.334  52.966  1.00  0.00    -0.366 N 
HETATM   32  H   UNL     1      26.345  45.337  52.181  1.00  0.00     0.159 HD
HETATM   33  H   UNL     1      24.741  45.567  52.761  1.00  0.00     0.159 HD
HETATM   34  O   UNL     1      24.882  43.983  54.566  1.00  0.00    -0.268 OA
ENDBRANCH  27  30
ENDBRANCH   2  21
TORSDOF 6
ENDMDL
MODEL 7
REMARK VINA RESULT:      -9.7      4.325     10.756
REMARK  6 active torsions:
REMARK  status: ('A' for Active; 'I' for Inactive)
REMARK    1  A    between atoms: C_7  and  C_8 
REMARK    2  A    between atoms: C_12  and  S_13 
REMARK    3  A    between atoms: S_13  and  C_14 
REMARK    4  A    between atoms: C_14  and  C_15 
REMARK       I    between atoms: C_15  and  N_16 
REMARK    5  A    between atoms: N_16  and  C_17 
REMARK    6  A    between atoms: C_25  and  C_26 
REMARK       I    between atoms: C_26  and  N_27 
ROOT
HETATM    1  C   UNL     1      22.396  46.186  48.713  1.00  0.00     0.232 C 
HETATM    2  N   UNL     1      22.255  47.432  49.292  1.00  0.00    -0.320 N 
HETATM    3  O   UNL     1      21.802  45.781  47.714  1.00  0.00    -0.272 OA
HETATM    4  H   UNL     1      22.848  47.622  50.094  1.00  0.00     0.169 HD
ENDROOT
BRANCH   1   5
HETATM    5  C   UNL     1      23.446  45.275  49.348  1.00  0.00     0.185 C 
BRANCH   5   6
HETATM    6  S   UNL     1      25.132  45.948  49.486  1.00  0.00    -0.081 SA
BRANCH   6   7
HETATM    7  C   UNL     1      25.580  45.379  51.045  1.00  0.00     0.185 A 
HETATM    8  N   UNL     1      24.671  44.926  51.942  1.00  0.00    -0.253 N 
HETATM    9  N   UNL     1      25.282  44.441  53.033  1.00  0.00    -0.152 NA
HETATM   10  H   UNL     1      23.661  44.893  51.870  1.00  0.00     0.191 HD
HETATM   11  C   UNL     1      26.579  44.657  52.760  1.00  0.00     0.183 A 
HETATM   12  N   UNL     1      26.787  45.232  51.519  1.00  0.00    -0.201 NA
BRANCH  11  13
HETATM   13  C   UNL     1      27.703  44.252  53.603  1.00  0.00     0.035 A 
HETATM   14  C   UNL     1      28.309  42.984  53.568  1.00  0.00     0.049 A 
HETATM   15  C   UNL     1      29.403  42.695  54.398  1.00  0.00     0.048 A 
HETATM   16 CL   UNL     1      27.756  41.678  52.572  1.00  0.00    -0.083 Cl
HETATM   17  C   UNL     1      29.892  43.658  55.274  1.00  0.00     0.035 A 
HETATM   18  C   UNL     1      29.299  44.913  55.339  1.00  0.00     0.025 A 
HETATM   19 CL   UNL     1      31.232  43.293  56.288  1.00  0.00    -0.084 Cl
HETATM   20  C   UNL     1      28.213  45.206  54.510  1.00  0.00     0.019 A 
ENDBRANCH  11  13
ENDBRANCH   6   7
ENDBRANCH   5   6
ENDBRANCH   1   5
BRANCH   2  21
HETATM   21  C   UNL     1      21.280  48.386  49.039  1.00  0.00     0.093 A 
HETATM   22  S   UNL     1      19.633  48.044  49.276  1.00  0.00    -0.075 SA
HETATM   23  C   UNL     1      19.175  49.636  48.928  1.00  0.00    -0.008 A 
HETATM   24  C   UNL     1      20.254  50.444  48.629  1.00  0.00    -0.026 A 
HETATM   25  C   UNL     1      17.745  50.079  48.987  1.00  0.00     0.047 C 
HETATM   26  C   UNL     1      20.075  51.899  48.286  1.00  0.00     0.041 C 
HETATM   27  C   UNL     1      21.494  49.699  48.631  1.00  0.00     0.072 A 
HETATM   28  C   UNL     1      18.680  52.417  48.673  1.00  0.00     0.005 C 
HETATM   29  C   UNL     1      17.574  51.430  48.277  1.00  0.00     0.005 C 
BRANCH  27  30
HETATM   30  C   UNL     1      22.801  50.258  48.283  1.00  0.00     0.252 C 
HETATM   31  N   UNL     1      23.361  51.082  49.225  1.00  0.00    -0.366 N 
HETATM   32  H   UNL     1      23.076  50.968  50.190  1.00  0.00     0.159 HD
HETATM   33  H   UNL     1      24.342  51.280  49.066  1.00  0.00     0.159 HD
HETATM   34  O   UNL     1      23.418  49.987  47.260  1.00  0.00    -0.268 OA
ENDBRANCH  27  30
ENDBRANCH   2  21
TORSDOF 6
ENDMDL
MODEL 8
REMARK VINA RESULT:      -9.6      3.949      9.780
REMARK  6 active torsions:
REMARK  status: ('A' for Active; 'I' for Inactive)
REMARK    1  A    between atoms: C_7  and  C_8 
REMARK    2  A    between atoms: C_12  and  S_13 
REMARK    3  A    between atoms: S_13  and  C_14 
REMARK    4  A    between atoms: C_14  and  C_15 
REMARK       I    between atoms: C_15  and  N_16 
REMARK    5  A    between atoms: N_16  and  C_17 
REMARK    6  A    between atoms: C_25  and  C_26 
REMARK       I    between atoms: C_26  and  N_27 
ROOT
HETATM    1  C   UNL     1      22.830  43.854  49.797  1.00  0.00     0.232 C 
HETATM    2  N   UNL     1      23.286  44.769  48.868  1.00  0.00    -0.320 N 
HETATM    3  O   UNL     1      21.826  43.975  50.500  1.00  0.00    -0.272 OA
HETATM    4  H   UNL     1      24.113  44.499  48.343  1.00  0.00     0.169 HD
ENDROOT
BRANCH   1   5
HETATM    5  C   UNL     1      23.623  42.551  49.888  1.00  0.00     0.185 C 
BRANCH   5   6
HETATM    6  S   UNL     1      25.079  42.407  48.805  1.00  0.00    -0.081 SA
BRANCH   6   7
HETATM    7  C   UNL     1      26.264  43.220  49.748  1.00  0.00     0.185 A 
HETATM    8  N   UNL     1      26.635  44.500  49.502  1.00  0.00    -0.253 N 
HETATM    9  N   UNL     1      27.490  44.936  50.439  1.00  0.00    -0.152 NA
HETATM   10  H   UNL     1      26.338  45.121  48.759  1.00  0.00     0.191 HD
HETATM   11  C   UNL     1      27.634  43.856  51.224  1.00  0.00     0.183 A 
HETATM   12  N   UNL     1      26.870  42.777  50.816  1.00  0.00    -0.201 NA
BRANCH  11  13
HETATM   13  C   UNL     1      28.424  43.800  52.454  1.00  0.00     0.035 A 
HETATM   14  C   UNL     1      28.141  44.539  53.615  1.00  0.00     0.049 A 
HETATM   15  C   UNL     1      28.942  44.400  54.760  1.00  0.00     0.048 A 
HETATM   16 CL   UNL     1      26.857  45.697  53.734  1.00  0.00    -0.083 Cl
HETATM   17  C   UNL     1      30.031  43.534  54.752  1.00  0.00     0.035 A 
HETATM   18  C   UNL     1      30.340  42.805  53.610  1.00  0.00     0.025 A 
HETATM   19 CL   UNL     1      31.007  43.372  56.159  1.00  0.00    -0.084 Cl
HETATM   20  C   UNL     1      29.542  42.939  52.470  1.00  0.00     0.019 A 
ENDBRANCH  11  13
ENDBRANCH   6   7
ENDBRANCH   5   6
ENDBRANCH   1   5
BRANCH   2  21
HETATM   21  C   UNL     1      22.874  46.082  48.688  1.00  0.00     0.093 A 
HETATM   22  S   UNL     1      21.532  46.458  47.717  1.00  0.00    -0.075 SA
HETATM   23  C   UNL     1      21.604  48.100  48.122  1.00  0.00    -0.008 A 
HETATM   24  C   UNL     1      22.639  48.386  48.990  1.00  0.00    -0.026 A 
HETATM   25  C   UNL     1      20.610  49.088  47.596  1.00  0.00     0.047 C 
HETATM   26  C   UNL     1      22.889  49.787  49.480  1.00  0.00     0.041 C 
HETATM   27  C   UNL     1      23.432  47.211  49.281  1.00  0.00     0.072 A 
HETATM   28  C   UNL     1      21.690  50.714  49.217  1.00  0.00     0.005 C 
HETATM   29  C   UNL     1      21.118  50.522  47.807  1.00  0.00     0.005 C 
BRANCH  27  30
HETATM   30  C   UNL     1      24.636  47.205  50.110  1.00  0.00     0.252 C 
HETATM   31  N   UNL     1      25.708  47.892  49.601  1.00  0.00    -0.366 N 
HETATM   32  H   UNL     1      25.528  48.636  48.938  1.00  0.00     0.159 HD
HETATM   33  H   UNL     1      26.446  48.058  50.275  1.00  0.00     0.159 HD
HETATM   34  O   UNL     1      24.709  46.689  51.219  1.00  0.00    -0.268 OA
ENDBRANCH  27  30
ENDBRANCH   2  21
TORSDOF 6
ENDMDL
MODEL 9
REMARK VINA RESULT:      -9.5      3.871     10.254
REMARK  6 active torsions:
REMARK  status: ('A' for Active; 'I' for Inactive)
REMARK    1  A    between atoms: C_7  and  C_8 
REMARK    2  A    between atoms: C_12  and  S_13 
REMARK    3  A    between atoms: S_13  and  C_14 
REMARK    4  A    between atoms: C_14  and  C_15 
REMARK       I    between atoms: C_15  and  N_16 
REMARK    5  A    between atoms: N_16  and  C_17 
REMARK    6  A    between atoms: C_25  and  C_26 
REMARK       I    between atoms: C_26  and  N_27 
ROOT
HETATM    1  C   UNL     1      23.245  44.797  48.119  1.00  0.00     0.232 C 
HETATM    2  N   UNL     1      23.061  45.898  48.933  1.00  0.00    -0.320 N 
HETATM    3  O   UNL     1      22.989  44.735  46.917  1.00  0.00    -0.272 OA
HETATM    4  H   UNL     1      23.358  45.795  49.899  1.00  0.00     0.169 HD
ENDROOT
BRANCH   1   5
HETATM    5  C   UNL     1      23.893  43.583  48.784  1.00  0.00     0.185 C 
BRANCH   5   6
HETATM    6  S   UNL     1      23.810  43.509  50.601  1.00  0.00    -0.081 SA
BRANCH   6   7
HETATM    7  C   UNL     1      25.464  43.738  51.009  1.00  0.00     0.185 A 
HETATM    8  N   UNL     1      26.352  44.304  50.155  1.00  0.00    -0.253 N 
HETATM    9  N   UNL     1      27.543  44.468  50.748  1.00  0.00    -0.152 NA
HETATM   10  H   UNL     1      26.213  44.615  49.201  1.00  0.00     0.191 HD
HETATM   11  C   UNL     1      27.334  43.947  51.968  1.00  0.00     0.183 A 
HETATM   12  N   UNL     1      26.039  43.495  52.155  1.00  0.00    -0.201 NA
BRANCH  11  13
HETATM   13  C   UNL     1      28.306  43.927  53.061  1.00  0.00     0.035 A 
HETATM   14  C   UNL     1      28.269  44.783  54.176  1.00  0.00     0.049 A 
HETATM   15  C   UNL     1      29.232  44.672  55.190  1.00  0.00     0.048 A 
HETATM   16 CL   UNL     1      27.107  46.053  54.379  1.00  0.00    -0.083 Cl
HETATM   17  C   UNL     1      30.241  43.719  55.097  1.00  0.00     0.035 A 
HETATM   18  C   UNL     1      30.308  42.872  53.998  1.00  0.00     0.025 A 
HETATM   19 CL   UNL     1      31.417  43.592  56.346  1.00  0.00    -0.084 Cl
HETATM   20  C   UNL     1      29.348  42.977  52.988  1.00  0.00     0.019 A 
ENDBRANCH  11  13
ENDBRANCH   6   7
ENDBRANCH   5   6
ENDBRANCH   1   5
BRANCH   2  21
HETATM   21  C   UNL     1      22.355  47.060  48.652  1.00  0.00     0.093 A 
HETATM   22  S   UNL     1      20.721  47.005  48.192  1.00  0.00    -0.075 SA
HETATM   23  C   UNL     1      20.586  48.693  48.194  1.00  0.00    -0.008 A 
HETATM   24  C   UNL     1      21.768  49.317  48.540  1.00  0.00    -0.026 A 
HETATM   25  C   UNL     1      19.294  49.384  47.883  1.00  0.00     0.047 C 
HETATM   26  C   UNL     1      21.874  50.817  48.603  1.00  0.00     0.041 C 
HETATM   27  C   UNL     1      22.834  48.362  48.751  1.00  0.00     0.072 A 
HETATM   28  C   UNL     1      20.494  51.495  48.618  1.00  0.00     0.005 C 
HETATM   29  C   UNL     1      19.541  50.871  47.591  1.00  0.00     0.005 C 
BRANCH  27  30
HETATM   30  C   UNL     1      24.219  48.717  49.059  1.00  0.00     0.252 C 
HETATM   31  N   UNL     1      24.822  49.571  48.172  1.00  0.00    -0.366 N 
HETATM   32  H   UNL     1      24.232  50.180  47.618  1.00  0.00     0.159 HD
HETATM   33  H   UNL     1      25.689  49.970  48.511  1.00  0.00     0.159 HD
HETATM   34  O   UNL     1      24.820  48.351  50.062  1.00  0.00    -0.268 OA
ENDBRANCH  27  30
ENDBRANCH   2  21
TORSDOF 6
ENDMDL
MODEL 10
REMARK VINA RESULT:      -9.5      3.937     10.743
REMARK  6 active torsions:
REMARK  status: ('A' for Active; 'I' for Inactive)
REMARK    1  A    between atoms: C_7  and  C_8 
REMARK    2  A    between atoms: C_12  and  S_13 
REMARK    3  A    between atoms: S_13  and  C_14 
REMARK    4  A    between atoms: C_14  and  C_15 
REMARK       I    between atoms: C_15  and  N_16 
REMARK    5  A    between atoms: N_16  and  C_17 
REMARK    6  A    between atoms: C_25  and  C_26 
REMARK       I    between atoms: C_26  and  N_27 
ROOT
HETATM    1  C   UNL     1      24.524  47.943  49.586  1.00  0.00     0.232 C 
HETATM    2  N   UNL     1      23.150  47.836  49.683  1.00  0.00    -0.320 N 
HETATM    3  O   UNL     1      25.140  48.796  48.947  1.00  0.00    -0.272 OA
HETATM    4  H   UNL     1      22.801  47.094  50.282  1.00  0.00     0.169 HD
ENDROOT
BRANCH   1   5
HETATM    5  C   UNL     1      25.326  46.941  50.416  1.00  0.00     0.185 C 
BRANCH   5   6
HETATM    6  S   UNL     1      25.002  45.178  50.101  1.00  0.00    -0.081 SA
BRANCH   6   7
HETATM    7  C   UNL     1      26.253  44.449  51.028  1.00  0.00     0.185 A 
HETATM    8  N   UNL     1      26.965  43.387  50.579  1.00  0.00    -0.253 N 
HETATM    9  N   UNL     1      27.948  43.077  51.437  1.00  0.00    -0.152 NA
HETATM   10  H   UNL     1      26.858  42.862  49.719  1.00  0.00     0.191 HD
HETATM   11  C   UNL     1      27.766  43.972  52.422  1.00  0.00     0.183 A 
HETATM   12  N   UNL     1      26.719  44.844  52.181  1.00  0.00    -0.201 NA
BRANCH  11  13
HETATM   13  C   UNL     1      28.618  44.123  53.601  1.00  0.00     0.035 A 
HETATM   14  C   UNL     1      28.504  45.163  54.538  1.00  0.00     0.049 A 
HETATM   15  C   UNL     1      29.352  45.210  55.656  1.00  0.00     0.048 A 
HETATM   16 CL   UNL     1      27.383  46.476  54.391  1.00  0.00    -0.083 Cl
HETATM   17  C   UNL     1      30.324  44.232  55.840  1.00  0.00     0.035 A 
HETATM   18  C   UNL     1      30.467  43.203  54.918  1.00  0.00     0.025 A 
HETATM   19 CL   UNL     1      31.359  44.301  57.211  1.00  0.00    -0.084 Cl
HETATM   20  C   UNL     1      29.621  43.150  53.807  1.00  0.00     0.019 A 
ENDBRANCH  11  13
ENDBRANCH   6   7
ENDBRANCH   5   6
ENDBRANCH   1   5
BRANCH   2  21
HETATM   21  C   UNL     1      22.186  48.487  48.926  1.00  0.00     0.093 A 
HETATM   22  S   UNL     1      21.342  47.678  47.694  1.00  0.00    -0.075 SA
HETATM   23  C   UNL     1      20.339  49.011  47.404  1.00  0.00    -0.008 A 
HETATM   24  C   UNL     1      20.627  50.080  48.229  1.00  0.00    -0.026 A 
HETATM   25  C   UNL     1      19.248  48.971  46.378  1.00  0.00     0.047 C 
HETATM   26  C   UNL     1      19.857  51.370  48.140  1.00  0.00     0.041 C 
HETATM   27  C   UNL     1      21.757  49.801  49.087  1.00  0.00     0.072 A 
HETATM   28  C   UNL     1      18.551  51.211  47.344  1.00  0.00     0.005 C 
HETATM   29  C   UNL     1      18.758  50.392  46.064  1.00  0.00     0.005 C 
BRANCH  27  30
HETATM   30  C   UNL     1      22.348  50.759  50.021  1.00  0.00     0.252 C 
HETATM   31  N   UNL     1      21.661  50.944  51.193  1.00  0.00    -0.366 N 
HETATM   32  H   UNL     1      21.056  50.198  51.515  1.00  0.00     0.159 HD
HETATM   33  H   UNL     1      22.188  51.435  51.905  1.00  0.00     0.159 HD
HETATM   34  O   UNL     1      23.415  51.334  49.839  1.00  0.00    -0.268 OA
ENDBRANCH  27  30
ENDBRANCH   2  21
TORSDOF 6
ENDMDL
