MODEL 1
REMARK VINA RESULT:      -9.7      0.000      0.000
REMARK  4 active torsions:
REMARK  status: ('A' for Active; 'I' for Inactive)
REMARK    1  A    between atoms: C_3  and  C_4 
REMARK       I    between atoms: C_4  and  N_5 
REMARK    2  A    between atoms: N_5  and  C_6 
REMARK    3  A    between atoms: C_13  and  C_14 
REMARK       I    between atoms: C_14  and  N_15 
REMARK    4  A    between atoms: C_25  and  O_26 
ROOT
HETATM    1  C   UNL     1      26.071  46.581  52.799  1.00  0.00     0.280 C 
HETATM    2  N   UNL     1      25.903  45.922  51.593  1.00  0.00    -0.321 N 
HETATM    3  O   UNL     1      25.384  47.514  53.200  1.00  0.00    -0.265 OA
HETATM    4  H   UNL     1      26.581  45.187  51.423  1.00  0.00     0.169 HD
ENDROOT
BRANCH   2   5
HETATM    5  C   UNL     1      24.900  46.106  50.623  1.00  0.00     0.036 A 
HETATM    6  C   UNL     1      24.646  47.328  49.985  1.00  0.00     0.046 A 
HETATM    7  C   UNL     1      23.591  47.421  49.050  1.00  0.00     0.030 A 
HETATM    8  C   UNL     1      22.833  46.290  48.780  1.00  0.00     0.063 A 
HETATM    9  C   UNL     1      23.029  48.448  48.231  1.00  0.00     0.156 A 
HETATM   10  N   UNL     1      21.904  46.686  47.859  1.00  0.00    -0.277 N 
HETATM   11  C   UNL     1      23.063  45.054  49.387  1.00  0.00     0.034 A 
HETATM   12  H   UNL     1      21.179  46.119  47.436  1.00  0.00     0.189 HD
HETATM   13  N   UNL     1      21.988  47.979  47.505  1.00  0.00    -0.168 NA
HETATM   14  C   UNL     1      24.112  44.988  50.314  1.00  0.00     0.032 A 
BRANCH   9  15
HETATM   15  C   UNL     1      23.454  49.850  48.132  1.00  0.00     0.270 C 
HETATM   16  N   UNL     1      22.987  50.647  49.143  1.00  0.00    -0.365 N 
HETATM   17  H   UNL     1      22.406  50.230  49.859  1.00  0.00     0.159 HD
HETATM   18  H   UNL     1      23.229  51.624  49.160  1.00  0.00     0.159 HD
HETATM   19  O   UNL     1      24.164  50.306  47.243  1.00  0.00    -0.266 OA
ENDBRANCH   9  15
ENDBRANCH   2   5
BRANCH   1  20
HETATM   20  C   UNL     1      27.167  46.030  53.583  1.00  0.00     0.150 A 
HETATM   21  C   UNL     1      27.798  46.491  54.734  1.00  0.00    -0.009 A 
HETATM   22  C   UNL     1      27.495  47.749  55.464  1.00  0.00     0.052 C 
HETATM   23  C   UNL     1      28.760  45.496  55.083  1.00  0.00     0.009 A 
HETATM   24  C   UNL     1      28.671  44.513  54.108  1.00  0.00     0.087 A 
HETATM   25  C   UNL     1      29.692  45.313  56.122  1.00  0.00     0.051 A 
HETATM   26  O   UNL     1      27.715  44.833  53.198  1.00  0.00    -0.304 OA
HETATM   27  C   UNL     1      29.453  43.361  54.084  1.00  0.00     0.041 A 
HETATM   28  C   UNL     1      30.368  43.199  55.133  1.00  0.00     0.039 A 
HETATM   29  C   UNL     1      30.484  44.154  56.149  1.00  0.00     0.069 A 
BRANCH  29  30
HETATM   30  O   UNL     1      31.335  44.080  57.219  1.00  0.00    -0.356 OA
HETATM   31  C   UNL     1      31.088  44.969  58.301  1.00  0.00     0.210 C 
ENDBRANCH  29  30
ENDBRANCH   1  20
TORSDOF 4
ENDMDL
MODEL 2
REMARK VINA RESULT:      -9.5      1.296      2.187
REMARK  4 active torsions:
REMARK  status: ('A' for Active; 'I' for Inactive)
REMARK    1  A    between atoms: C_3  and  C_4 
REMARK       I    between atoms: C_4  and  N_5 
REMARK    2  A    between atoms: N_5  and  C_6 
REMARK    3  A    between atoms: C_13  and  C_14 
REMARK       I    between atoms: C_14  and  N_15 
REMARK    4  A    between atoms: C_25  and  O_26 
ROOT
HETATM    1  C   UNL     1      27.079  44.672  51.823  1.00  0.00     0.280 C 
HETATM    2  N   UNL     1      25.966  45.491  51.908  1.00  0.00    -0.321 N 
HETATM    3  O   UNL     1      27.416  44.031  50.835  1.00  0.00    -0.265 OA
HETATM    4  H   UNL     1      25.837  45.925  52.815  1.00  0.00     0.169 HD
ENDROOT
BRANCH   2   5
HETATM    5  C   UNL     1      25.044  45.827  50.899  1.00  0.00     0.036 A 
HETATM    6  C   UNL     1      24.907  47.115  50.364  1.00  0.00     0.046 A 
HETATM    7  C   UNL     1      23.925  47.360  49.379  1.00  0.00     0.030 A 
HETATM    8  C   UNL     1      23.120  46.310  48.958  1.00  0.00     0.063 A 
HETATM    9  C   UNL     1      23.482  48.491  48.625  1.00  0.00     0.156 A 
HETATM   10  N   UNL     1      22.280  46.848  48.023  1.00  0.00    -0.277 N 
HETATM   11  C   UNL     1      23.234  45.013  49.460  1.00  0.00     0.034 A 
HETATM   12  H   UNL     1      21.553  46.370  47.504  1.00  0.00     0.189 HD
HETATM   13  N   UNL     1      22.466  48.158  47.796  1.00  0.00    -0.168 NA
HETATM   14  C   UNL     1      24.212  44.796  50.439  1.00  0.00     0.032 A 
BRANCH   9  15
HETATM   15  C   UNL     1      23.996  49.865  48.685  1.00  0.00     0.270 C 
HETATM   16  N   UNL     1      25.089  50.087  47.891  1.00  0.00    -0.365 N 
HETATM   17  H   UNL     1      25.450  49.319  47.338  1.00  0.00     0.159 HD
HETATM   18  H   UNL     1      25.509  51.001  47.864  1.00  0.00     0.159 HD
HETATM   19  O   UNL     1      23.519  50.763  49.370  1.00  0.00    -0.266 OA
ENDBRANCH   9  15
ENDBRANCH   2   5
BRANCH   1  20
HETATM   20  C   UNL     1      27.852  44.659  53.057  1.00  0.00     0.150 A 
HETATM   21  C   UNL     1      28.887  43.836  53.486  1.00  0.00    -0.009 A 
HETATM   22  C   UNL     1      29.467  42.686  52.745  1.00  0.00     0.052 C 
HETATM   23  C   UNL     1      29.296  44.343  54.757  1.00  0.00     0.009 A 
HETATM   24  C   UNL     1      28.465  45.421  55.028  1.00  0.00     0.087 A 
HETATM   25  C   UNL     1      30.284  44.015  55.704  1.00  0.00     0.051 A 
HETATM   26  O   UNL     1      27.589  45.613  54.009  1.00  0.00    -0.304 OA
HETATM   27  C   UNL     1      28.538  46.193  56.184  1.00  0.00     0.041 A 
HETATM   28  C   UNL     1      29.534  45.851  57.109  1.00  0.00     0.039 A 
HETATM   29  C   UNL     1      30.407  44.784  56.873  1.00  0.00     0.069 A 
BRANCH  29  30
HETATM   30  O   UNL     1      31.417  44.382  57.705  1.00  0.00    -0.356 OA
HETATM   31  C   UNL     1      32.157  43.233  57.312  1.00  0.00     0.210 C 
ENDBRANCH  29  30
ENDBRANCH   1  20
TORSDOF 4
ENDMDL
MODEL 3
REMARK VINA RESULT:      -9.2      2.978      9.584
REMARK  4 active torsions:
REMARK  status: ('A' for Active; 'I' for Inactive)
REMARK    1  A    between atoms: C_3  and  C_4 
REMARK       I    between atoms: C_4  and  N_5 
REMARK    2  A    between atoms: N_5  and  C_6 
REMARK    3  A    between atoms: C_13  and  C_14 
REMARK       I    between atoms: C_14  and  N_15 
REMARK    4  A    between atoms: C_25  and  O_26 
ROOT
HETATM    1  C   UNL     1      25.363  47.559  50.208  1.00  0.00     0.280 C 
HETATM    2  N   UNL     1      25.112  47.059  51.475  1.00  0.00    -0.321 N 
HETATM    3  O   UNL     1      26.452  47.560  49.647  1.00  0.00    -0.265 OA
HETATM    4  H   UNL     1      24.151  47.165  51.782  1.00  0.00     0.169 HD
ENDROOT
BRANCH   2   5
HETATM    5  C   UNL     1      25.994  46.393  52.347  1.00  0.00     0.036 A 
HETATM    6  C   UNL     1      26.401  45.063  52.179  1.00  0.00     0.046 A 
HETATM    7  C   UNL     1      27.262  44.471  53.130  1.00  0.00     0.030 A 
HETATM    8  C   UNL     1      27.691  45.231  54.211  1.00  0.00     0.063 A 
HETATM    9  C   UNL     1      27.869  43.191  53.314  1.00  0.00     0.156 A 
HETATM   10  N   UNL     1      28.490  44.400  54.945  1.00  0.00    -0.277 N 
HETATM   11  C   UNL     1      27.314  46.561  54.405  1.00  0.00     0.034 A 
HETATM   12  H   UNL     1      28.974  44.619  55.808  1.00  0.00     0.189 HD
HETATM   13  N   UNL     1      28.621  43.163  54.439  1.00  0.00    -0.168 NA
HETATM   14  C   UNL     1      26.458  47.124  53.451  1.00  0.00     0.032 A 
BRANCH   9  15
HETATM   15  C   UNL     1      27.742  42.007  52.455  1.00  0.00     0.270 C 
HETATM   16  N   UNL     1      27.496  40.846  53.137  1.00  0.00    -0.365 N 
HETATM   17  H   UNL     1      27.419  40.884  54.146  1.00  0.00     0.159 HD
HETATM   18  H   UNL     1      27.392  39.982  52.630  1.00  0.00     0.159 HD
HETATM   19  O   UNL     1      27.841  42.014  51.233  1.00  0.00    -0.266 OA
ENDBRANCH   9  15
ENDBRANCH   2   5
BRANCH   1  20
HETATM   20  C   UNL     1      24.162  48.084  49.573  1.00  0.00     0.150 A 
HETATM   21  C   UNL     1      23.098  47.446  48.947  1.00  0.00    -0.009 A 
HETATM   22  C   UNL     1      22.941  45.982  48.744  1.00  0.00     0.052 C 
HETATM   23  C   UNL     1      22.181  48.475  48.575  1.00  0.00     0.009 A 
HETATM   24  C   UNL     1      22.761  49.671  48.974  1.00  0.00     0.087 A 
HETATM   25  C   UNL     1      20.919  48.528  47.953  1.00  0.00     0.051 A 
HETATM   26  O   UNL     1      23.958  49.441  49.572  1.00  0.00    -0.304 OA
HETATM   27  C   UNL     1      22.180  50.922  48.789  1.00  0.00     0.041 A 
HETATM   28  C   UNL     1      20.921  50.948  48.173  1.00  0.00     0.039 A 
HETATM   29  C   UNL     1      20.288  49.768  47.768  1.00  0.00     0.069 A 
BRANCH  29  30
HETATM   30  O   UNL     1      19.057  49.688  47.174  1.00  0.00    -0.356 OA
HETATM   31  C   UNL     1      18.003  49.126  47.946  1.00  0.00     0.210 C 
ENDBRANCH  29  30
ENDBRANCH   1  20
TORSDOF 4
ENDMDL
MODEL 4
REMARK VINA RESULT:      -9.0      2.694      3.716
REMARK  4 active torsions:
REMARK  status: ('A' for Active; 'I' for Inactive)
REMARK    1  A    between atoms: C_3  and  C_4 
REMARK       I    between atoms: C_4  and  N_5 
REMARK    2  A    between atoms: N_5  and  C_6 
REMARK    3  A    between atoms: C_13  and  C_14 
REMARK       I    between atoms: C_14  and  N_15 
REMARK    4  A    between atoms: C_25  and  O_26 
ROOT
HETATM    1  C   UNL     1      27.279  43.998  51.293  1.00  0.00     0.280 C 
HETATM    2  N   UNL     1      26.134  43.225  51.388  1.00  0.00    -0.321 N 
HETATM    3  O   UNL     1      27.707  44.509  50.265  1.00  0.00    -0.265 OA
HETATM    4  H   UNL     1      25.949  42.869  52.320  1.00  0.00     0.169 HD
ENDROOT
BRANCH   2   5
HETATM    5  C   UNL     1      25.192  42.922  50.387  1.00  0.00     0.036 A 
HETATM    6  C   UNL     1      24.156  43.785  50.004  1.00  0.00     0.046 A 
HETATM    7  C   UNL     1      23.237  43.374  49.013  1.00  0.00     0.030 A 
HETATM    8  C   UNL     1      23.390  42.121  48.435  1.00  0.00     0.063 A 
HETATM    9  C   UNL     1      22.085  43.935  48.381  1.00  0.00     0.156 A 
HETATM   10  N   UNL     1      22.367  42.009  47.535  1.00  0.00    -0.277 N 
HETATM   11  C   UNL     1      24.415  41.239  48.784  1.00  0.00     0.034 A 
HETATM   12  H   UNL     1      22.164  41.220  46.932  1.00  0.00     0.189 HD
HETATM   13  N   UNL     1      21.559  43.080  47.474  1.00  0.00    -0.168 NA
HETATM   14  C   UNL     1      25.310  41.668  49.771  1.00  0.00     0.032 A 
BRANCH   9  15
HETATM   15  C   UNL     1      21.479  45.250  48.627  1.00  0.00     0.270 C 
HETATM   16  N   UNL     1      20.315  45.203  49.347  1.00  0.00    -0.365 N 
HETATM   17  H   UNL     1      19.970  44.301  49.650  1.00  0.00     0.159 HD
HETATM   18  H   UNL     1      19.829  46.057  49.566  1.00  0.00     0.159 HD
HETATM   19  O   UNL     1      21.941  46.318  48.240  1.00  0.00    -0.266 OA
ENDBRANCH   9  15
ENDBRANCH   2   5
BRANCH   1  20
HETATM   20  C   UNL     1      27.939  44.170  52.579  1.00  0.00     0.150 A 
HETATM   21  C   UNL     1      28.966  43.458  53.189  1.00  0.00    -0.009 A 
HETATM   22  C   UNL     1      29.656  42.260  52.643  1.00  0.00     0.052 C 
HETATM   23  C   UNL     1      29.240  44.131  54.418  1.00  0.00     0.009 A 
HETATM   24  C   UNL     1      28.344  45.189  54.487  1.00  0.00     0.087 A 
HETATM   25  C   UNL     1      30.153  43.969  55.476  1.00  0.00     0.051 A 
HETATM   26  O   UNL     1      27.554  45.214  53.383  1.00  0.00    -0.304 OA
HETATM   27  C   UNL     1      28.283  46.094  55.542  1.00  0.00     0.041 A 
HETATM   28  C   UNL     1      29.207  45.915  56.581  1.00  0.00     0.039 A 
HETATM   29  C   UNL     1      30.140  44.874  56.549  1.00  0.00     0.069 A 
BRANCH  29  30
HETATM   30  O   UNL     1      31.090  44.626  57.505  1.00  0.00    -0.356 OA
HETATM   31  C   UNL     1      31.888  43.461  57.332  1.00  0.00     0.210 C 
ENDBRANCH  29  30
ENDBRANCH   1  20
TORSDOF 4
ENDMDL
MODEL 5
REMARK VINA RESULT:      -8.9      1.852      2.616
REMARK  4 active torsions:
REMARK  status: ('A' for Active; 'I' for Inactive)
REMARK    1  A    between atoms: C_3  and  C_4 
REMARK       I    between atoms: C_4  and  N_5 
REMARK    2  A    between atoms: N_5  and  C_6 
REMARK    3  A    between atoms: C_13  and  C_14 
REMARK       I    between atoms: C_14  and  N_15 
REMARK    4  A    between atoms: C_25  and  O_26 
ROOT
HETATM    1  C   UNL     1      25.500  45.411  52.246  1.00  0.00     0.280 C 
HETATM    2  N   UNL     1      25.656  46.478  51.379  1.00  0.00    -0.321 N 
HETATM    3  O   UNL     1      24.491  44.723  52.352  1.00  0.00    -0.265 OA
HETATM    4  H   UNL     1      26.556  46.941  51.447  1.00  0.00     0.169 HD
ENDROOT
BRANCH   2   5
HETATM    5  C   UNL     1      24.762  46.955  50.402  1.00  0.00     0.036 A 
HETATM    6  C   UNL     1      23.644  46.241  49.952  1.00  0.00     0.046 A 
HETATM    7  C   UNL     1      22.826  46.791  48.940  1.00  0.00     0.030 A 
HETATM    8  C   UNL     1      23.150  48.037  48.418  1.00  0.00     0.063 A 
HETATM    9  C   UNL     1      21.652  46.387  48.231  1.00  0.00     0.156 A 
HETATM   10  N   UNL     1      22.197  48.294  47.472  1.00  0.00    -0.277 N 
HETATM   11  C   UNL     1      24.249  48.781  48.849  1.00  0.00     0.034 A 
HETATM   12  H   UNL     1      22.122  49.116  46.885  1.00  0.00     0.189 HD
HETATM   13  N   UNL     1      21.279  47.324  47.329  1.00  0.00    -0.168 NA
HETATM   14  C   UNL     1      25.047  48.213  49.850  1.00  0.00     0.032 A 
BRANCH   9  15
HETATM   15  C   UNL     1      20.893  45.141  48.391  1.00  0.00     0.270 C 
HETATM   16  N   UNL     1      19.880  45.217  49.308  1.00  0.00    -0.365 N 
HETATM   17  H   UNL     1      19.729  46.094  49.791  1.00  0.00     0.159 HD
HETATM   18  H   UNL     1      19.303  44.411  49.483  1.00  0.00     0.159 HD
HETATM   19  O   UNL     1      21.114  44.102  47.777  1.00  0.00    -0.266 OA
ENDBRANCH   9  15
ENDBRANCH   2   5
BRANCH   1  20
HETATM   20  C   UNL     1      26.697  45.158  53.035  1.00  0.00     0.150 A 
HETATM   21  C   UNL     1      27.223  45.813  54.144  1.00  0.00    -0.009 A 
HETATM   22  C   UNL     1      26.661  47.017  54.808  1.00  0.00     0.052 C 
HETATM   23  C   UNL     1      28.383  45.073  54.527  1.00  0.00     0.009 A 
HETATM   24  C   UNL     1      28.500  44.037  53.611  1.00  0.00     0.087 A 
HETATM   25  C   UNL     1      29.342  45.159  55.554  1.00  0.00     0.051 A 
HETATM   26  O   UNL     1      27.489  44.087  52.707  1.00  0.00    -0.304 OA
HETATM   27  C   UNL     1      29.513  43.083  53.636  1.00  0.00     0.041 A 
HETATM   28  C   UNL     1      30.452  43.186  54.671  1.00  0.00     0.039 A 
HETATM   29  C   UNL     1      30.367  44.203  55.628  1.00  0.00     0.069 A 
BRANCH  29  30
HETATM   30  O   UNL     1      31.224  44.379  56.682  1.00  0.00    -0.356 OA
HETATM   31  C   UNL     1      31.938  43.234  57.131  1.00  0.00     0.210 C 
ENDBRANCH  29  30
ENDBRANCH   1  20
TORSDOF 4
ENDMDL
MODEL 6
REMARK VINA RESULT:      -8.8      3.160      9.263
REMARK  4 active torsions:
REMARK  status: ('A' for Active; 'I' for Inactive)
REMARK    1  A    between atoms: C_3  and  C_4 
REMARK       I    between atoms: C_4  and  N_5 
REMARK    2  A    between atoms: N_5  and  C_6 
REMARK    3  A    between atoms: C_13  and  C_14 
REMARK       I    between atoms: C_14  and  N_15 
REMARK    4  A    between atoms: C_25  and  O_26 
ROOT
HETATM    1  C   UNL     1      26.496  44.078  52.039  1.00  0.00     0.280 C 
HETATM    2  N   UNL     1      27.507  44.815  52.630  1.00  0.00    -0.321 N 
HETATM    3  O   UNL     1      26.339  42.868  52.154  1.00  0.00    -0.265 OA
HETATM    4  H   UNL     1      27.488  45.804  52.403  1.00  0.00     0.169 HD
ENDROOT
BRANCH   2   5
HETATM    5  C   UNL     1      28.503  44.382  53.526  1.00  0.00     0.036 A 
HETATM    6  C   UNL     1      28.731  44.964  54.780  1.00  0.00     0.046 A 
HETATM    7  C   UNL     1      29.780  44.480  55.593  1.00  0.00     0.030 A 
HETATM    8  C   UNL     1      30.559  43.429  55.128  1.00  0.00     0.063 A 
HETATM    9  C   UNL     1      30.319  44.800  56.877  1.00  0.00     0.156 A 
HETATM   10  N   UNL     1      31.477  43.193  56.113  1.00  0.00    -0.277 N 
HETATM   11  C   UNL     1      30.355  42.818  53.889  1.00  0.00     0.034 A 
HETATM   12  H   UNL     1      32.211  42.495  56.113  1.00  0.00     0.189 HD
HETATM   13  N   UNL     1      31.366  43.999  57.181  1.00  0.00    -0.168 NA
HETATM   14  C   UNL     1      29.311  43.318  53.100  1.00  0.00     0.032 A 
BRANCH   9  15
HETATM   15  C   UNL     1      29.867  45.845  57.804  1.00  0.00     0.270 C 
HETATM   16  N   UNL     1      30.870  46.397  58.556  1.00  0.00    -0.365 N 
HETATM   17  H   UNL     1      31.815  46.062  58.422  1.00  0.00     0.159 HD
HETATM   18  H   UNL     1      30.654  47.124  59.218  1.00  0.00     0.159 HD
HETATM   19  O   UNL     1      28.705  46.219  57.926  1.00  0.00    -0.266 OA
ENDBRANCH   9  15
ENDBRANCH   2   5
BRANCH   1  20
HETATM   20  C   UNL     1      25.592  44.907  51.255  1.00  0.00     0.150 A 
HETATM   21  C   UNL     1      25.369  46.279  51.254  1.00  0.00    -0.009 A 
HETATM   22  C   UNL     1      26.029  47.282  52.129  1.00  0.00     0.052 C 
HETATM   23  C   UNL     1      24.411  46.525  50.224  1.00  0.00     0.009 A 
HETATM   24  C   UNL     1      24.095  45.285  49.687  1.00  0.00     0.087 A 
HETATM   25  C   UNL     1      23.783  47.661  49.679  1.00  0.00     0.051 A 
HETATM   26  O   UNL     1      24.800  44.305  50.309  1.00  0.00    -0.304 OA
HETATM   27  C   UNL     1      23.186  45.090  48.651  1.00  0.00     0.041 A 
HETATM   28  C   UNL     1      22.579  46.237  48.121  1.00  0.00     0.039 A 
HETATM   29  C   UNL     1      22.878  47.510  48.616  1.00  0.00     0.069 A 
BRANCH  29  30
HETATM   30  O   UNL     1      22.351  48.688  48.158  1.00  0.00    -0.356 OA
HETATM   31  C   UNL     1      23.252  49.774  47.986  1.00  0.00     0.210 C 
ENDBRANCH  29  30
ENDBRANCH   1  20
TORSDOF 4
ENDMDL
MODEL 7
REMARK VINA RESULT:      -8.7      5.365      9.033
REMARK  4 active torsions:
REMARK  status: ('A' for Active; 'I' for Inactive)
REMARK    1  A    between atoms: C_3  and  C_4 
REMARK       I    between atoms: C_4  and  N_5 
REMARK    2  A    between atoms: N_5  and  C_6 
REMARK    3  A    between atoms: C_13  and  C_14 
REMARK       I    between atoms: C_14  and  N_15 
REMARK    4  A    between atoms: C_25  and  O_26 
ROOT
HETATM    1  C   UNL     1      28.362  41.141  52.103  1.00  0.00     0.280 C 
HETATM    2  N   UNL     1      29.087  42.315  52.205  1.00  0.00    -0.321 N 
HETATM    3  O   UNL     1      27.757  40.597  53.019  1.00  0.00    -0.265 OA
HETATM    4  H   UNL     1      29.538  42.602  51.343  1.00  0.00     0.169 HD
ENDROOT
BRANCH   2   5
HETATM    5  C   UNL     1      29.229  43.166  53.317  1.00  0.00     0.036 A 
HETATM    6  C   UNL     1      28.327  44.191  53.636  1.00  0.00     0.046 A 
HETATM    7  C   UNL     1      28.578  45.016  54.755  1.00  0.00     0.030 A 
HETATM    8  C   UNL     1      29.714  44.785  55.519  1.00  0.00     0.063 A 
HETATM    9  C   UNL     1      27.933  46.129  55.378  1.00  0.00     0.156 A 
HETATM   10  N   UNL     1      29.686  45.729  56.507  1.00  0.00    -0.277 N 
HETATM   11  C   UNL     1      30.628  43.768  55.237  1.00  0.00     0.034 A 
HETATM   12  H   UNL     1      30.365  45.862  57.247  1.00  0.00     0.189 HD
HETATM   13  N   UNL     1      28.631  46.558  56.455  1.00  0.00    -0.168 NA
HETATM   14  C   UNL     1      30.360  42.966  54.121  1.00  0.00     0.032 A 
BRANCH   9  15
HETATM   15  C   UNL     1      26.686  46.787  54.969  1.00  0.00     0.270 C 
HETATM   16  N   UNL     1      26.663  48.136  55.204  1.00  0.00    -0.365 N 
HETATM   17  H   UNL     1      27.477  48.568  55.625  1.00  0.00     0.159 HD
HETATM   18  H   UNL     1      25.849  48.673  54.953  1.00  0.00     0.159 HD
HETATM   19  O   UNL     1      25.728  46.218  54.458  1.00  0.00    -0.266 OA
ENDBRANCH   9  15
ENDBRANCH   2   5
BRANCH   1  20
HETATM   20  C   UNL     1      28.369  40.602  50.750  1.00  0.00     0.150 A 
HETATM   21  C   UNL     1      28.859  39.406  50.238  1.00  0.00    -0.009 A 
HETATM   22  C   UNL     1      29.560  38.340  51.000  1.00  0.00     0.052 C 
HETATM   23  C   UNL     1      28.522  39.400  48.851  1.00  0.00     0.009 A 
HETATM   24  C   UNL     1      27.874  40.603  48.606  1.00  0.00     0.087 A 
HETATM   25  C   UNL     1      28.683  38.506  47.776  1.00  0.00     0.051 A 
HETATM   26  O   UNL     1      27.784  41.334  49.747  1.00  0.00    -0.304 OA
HETATM   27  C   UNL     1      27.384  40.988  47.361  1.00  0.00     0.041 A 
HETATM   28  C   UNL     1      27.551  40.078  46.309  1.00  0.00     0.039 A 
HETATM   29  C   UNL     1      28.182  38.846  46.509  1.00  0.00     0.069 A 
BRANCH  29  30
HETATM   30  O   UNL     1      28.380  37.887  45.551  1.00  0.00    -0.356 OA
HETATM   31  C   UNL     1      28.850  36.620  45.996  1.00  0.00     0.210 C 
ENDBRANCH  29  30
ENDBRANCH   1  20
TORSDOF 4
ENDMDL
MODEL 8
REMARK VINA RESULT:      -8.6      2.639      4.383
REMARK  4 active torsions:
REMARK  status: ('A' for Active; 'I' for Inactive)
REMARK    1  A    between atoms: C_3  and  C_4 
REMARK       I    between atoms: C_4  and  N_5 
REMARK    2  A    between atoms: N_5  and  C_6 
REMARK    3  A    between atoms: C_13  and  C_14 
REMARK       I    between atoms: C_14  and  N_15 
REMARK    4  A    between atoms: C_25  and  O_26 
ROOT
HETATM    1  C   UNL     1      24.245  47.747  49.704  1.00  0.00     0.280 C 
HETATM    2  N   UNL     1      22.991  47.192  49.512  1.00  0.00    -0.321 N 
HETATM    3  O   UNL     1      24.695  48.712  49.098  1.00  0.00    -0.265 OA
HETATM    4  H   UNL     1      22.801  46.382  50.092  1.00  0.00     0.169 HD
ENDROOT
BRANCH   2   5
HETATM    5  C   UNL     1      21.955  47.634  48.667  1.00  0.00     0.036 A 
HETATM    6  C   UNL     1      21.223  48.809  48.879  1.00  0.00     0.046 A 
HETATM    7  C   UNL     1      20.175  49.148  47.994  1.00  0.00     0.030 A 
HETATM    8  C   UNL     1      19.902  48.306  46.925  1.00  0.00     0.063 A 
HETATM    9  C   UNL     1      19.227  50.210  47.880  1.00  0.00     0.156 A 
HETATM   10  N   UNL     1      18.854  48.884  46.265  1.00  0.00    -0.277 N 
HETATM   11  C   UNL     1      20.617  47.132  46.676  1.00  0.00     0.034 A 
HETATM   12  H   UNL     1      18.387  48.540  45.434  1.00  0.00     0.189 HD
HETATM   13  N   UNL     1      18.418  50.031  46.810  1.00  0.00    -0.168 NA
HETATM   14  C   UNL     1      21.647  46.816  47.570  1.00  0.00     0.032 A 
BRANCH   9  15
HETATM   15  C   UNL     1      19.073  51.374  48.763  1.00  0.00     0.270 C 
HETATM   16  N   UNL     1      18.385  51.112  49.917  1.00  0.00    -0.365 N 
HETATM   17  H   UNL     1      18.046  50.172  50.076  1.00  0.00     0.159 HD
HETATM   18  H   UNL     1      18.232  51.850  50.585  1.00  0.00     0.159 HD
HETATM   19  O   UNL     1      19.507  52.496  48.525  1.00  0.00    -0.266 OA
ENDBRANCH   9  15
ENDBRANCH   2   5
BRANCH   1  20
HETATM   20  C   UNL     1      24.998  47.065  50.747  1.00  0.00     0.150 A 
HETATM   21  C   UNL     1      25.701  45.865  50.740  1.00  0.00    -0.009 A 
HETATM   22  C   UNL     1      25.835  44.926  49.596  1.00  0.00     0.052 C 
HETATM   23  C   UNL     1      26.291  45.743  52.034  1.00  0.00     0.009 A 
HETATM   24  C   UNL     1      25.884  46.860  52.751  1.00  0.00     0.087 A 
HETATM   25  C   UNL     1      27.132  44.816  52.678  1.00  0.00     0.051 A 
HETATM   26  O   UNL     1      25.100  47.658  51.981  1.00  0.00    -0.304 OA
HETATM   27  C   UNL     1      26.245  47.117  54.070  1.00  0.00     0.041 A 
HETATM   28  C   UNL     1      27.088  46.183  54.687  1.00  0.00     0.039 A 
HETATM   29  C   UNL     1      27.538  45.049  54.001  1.00  0.00     0.069 A 
BRANCH  29  30
HETATM   30  O   UNL     1      28.372  44.089  54.509  1.00  0.00    -0.356 OA
HETATM   31  C   UNL     1      28.147  42.750  54.087  1.00  0.00     0.210 C 
ENDBRANCH  29  30
ENDBRANCH   1  20
TORSDOF 4
ENDMDL
MODEL 9
REMARK VINA RESULT:      -8.5      4.091      6.732
REMARK  4 active torsions:
REMARK  status: ('A' for Active; 'I' for Inactive)
REMARK    1  A    between atoms: C_3  and  C_4 
REMARK       I    between atoms: C_4  and  N_5 
REMARK    2  A    between atoms: N_5  and  C_6 
REMARK    3  A    between atoms: C_13  and  C_14 
REMARK       I    between atoms: C_14  and  N_15 
REMARK    4  A    between atoms: C_25  and  O_26 
ROOT
HETATM    1  C   UNL     1      22.498  48.353  48.659  1.00  0.00     0.280 C 
HETATM    2  N   UNL     1      21.362  48.686  49.378  1.00  0.00    -0.321 N 
HETATM    3  O   UNL     1      22.774  48.764  47.538  1.00  0.00    -0.265 OA
HETATM    4  H   UNL     1      21.294  48.232  50.282  1.00  0.00     0.169 HD
ENDROOT
BRANCH   2   5
HETATM    5  C   UNL     1      20.342  49.595  49.039  1.00  0.00     0.036 A 
HETATM    6  C   UNL     1      19.033  49.214  48.715  1.00  0.00     0.046 A 
HETATM    7  C   UNL     1      18.090  50.201  48.351  1.00  0.00     0.030 A 
HETATM    8  C   UNL     1      18.484  51.532  48.332  1.00  0.00     0.063 A 
HETATM    9  C   UNL     1      16.716  50.216  47.957  1.00  0.00     0.156 A 
HETATM   10  N   UNL     1      17.377  52.234  47.944  1.00  0.00    -0.277 N 
HETATM   11  C   UNL     1      19.776  51.949  48.659  1.00  0.00     0.034 A 
HETATM   12  H   UNL     1      17.299  53.236  47.818  1.00  0.00     0.189 HD
HETATM   13  N   UNL     1      16.293  51.477  47.707  1.00  0.00    -0.168 NA
HETATM   14  C   UNL     1      20.694  50.953  49.011  1.00  0.00     0.032 A 
BRANCH   9  15
HETATM   15  C   UNL     1      15.813  49.068  47.809  1.00  0.00     0.270 C 
HETATM   16  N   UNL     1      14.892  49.207  46.805  1.00  0.00    -0.365 N 
HETATM   17  H   UNL     1      14.901  50.057  46.255  1.00  0.00     0.159 HD
HETATM   18  H   UNL     1      14.232  48.468  46.627  1.00  0.00     0.159 HD
HETATM   19  O   UNL     1      15.846  48.056  48.501  1.00  0.00    -0.266 OA
ENDBRANCH   9  15
ENDBRANCH   2   5
BRANCH   1  20
HETATM   20  C   UNL     1      23.374  47.453  49.395  1.00  0.00     0.150 A 
HETATM   21  C   UNL     1      23.616  46.090  49.261  1.00  0.00    -0.009 A 
HETATM   22  C   UNL     1      22.974  45.170  48.286  1.00  0.00     0.052 C 
HETATM   23  C   UNL     1      24.625  45.770  50.219  1.00  0.00     0.009 A 
HETATM   24  C   UNL     1      24.908  46.951  50.891  1.00  0.00     0.087 A 
HETATM   25  C   UNL     1      25.337  44.613  50.588  1.00  0.00     0.051 A 
HETATM   26  O   UNL     1      24.153  47.968  50.401  1.00  0.00    -0.304 OA
HETATM   27  C   UNL     1      25.844  47.064  51.914  1.00  0.00     0.041 A 
HETATM   28  C   UNL     1      26.545  45.900  52.258  1.00  0.00     0.039 A 
HETATM   29  C   UNL     1      26.307  44.689  51.600  1.00  0.00     0.069 A 
BRANCH  29  30
HETATM   30  O   UNL     1      26.947  43.505  51.852  1.00  0.00    -0.356 OA
HETATM   31  C   UNL     1      28.256  43.584  52.403  1.00  0.00     0.210 C 
ENDBRANCH  29  30
ENDBRANCH   1  20
TORSDOF 4
ENDMDL
MODEL 10
REMARK VINA RESULT:      -8.5      3.896      5.575
REMARK  4 active torsions:
REMARK  status: ('A' for Active; 'I' for Inactive)
REMARK    1  A    between atoms: C_3  and  C_4 
REMARK       I    between atoms: C_4  and  N_5 
REMARK    2  A    between atoms: N_5  and  C_6 
REMARK    3  A    between atoms: C_13  and  C_14 
REMARK       I    between atoms: C_14  and  N_15 
REMARK    4  A    between atoms: C_25  and  O_26 
ROOT
HETATM    1  C   UNL     1      27.226  43.724  51.386  1.00  0.00     0.280 C 
HETATM    2  N   UNL     1      26.120  42.909  51.550  1.00  0.00    -0.321 N 
HETATM    3  O   UNL     1      27.646  44.145  50.314  1.00  0.00    -0.265 OA
HETATM    4  H   UNL     1      25.937  42.644  52.511  1.00  0.00     0.169 HD
ENDROOT
BRANCH   2   5
HETATM    5  C   UNL     1      25.209  42.457  50.576  1.00  0.00     0.036 A 
HETATM    6  C   UNL     1      25.485  41.425  49.668  1.00  0.00     0.046 A 
HETATM    7  C   UNL     1      24.518  41.068  48.703  1.00  0.00     0.030 A 
HETATM    8  C   UNL     1      23.308  41.748  48.682  1.00  0.00     0.063 A 
HETATM    9  C   UNL     1      24.427  40.118  47.639  1.00  0.00     0.156 A 
HETATM   10  N   UNL     1      22.597  41.194  47.655  1.00  0.00    -0.277 N 
HETATM   11  C   UNL     1      22.994  42.774  49.576  1.00  0.00     0.034 A 
HETATM   12  H   UNL     1      21.666  41.448  47.346  1.00  0.00     0.189 HD
HETATM   13  N   UNL     1      23.237  40.210  47.002  1.00  0.00    -0.168 NA
HETATM   14  C   UNL     1      23.971  43.112  50.521  1.00  0.00     0.032 A 
BRANCH   9  15
HETATM   15  C   UNL     1      25.440  39.142  47.219  1.00  0.00     0.270 C 
HETATM   16  N   UNL     1      24.967  37.863  47.098  1.00  0.00    -0.365 N 
HETATM   17  H   UNL     1      23.989  37.688  47.295  1.00  0.00     0.159 HD
HETATM   18  H   UNL     1      25.590  37.125  46.812  1.00  0.00     0.159 HD
HETATM   19  O   UNL     1      26.615  39.406  46.988  1.00  0.00    -0.266 OA
ENDBRANCH   9  15
ENDBRANCH   2   5
BRANCH   1  20
HETATM   20  C   UNL     1      27.857  44.062  52.654  1.00  0.00     0.150 A 
HETATM   21  C   UNL     1      28.970  43.534  53.298  1.00  0.00    -0.009 A 
HETATM   22  C   UNL     1      29.816  42.408  52.822  1.00  0.00     0.052 C 
HETATM   23  C   UNL     1      29.150  44.312  54.481  1.00  0.00     0.009 A 
HETATM   24  C   UNL     1      28.120  45.242  54.492  1.00  0.00     0.087 A 
HETATM   25  C   UNL     1      30.076  44.340  55.541  1.00  0.00     0.051 A 
HETATM   26  O   UNL     1      27.335  45.092  53.395  1.00  0.00    -0.304 OA
HETATM   27  C   UNL     1      27.936  46.194  55.490  1.00  0.00     0.041 A 
HETATM   28  C   UNL     1      28.875  46.206  56.531  1.00  0.00     0.039 A 
HETATM   29  C   UNL     1      29.941  45.300  56.556  1.00  0.00     0.069 A 
BRANCH  29  30
HETATM   30  O   UNL     1      30.914  45.241  57.518  1.00  0.00    -0.356 OA
HETATM   31  C   UNL     1      31.553  43.985  57.712  1.00  0.00     0.210 C 
ENDBRANCH  29  30
ENDBRANCH   1  20
TORSDOF 4
ENDMDL
