MODEL 1
REMARK VINA RESULT:     -10.2      0.000      0.000
REMARK  2 active torsions:
REMARK  status: ('A' for Active; 'I' for Inactive)
REMARK    1  A    between atoms: C_4  and  C_5 
REMARK       I    between atoms: N_12  and  C_13 
REMARK    2  A    between atoms: C_13  and  C_14 
ROOT
HETATM    1  C   UNL     1      28.539  45.973  55.641  1.00  0.00     0.097 A 
HETATM    2  N   UNL     1      28.044  47.023  56.325  1.00  0.00    -0.173 NA
HETATM    3  N   UNL     1      27.027  47.480  55.580  1.00  0.00    -0.281 N 
HETATM    4  H   UNL     1      26.496  48.274  55.924  1.00  0.00     0.189 HD
HETATM    5  C   UNL     1      26.841  46.757  54.450  1.00  0.00     0.039 A 
HETATM    6  C   UNL     1      27.812  45.784  54.429  1.00  0.00     0.015 A 
HETATM    7  C   UNL     1      27.933  44.773  53.345  1.00  0.00     0.169 C 
HETATM    8  N   UNL     1      26.742  44.802  52.461  1.00  0.00    -0.343 N 
HETATM    9  C   UNL     1      26.519  43.821  51.488  1.00  0.00     0.254 C 
HETATM   10  O   UNL     1      25.727  43.954  50.557  1.00  0.00    -0.267 OA
HETATM   11  C   UNL     1      26.138  46.126  52.188  1.00  0.00     0.132 C 
HETATM   12  C   UNL     1      25.760  46.916  53.455  1.00  0.00     0.079 C 
ENDROOT
BRANCH   9  13
HETATM   13  C   UNL     1      27.303  42.569  51.517  1.00  0.00     0.035 A 
HETATM   14  C   UNL     1      27.434  41.855  50.320  1.00  0.00     0.056 A 
HETATM   15  C   UNL     1      28.139  40.674  50.361  1.00  0.00     0.106 A 
HETATM   16  C   UNL     1      28.691  40.198  51.528  1.00  0.00     0.105 A 
HETATM   17  O   UNL     1      28.373  39.853  49.303  1.00  0.00    -0.323 OA
HETATM   18  O   UNL     1      29.342  39.018  51.347  1.00  0.00    -0.323 OA
HETATM   19  C   UNL     1      28.559  40.871  52.725  1.00  0.00     0.041 A 
HETATM   20  C   UNL     1      29.111  38.790  49.941  1.00  0.00     0.352 A 
HETATM   21  C   UNL     1      27.841  42.071  52.722  1.00  0.00     0.020 A 
ENDBRANCH   9  13
BRANCH   1  22
HETATM   22  C   UNL     1      29.637  45.176  56.194  1.00  0.00    -0.005 A 
HETATM   23  C   UNL     1      30.155  45.492  57.460  1.00  0.00     0.014 A 
HETATM   24  C   UNL     1      31.179  44.730  58.027  1.00  0.00     0.001 A 
HETATM   25  C   UNL     1      31.701  43.642  57.331  1.00  0.00     0.000 A 
HETATM   26  C   UNL     1      31.208  43.325  56.067  1.00  0.00     0.001 A 
HETATM   27  C   UNL     1      30.185  44.089  55.498  1.00  0.00     0.014 A 
ENDBRANCH   1  22
TORSDOF 2
ENDMDL
MODEL 2
REMARK VINA RESULT:      -9.9      2.960      6.080
REMARK  2 active torsions:
REMARK  status: ('A' for Active; 'I' for Inactive)
REMARK    1  A    between atoms: C_4  and  C_5 
REMARK       I    between atoms: N_12  and  C_13 
REMARK    2  A    between atoms: C_13  and  C_14 
ROOT
HETATM    1  C   UNL     1      28.116  42.650  53.414  1.00  0.00     0.097 A 
HETATM    2  N   UNL     1      28.797  41.521  53.697  1.00  0.00    -0.173 NA
HETATM    3  N   UNL     1      28.404  40.633  52.772  1.00  0.00    -0.281 N 
HETATM    4  H   UNL     1      28.812  39.704  52.792  1.00  0.00     0.189 HD
HETATM    5  C   UNL     1      27.507  41.150  51.899  1.00  0.00     0.039 A 
HETATM    6  C   UNL     1      27.267  42.447  52.287  1.00  0.00     0.015 A 
HETATM    7  C   UNL     1      26.341  43.359  51.564  1.00  0.00     0.169 C 
HETATM    8  N   UNL     1      25.932  42.774  50.264  1.00  0.00    -0.343 N 
HETATM    9  C   UNL     1      25.225  43.513  49.309  1.00  0.00     0.254 C 
HETATM   10  O   UNL     1      24.621  43.006  48.366  1.00  0.00    -0.267 OA
HETATM   11  C   UNL     1      25.727  41.307  50.220  1.00  0.00     0.132 C 
HETATM   12  C   UNL     1      26.940  40.490  50.704  1.00  0.00     0.079 C 
ENDROOT
BRANCH   9  13
HETATM   13  C   UNL     1      25.132  44.982  49.443  1.00  0.00     0.035 A 
HETATM   14  C   UNL     1      23.875  45.573  49.264  1.00  0.00     0.056 A 
HETATM   15  C   UNL     1      23.801  46.943  49.360  1.00  0.00     0.106 A 
HETATM   16  C   UNL     1      24.912  47.715  49.612  1.00  0.00     0.105 A 
HETATM   17  O   UNL     1      22.671  47.688  49.220  1.00  0.00    -0.323 OA
HETATM   18  O   UNL     1      24.617  49.042  49.664  1.00  0.00    -0.323 OA
HETATM   19  C   UNL     1      26.165  47.160  49.771  1.00  0.00     0.041 A 
HETATM   20  C   UNL     1      23.201  49.019  49.387  1.00  0.00     0.352 A 
HETATM   21  C   UNL     1      26.279  45.770  49.673  1.00  0.00     0.020 A 
ENDBRANCH   9  13
BRANCH   1  22
HETATM   22  C   UNL     1      28.344  43.870  54.193  1.00  0.00    -0.005 A 
HETATM   23  C   UNL     1      29.523  44.004  54.943  1.00  0.00     0.014 A 
HETATM   24  C   UNL     1      29.783  45.169  55.668  1.00  0.00     0.001 A 
HETATM   25  C   UNL     1      28.863  46.216  55.654  1.00  0.00     0.000 A 
HETATM   26  C   UNL     1      27.682  46.091  54.925  1.00  0.00     0.001 A 
HETATM   27  C   UNL     1      27.420  44.924  54.202  1.00  0.00     0.014 A 
ENDBRANCH   1  22
TORSDOF 2
ENDMDL
MODEL 3
REMARK VINA RESULT:      -9.3      6.016      7.916
REMARK  2 active torsions:
REMARK  status: ('A' for Active; 'I' for Inactive)
REMARK    1  A    between atoms: C_4  and  C_5 
REMARK       I    between atoms: N_12  and  C_13 
REMARK    2  A    between atoms: C_13  and  C_14 
ROOT
HETATM    1  C   UNL     1      23.375  49.357  49.130  1.00  0.00     0.097 A 
HETATM    2  N   UNL     1      22.875  50.553  49.498  1.00  0.00    -0.173 NA
HETATM    3  N   UNL     1      21.543  50.400  49.473  1.00  0.00    -0.281 N 
HETATM    4  H   UNL     1      20.961  51.189  49.736  1.00  0.00     0.189 HD
HETATM    5  C   UNL     1      21.167  49.149  49.117  1.00  0.00     0.039 A 
HETATM    6  C   UNL     1      22.318  48.441  48.858  1.00  0.00     0.015 A 
HETATM    7  C   UNL     1      22.323  47.011  48.447  1.00  0.00     0.169 C 
HETATM    8  N   UNL     1      20.975  46.412  48.605  1.00  0.00    -0.343 N 
HETATM    9  C   UNL     1      20.757  45.035  48.476  1.00  0.00     0.254 C 
HETATM   10  O   UNL     1      19.647  44.534  48.309  1.00  0.00    -0.267 OA
HETATM   11  C   UNL     1      19.813  47.277  48.298  1.00  0.00     0.132 C 
HETATM   12  C   UNL     1      19.794  48.604  49.080  1.00  0.00     0.079 C 
ENDROOT
BRANCH   9  13
HETATM   13  C   UNL     1      21.909  44.109  48.478  1.00  0.00     0.035 A 
HETATM   14  C   UNL     1      22.499  43.808  49.712  1.00  0.00     0.056 A 
HETATM   15  C   UNL     1      23.590  42.969  49.703  1.00  0.00     0.106 A 
HETATM   16  C   UNL     1      24.096  42.447  48.535  1.00  0.00     0.105 A 
HETATM   17  O   UNL     1      24.286  42.563  50.798  1.00  0.00    -0.323 OA
HETATM   18  O   UNL     1      25.173  41.646  48.752  1.00  0.00    -0.323 OA
HETATM   19  C   UNL     1      23.546  42.744  47.305  1.00  0.00     0.041 A 
HETATM   20  C   UNL     1      25.306  41.748  50.185  1.00  0.00     0.352 A 
HETATM   21  C   UNL     1      22.441  43.600  47.275  1.00  0.00     0.020 A 
ENDBRANCH   9  13
BRANCH   1  22
HETATM   22  C   UNL     1      24.822  49.132  49.107  1.00  0.00    -0.005 A 
HETATM   23  C   UNL     1      25.652  50.022  48.406  1.00  0.00     0.014 A 
HETATM   24  C   UNL     1      27.038  49.852  48.392  1.00  0.00     0.001 A 
HETATM   25  C   UNL     1      27.613  48.784  49.079  1.00  0.00     0.000 A 
HETATM   26  C   UNL     1      26.802  47.884  49.767  1.00  0.00     0.001 A 
HETATM   27  C   UNL     1      25.414  48.053  49.778  1.00  0.00     0.014 A 
ENDBRANCH   1  22
TORSDOF 2
ENDMDL
MODEL 4
REMARK VINA RESULT:      -9.2      3.599      7.918
REMARK  2 active torsions:
REMARK  status: ('A' for Active; 'I' for Inactive)
REMARK    1  A    between atoms: C_4  and  C_5 
REMARK       I    between atoms: N_12  and  C_13 
REMARK    2  A    between atoms: C_13  and  C_14 
ROOT
HETATM    1  C   UNL     1      28.122  40.507  50.055  1.00  0.00     0.097 A 
HETATM    2  N   UNL     1      28.731  39.399  50.522  1.00  0.00    -0.173 NA
HETATM    3  N   UNL     1      29.038  39.678  51.798  1.00  0.00    -0.281 N 
HETATM    4  H   UNL     1      29.497  38.962  52.351  1.00  0.00     0.189 HD
HETATM    5  C   UNL     1      28.638  40.917  52.172  1.00  0.00     0.039 A 
HETATM    6  C   UNL     1      28.062  41.505  51.070  1.00  0.00     0.015 A 
HETATM    7  C   UNL     1      27.483  42.875  51.084  1.00  0.00     0.169 C 
HETATM    8  N   UNL     1      27.386  43.393  52.471  1.00  0.00    -0.343 N 
HETATM    9  C   UNL     1      26.696  44.573  52.774  1.00  0.00     0.254 C 
HETATM   10  O   UNL     1      26.830  45.187  53.830  1.00  0.00    -0.267 OA
HETATM   11  C   UNL     1      28.477  43.030  53.404  1.00  0.00     0.132 C 
HETATM   12  C   UNL     1      28.724  41.514  53.521  1.00  0.00     0.079 C 
ENDROOT
BRANCH   9  13
HETATM   13  C   UNL     1      25.795  45.172  51.768  1.00  0.00     0.035 A 
HETATM   14  C   UNL     1      26.012  46.509  51.414  1.00  0.00     0.056 A 
HETATM   15  C   UNL     1      25.150  47.070  50.500  1.00  0.00     0.106 A 
HETATM   16  C   UNL     1      24.105  46.359  49.955  1.00  0.00     0.105 A 
HETATM   17  O   UNL     1      25.207  48.347  50.036  1.00  0.00    -0.323 OA
HETATM   18  O   UNL     1      23.378  47.101  49.078  1.00  0.00    -0.323 OA
HETATM   19  C   UNL     1      23.857  45.046  50.302  1.00  0.00     0.041 A 
HETATM   20  C   UNL     1      24.064  48.368  49.156  1.00  0.00     0.352 A 
HETATM   21  C   UNL     1      24.709  44.447  51.235  1.00  0.00     0.020 A 
ENDBRANCH   9  13
BRANCH   1  22
HETATM   22  C   UNL     1      27.585  40.541  48.692  1.00  0.00    -0.005 A 
HETATM   23  C   UNL     1      28.447  40.795  47.613  1.00  0.00     0.014 A 
HETATM   24  C   UNL     1      27.970  40.802  46.300  1.00  0.00     0.001 A 
HETATM   25  C   UNL     1      26.622  40.557  46.050  1.00  0.00     0.000 A 
HETATM   26  C   UNL     1      25.751  40.318  47.112  1.00  0.00     0.001 A 
HETATM   27  C   UNL     1      26.228  40.314  48.426  1.00  0.00     0.014 A 
ENDBRANCH   1  22
TORSDOF 2
ENDMDL
MODEL 5
REMARK VINA RESULT:      -9.1      2.441      5.462
REMARK  2 active torsions:
REMARK  status: ('A' for Active; 'I' for Inactive)
REMARK    1  A    between atoms: C_4  and  C_5 
REMARK       I    between atoms: N_12  and  C_13 
REMARK    2  A    between atoms: C_13  and  C_14 
ROOT
HETATM    1  C   UNL     1      28.779  45.130  55.085  1.00  0.00     0.097 A 
HETATM    2  N   UNL     1      29.896  44.781  55.755  1.00  0.00    -0.173 NA
HETATM    3  N   UNL     1      30.395  43.732  55.084  1.00  0.00    -0.281 N 
HETATM    4  H   UNL     1      31.259  43.315  55.416  1.00  0.00     0.189 HD
HETATM    5  C   UNL     1      29.651  43.401  54.002  1.00  0.00     0.039 A 
HETATM    6  C   UNL     1      28.577  44.260  53.973  1.00  0.00     0.015 A 
HETATM    7  C   UNL     1      27.530  44.224  52.917  1.00  0.00     0.169 C 
HETATM    8  N   UNL     1      27.936  43.335  51.802  1.00  0.00    -0.343 N 
HETATM    9  C   UNL     1      27.220  43.281  50.600  1.00  0.00     0.254 C 
HETATM   10  O   UNL     1      27.335  42.373  49.779  1.00  0.00    -0.267 OA
HETATM   11  C   UNL     1      28.686  42.108  52.157  1.00  0.00     0.132 C 
HETATM   12  C   UNL     1      29.955  42.369  52.990  1.00  0.00     0.079 C 
ENDROOT
BRANCH   9  13
HETATM   13  C   UNL     1      26.221  44.327  50.296  1.00  0.00     0.035 A 
HETATM   14  C   UNL     1      26.695  45.605  49.973  1.00  0.00     0.056 A 
HETATM   15  C   UNL     1      25.758  46.581  49.721  1.00  0.00     0.106 A 
HETATM   16  C   UNL     1      24.408  46.327  49.790  1.00  0.00     0.105 A 
HETATM   17  O   UNL     1      26.029  47.872  49.390  1.00  0.00    -0.323 OA
HETATM   18  O   UNL     1      23.661  47.428  49.507  1.00  0.00    -0.323 OA
HETATM   19  C   UNL     1      23.915  45.083  50.125  1.00  0.00     0.041 A 
HETATM   20  C   UNL     1      24.695  48.410  49.283  1.00  0.00     0.352 A 
HETATM   21  C   UNL     1      24.839  44.068  50.396  1.00  0.00     0.020 A 
ENDBRANCH   9  13
BRANCH   1  22
HETATM   22  C   UNL     1      27.995  46.295  55.501  1.00  0.00    -0.005 A 
HETATM   23  C   UNL     1      27.228  46.991  54.552  1.00  0.00     0.014 A 
HETATM   24  C   UNL     1      26.445  48.085  54.926  1.00  0.00     0.001 A 
HETATM   25  C   UNL     1      26.421  48.499  56.256  1.00  0.00     0.000 A 
HETATM   26  C   UNL     1      27.188  47.828  57.207  1.00  0.00     0.001 A 
HETATM   27  C   UNL     1      27.974  46.735  56.832  1.00  0.00     0.014 A 
ENDBRANCH   1  22
TORSDOF 2
ENDMDL
MODEL 6
REMARK VINA RESULT:      -9.1      2.608      5.398
REMARK  2 active torsions:
REMARK  status: ('A' for Active; 'I' for Inactive)
REMARK    1  A    between atoms: C_4  and  C_5 
REMARK       I    between atoms: N_12  and  C_13 
REMARK    2  A    between atoms: C_13  and  C_14 
ROOT
HETATM    1  C   UNL     1      28.393  44.613  54.494  1.00  0.00     0.097 A 
HETATM    2  N   UNL     1      29.519  44.341  55.183  1.00  0.00    -0.173 NA
HETATM    3  N   UNL     1      29.936  43.154  54.720  1.00  0.00    -0.281 N 
HETATM    4  H   UNL     1      30.792  42.763  55.100  1.00  0.00     0.189 HD
HETATM    5  C   UNL     1      29.130  42.658  53.752  1.00  0.00     0.039 A 
HETATM    6  C   UNL     1      28.100  43.553  53.586  1.00  0.00     0.015 A 
HETATM    7  C   UNL     1      27.006  43.368  52.595  1.00  0.00     0.169 C 
HETATM    8  N   UNL     1      27.319  42.254  51.667  1.00  0.00    -0.343 N 
HETATM    9  C   UNL     1      26.550  42.004  50.525  1.00  0.00     0.254 C 
HETATM   10  O   UNL     1      26.584  40.946  49.899  1.00  0.00    -0.267 OA
HETATM   11  C   UNL     1      28.023  41.081  52.235  1.00  0.00     0.132 C 
HETATM   12  C   UNL     1      29.339  41.430  52.957  1.00  0.00     0.079 C 
ENDROOT
BRANCH   9  13
HETATM   13  C   UNL     1      25.591  43.023  50.051  1.00  0.00     0.035 A 
HETATM   14  C   UNL     1      24.241  42.659  49.971  1.00  0.00     0.056 A 
HETATM   15  C   UNL     1      23.358  43.604  49.500  1.00  0.00     0.106 A 
HETATM   16  C   UNL     1      23.773  44.856  49.110  1.00  0.00     0.105 A 
HETATM   17  O   UNL     1      22.017  43.433  49.357  1.00  0.00    -0.323 OA
HETATM   18  O   UNL     1      22.742  45.630  48.677  1.00  0.00    -0.323 OA
HETATM   19  C   UNL     1      25.100  45.233  49.159  1.00  0.00     0.041 A 
HETATM   20  C   UNL     1      21.637  44.712  48.808  1.00  0.00     0.352 A 
HETATM   21  C   UNL     1      26.026  44.295  49.626  1.00  0.00     0.020 A 
ENDBRANCH   9  13
BRANCH   1  22
HETATM   22  C   UNL     1      27.685  45.880  54.695  1.00  0.00    -0.005 A 
HETATM   23  C   UNL     1      26.683  46.266  53.790  1.00  0.00     0.014 A 
HETATM   24  C   UNL     1      25.970  47.453  53.974  1.00  0.00     0.001 A 
HETATM   25  C   UNL     1      26.252  48.271  55.066  1.00  0.00     0.000 A 
HETATM   26  C   UNL     1      27.253  47.908  55.964  1.00  0.00     0.001 A 
HETATM   27  C   UNL     1      27.970  46.722  55.779  1.00  0.00     0.014 A 
ENDBRANCH   1  22
TORSDOF 2
ENDMDL
MODEL 7
REMARK VINA RESULT:      -8.8      3.244      6.212
REMARK  2 active torsions:
REMARK  status: ('A' for Active; 'I' for Inactive)
REMARK    1  A    between atoms: C_4  and  C_5 
REMARK       I    between atoms: N_12  and  C_13 
REMARK    2  A    between atoms: C_13  and  C_14 
ROOT
HETATM    1  C   UNL     1      28.185  41.918  52.721  1.00  0.00     0.097 A 
HETATM    2  N   UNL     1      29.164  41.018  52.942  1.00  0.00    -0.173 NA
HETATM    3  N   UNL     1      29.031  40.108  51.966  1.00  0.00    -0.281 N 
HETATM    4  H   UNL     1      29.689  39.335  51.935  1.00  0.00     0.189 HD
HETATM    5  C   UNL     1      28.015  40.394  51.118  1.00  0.00     0.039 A 
HETATM    6  C   UNL     1      27.418  41.544  51.579  1.00  0.00     0.015 A 
HETATM    7  C   UNL     1      26.261  42.192  50.904  1.00  0.00     0.169 C 
HETATM    8  N   UNL     1      26.023  41.587  49.571  1.00  0.00    -0.343 N 
HETATM    9  C   UNL     1      25.123  42.146  48.655  1.00  0.00     0.254 C 
HETATM   10  O   UNL     1      24.679  41.540  47.681  1.00  0.00    -0.267 OA
HETATM   11  C   UNL     1      26.246  40.129  49.442  1.00  0.00     0.132 C 
HETATM   12  C   UNL     1      27.648  39.668  49.885  1.00  0.00     0.079 C 
ENDROOT
BRANCH   9  13
HETATM   13  C   UNL     1      24.614  43.516  48.872  1.00  0.00     0.035 A 
HETATM   14  C   UNL     1      25.545  44.513  49.191  1.00  0.00     0.056 A 
HETATM   15  C   UNL     1      25.060  45.780  49.422  1.00  0.00     0.106 A 
HETATM   16  C   UNL     1      23.717  46.067  49.354  1.00  0.00     0.105 A 
HETATM   17  O   UNL     1      25.810  46.869  49.739  1.00  0.00    -0.323 OA
HETATM   18  O   UNL     1      23.455  47.375  49.618  1.00  0.00    -0.323 OA
HETATM   19  C   UNL     1      22.777  45.100  49.062  1.00  0.00     0.041 A 
HETATM   20  C   UNL     1      24.783  47.871  49.889  1.00  0.00     0.352 A 
HETATM   21  C   UNL     1      23.233  43.798  48.829  1.00  0.00     0.020 A 
ENDBRANCH   9  13
BRANCH   1  22
HETATM   22  C   UNL     1      28.062  43.106  53.569  1.00  0.00    -0.005 A 
HETATM   23  C   UNL     1      26.792  43.649  53.822  1.00  0.00     0.014 A 
HETATM   24  C   UNL     1      26.641  44.762  54.653  1.00  0.00     0.001 A 
HETATM   25  C   UNL     1      27.761  45.348  55.239  1.00  0.00     0.000 A 
HETATM   26  C   UNL     1      29.029  44.829  54.985  1.00  0.00     0.001 A 
HETATM   27  C   UNL     1      29.181  43.718  54.151  1.00  0.00     0.014 A 
ENDBRANCH   1  22
TORSDOF 2
ENDMDL
MODEL 8
REMARK VINA RESULT:      -8.7      2.715      5.639
REMARK  2 active torsions:
REMARK  status: ('A' for Active; 'I' for Inactive)
REMARK    1  A    between atoms: C_4  and  C_5 
REMARK       I    between atoms: N_12  and  C_13 
REMARK    2  A    between atoms: C_13  and  C_14 
ROOT
HETATM    1  C   UNL     1      26.779  44.856  52.587  1.00  0.00     0.097 A 
HETATM    2  N   UNL     1      27.250  45.572  53.627  1.00  0.00    -0.173 NA
HETATM    3  N   UNL     1      28.110  44.757  54.254  1.00  0.00    -0.281 N 
HETATM    4  H   UNL     1      28.599  45.108  55.072  1.00  0.00     0.189 HD
HETATM    5  C   UNL     1      28.220  43.549  53.651  1.00  0.00     0.039 A 
HETATM    6  C   UNL     1      27.357  43.553  52.580  1.00  0.00     0.015 A 
HETATM    7  C   UNL     1      27.199  42.400  51.653  1.00  0.00     0.169 C 
HETATM    8  N   UNL     1      28.255  41.386  51.888  1.00  0.00    -0.343 N 
HETATM    9  C   UNL     1      28.448  40.304  51.021  1.00  0.00     0.254 C 
HETATM   10  O   UNL     1      29.094  39.301  51.318  1.00  0.00    -0.267 OA
HETATM   11  C   UNL     1      28.681  41.169  53.290  1.00  0.00     0.132 C 
HETATM   12  C   UNL     1      29.139  42.451  54.012  1.00  0.00     0.079 C 
ENDROOT
BRANCH   9  13
HETATM   13  C   UNL     1      27.805  40.309  49.691  1.00  0.00     0.035 A 
HETATM   14  C   UNL     1      28.553  40.791  48.609  1.00  0.00     0.056 A 
HETATM   15  C   UNL     1      27.937  40.821  47.378  1.00  0.00     0.106 A 
HETATM   16  C   UNL     1      26.637  40.406  47.206  1.00  0.00     0.105 A 
HETATM   17  O   UNL     1      28.504  41.250  46.219  1.00  0.00    -0.323 OA
HETATM   18  O   UNL     1      26.226  40.521  45.915  1.00  0.00    -0.323 OA
HETATM   19  C   UNL     1      25.872  39.947  48.259  1.00  0.00     0.041 A 
HETATM   20  C   UNL     1      27.404  41.083  45.301  1.00  0.00     0.352 A 
HETATM   21  C   UNL     1      26.463  39.910  49.526  1.00  0.00     0.020 A 
ENDBRANCH   9  13
BRANCH   1  22
HETATM   22  C   UNL     1      25.848  45.459  51.629  1.00  0.00    -0.005 A 
HETATM   23  C   UNL     1      26.028  46.795  51.235  1.00  0.00     0.014 A 
HETATM   24  C   UNL     1      25.177  47.387  50.299  1.00  0.00     0.001 A 
HETATM   25  C   UNL     1      24.132  46.649  49.747  1.00  0.00     0.000 A 
HETATM   26  C   UNL     1      23.932  45.327  50.139  1.00  0.00     0.001 A 
HETATM   27  C   UNL     1      24.782  44.736  51.078  1.00  0.00     0.014 A 
ENDBRANCH   1  22
TORSDOF 2
ENDMDL
MODEL 9
REMARK VINA RESULT:      -8.6      3.259      6.173
REMARK  2 active torsions:
REMARK  status: ('A' for Active; 'I' for Inactive)
REMARK    1  A    between atoms: C_4  and  C_5 
REMARK       I    between atoms: N_12  and  C_13 
REMARK    2  A    between atoms: C_13  and  C_14 
ROOT
HETATM    1  C   UNL     1      28.265  43.019  52.895  1.00  0.00     0.097 A 
HETATM    2  N   UNL     1      29.408  42.393  53.238  1.00  0.00    -0.173 NA
HETATM    3  N   UNL     1      29.436  41.280  52.491  1.00  0.00    -0.281 N 
HETATM    4  H   UNL     1      30.234  40.659  52.582  1.00  0.00     0.189 HD
HETATM    5  C   UNL     1      28.363  41.172  51.672  1.00  0.00     0.039 A 
HETATM    6  C   UNL     1      27.560  42.261  51.915  1.00  0.00     0.015 A 
HETATM    7  C   UNL     1      26.281  42.511  51.197  1.00  0.00     0.169 C 
HETATM    8  N   UNL     1      26.136  41.589  50.043  1.00  0.00    -0.343 N 
HETATM    9  C   UNL     1      25.121  41.748  49.092  1.00  0.00     0.254 C 
HETATM   10  O   UNL     1      24.783  40.867  48.304  1.00  0.00    -0.267 OA
HETATM   11  C   UNL     1      26.643  40.208  50.216  1.00  0.00     0.132 C 
HETATM   12  C   UNL     1      28.118  40.132  50.652  1.00  0.00     0.079 C 
ENDROOT
BRANCH   9  13
HETATM   13  C   UNL     1      24.355  43.010  49.044  1.00  0.00     0.035 A 
HETATM   14  C   UNL     1      22.972  42.924  48.840  1.00  0.00     0.056 A 
HETATM   15  C   UNL     1      22.269  44.105  48.765  1.00  0.00     0.106 A 
HETATM   16  C   UNL     1      22.889  45.328  48.877  1.00  0.00     0.105 A 
HETATM   17  O   UNL     1      20.927  44.217  48.576  1.00  0.00    -0.323 OA
HETATM   18  O   UNL     1      22.011  46.362  48.773  1.00  0.00    -0.323 OA
HETATM   19  C   UNL     1      24.252  45.441  49.058  1.00  0.00     0.041 A 
HETATM   20  C   UNL     1      20.775  45.652  48.554  1.00  0.00     0.352 A 
HETATM   21  C   UNL     1      24.999  44.262  49.130  1.00  0.00     0.020 A 
ENDBRANCH   9  13
BRANCH   1  22
HETATM   22  C   UNL     1      27.927  44.322  53.474  1.00  0.00    -0.005 A 
HETATM   23  C   UNL     1      28.680  44.818  54.551  1.00  0.00     0.014 A 
HETATM   24  C   UNL     1      28.403  46.071  55.103  1.00  0.00     0.001 A 
HETATM   25  C   UNL     1      27.365  46.844  54.584  1.00  0.00     0.000 A 
HETATM   26  C   UNL     1      26.600  46.359  53.525  1.00  0.00     0.001 A 
HETATM   27  C   UNL     1      26.876  45.103  52.976  1.00  0.00     0.014 A 
ENDBRANCH   1  22
TORSDOF 2
ENDMDL
MODEL 10
REMARK VINA RESULT:      -8.5      8.012     12.449
REMARK  2 active torsions:
REMARK  status: ('A' for Active; 'I' for Inactive)
REMARK    1  A    between atoms: C_4  and  C_5 
REMARK       I    between atoms: N_12  and  C_13 
REMARK    2  A    between atoms: C_13  and  C_14 
ROOT
HETATM    1  C   UNL     1      21.325  44.946  48.131  1.00  0.00     0.097 A 
HETATM    2  N   UNL     1      22.015  43.852  48.509  1.00  0.00    -0.173 NA
HETATM    3  N   UNL     1      23.105  44.321  49.133  1.00  0.00    -0.281 N 
HETATM    4  H   UNL     1      23.766  43.653  49.517  1.00  0.00     0.189 HD
HETATM    5  C   UNL     1      23.137  45.674  49.182  1.00  0.00     0.039 A 
HETATM    6  C   UNL     1      22.019  46.128  48.523  1.00  0.00     0.015 A 
HETATM    7  C   UNL     1      21.688  47.571  48.373  1.00  0.00     0.169 C 
HETATM    8  N   UNL     1      22.565  48.405  49.229  1.00  0.00    -0.343 N 
HETATM    9  C   UNL     1      22.330  49.771  49.422  1.00  0.00     0.254 C 
HETATM   10  O   UNL     1      23.169  50.551  49.869  1.00  0.00    -0.267 OA
HETATM   11  C   UNL     1      23.973  47.970  49.377  1.00  0.00     0.132 C 
HETATM   12  C   UNL     1      24.133  46.520  49.872  1.00  0.00     0.079 C 
ENDROOT
BRANCH   9  13
HETATM   13  C   UNL     1      21.032  50.353  49.022  1.00  0.00     0.035 A 
HETATM   14  C   UNL     1      20.054  50.506  50.013  1.00  0.00     0.056 A 
HETATM   15  C   UNL     1      18.837  51.020  49.627  1.00  0.00     0.106 A 
HETATM   16  C   UNL     1      18.575  51.366  48.321  1.00  0.00     0.105 A 
HETATM   17  O   UNL     1      17.776  51.242  50.447  1.00  0.00    -0.323 OA
HETATM   18  O   UNL     1      17.315  51.850  48.159  1.00  0.00    -0.323 OA
HETATM   19  C   UNL     1      19.513  51.206  47.322  1.00  0.00     0.041 A 
HETATM   20  C   UNL     1      16.804  51.742  49.504  1.00  0.00     0.352 A 
HETATM   21  C   UNL     1      20.759  50.679  47.677  1.00  0.00     0.020 A 
ENDBRANCH   9  13
BRANCH   1  22
HETATM   22  C   UNL     1      20.026  44.814  47.467  1.00  0.00    -0.005 A 
HETATM   23  C   UNL     1      18.897  45.440  48.020  1.00  0.00     0.014 A 
HETATM   24  C   UNL     1      17.653  45.359  47.391  1.00  0.00     0.001 A 
HETATM   25  C   UNL     1      17.521  44.647  46.200  1.00  0.00     0.000 A 
HETATM   26  C   UNL     1      18.630  44.008  45.647  1.00  0.00     0.001 A 
HETATM   27  C   UNL     1      19.875  44.087  46.278  1.00  0.00     0.014 A 
ENDBRANCH   1  22
TORSDOF 2
ENDMDL
