MODEL 1
REMARK VINA RESULT:      -8.7      0.000      0.000
REMARK  6 active torsions:
REMARK  status: ('A' for Active; 'I' for Inactive)
REMARK    1  A    between atoms: C_3  and  C_4 
REMARK    2  A    between atoms: C_9  and  C_10 
REMARK    3  A    between atoms: C_10  and  O_11 
REMARK    4  A    between atoms: C_10  and  C_12 
REMARK    5  A    between atoms: C_12  and  N_13 
REMARK    6  A    between atoms: C_17  and  C_18 
ROOT
HETATM    1  C   UNL     1      26.486  44.127  53.860  1.00  0.00     0.271 C 
ENDROOT
BRANCH   1   2
HETATM    2  C   UNL     1      27.555  45.231  54.084  1.00  0.00     0.177 C 
BRANCH   2   3
HETATM    3  C   UNL     1      28.780  44.727  54.819  1.00  0.00    -0.027 A 
HETATM    4  C   UNL     1      29.172  45.256  56.062  1.00  0.00     0.025 A 
HETATM    5  C   UNL     1      30.297  44.760  56.745  1.00  0.00     0.048 A 
HETATM    6  C   UNL     1      31.043  43.730  56.161  1.00  0.00     0.016 A 
HETATM    7  C   UNL     1      30.670  43.201  54.927  1.00  0.00     0.001 A 
HETATM    8  C   UNL     1      29.546  43.692  54.261  1.00  0.00     0.010 A 
BRANCH   5   9
HETATM    9  C   UNL     1      30.689  45.354  58.080  1.00  0.00     0.417 C 
HETATM   10  F   UNL     1      30.943  46.687  58.034  1.00  0.00    -0.166 F 
HETATM   11  F   UNL     1      29.734  45.171  59.028  1.00  0.00    -0.166 F 
HETATM   12  F   UNL     1      31.820  44.768  58.567  1.00  0.00    -0.166 F 
ENDBRANCH   5   9
ENDBRANCH   2   3
BRANCH   2  13
HETATM   13  O   UNL     1      26.979  46.350  54.754  1.00  0.00    -0.389 OA
HETATM   14  H   UNL     1      27.501  46.495  55.568  1.00  0.00     0.210 HD
ENDBRANCH   2  13
ENDBRANCH   1   2
BRANCH   1  15
HETATM   15  N   UNL     1      26.060  43.939  52.392  1.00  0.00    -0.068 N 
HETATM   16  H   UNL     1      25.937  42.929  52.245  1.00  0.00     0.280 HD
HETATM   17  C   UNL     1      24.736  44.610  52.081  1.00  0.00     0.235 C 
HETATM   18  C   UNL     1      24.370  44.392  50.617  1.00  0.00     0.037 C 
HETATM   19  C   UNL     1      25.454  44.908  49.660  1.00  0.00     0.025 C 
HETATM   20  C   UNL     1      26.771  44.203  50.015  1.00  0.00     0.037 C 
HETATM   21  C   UNL     1      27.163  44.409  51.472  1.00  0.00     0.235 C 
BRANCH  19  22
HETATM   22  C   UNL     1      25.553  46.412  49.638  1.00  0.00    -0.018 A 
HETATM   23  C   UNL     1      24.513  47.373  49.723  1.00  0.00     0.147 A 
HETATM   24  N   UNL     1      24.956  48.625  49.641  1.00  0.00    -0.187 NA
HETATM   25  N   UNL     1      26.288  48.497  49.615  1.00  0.00    -0.289 N 
HETATM   26  H   UNL     1      26.857  49.339  49.613  1.00  0.00     0.188 HD
HETATM   27  C   UNL     1      26.694  47.192  49.591  1.00  0.00     0.118 A 
ENDBRANCH  19  22
ENDBRANCH   1  15
TORSDOF 6
ENDMDL
MODEL 2
REMARK VINA RESULT:      -8.4      1.924      2.535
REMARK  6 active torsions:
REMARK  status: ('A' for Active; 'I' for Inactive)
REMARK    1  A    between atoms: C_3  and  C_4 
REMARK    2  A    between atoms: C_9  and  C_10 
REMARK    3  A    between atoms: C_10  and  O_11 
REMARK    4  A    between atoms: C_10  and  C_12 
REMARK    5  A    between atoms: C_12  and  N_13 
REMARK    6  A    between atoms: C_17  and  C_18 
ROOT
HETATM    1  C   UNL     1      27.100  44.018  51.188  1.00  0.00     0.271 C 
ENDROOT
BRANCH   1   2
HETATM    2  C   UNL     1      27.082  43.113  52.450  1.00  0.00     0.177 C 
BRANCH   2   3
HETATM    3  C   UNL     1      28.226  43.402  53.400  1.00  0.00    -0.027 A 
HETATM    4  C   UNL     1      28.211  44.507  54.269  1.00  0.00     0.025 A 
HETATM    5  C   UNL     1      29.269  44.747  55.164  1.00  0.00     0.048 A 
HETATM    6  C   UNL     1      30.361  43.871  55.173  1.00  0.00     0.016 A 
HETATM    7  C   UNL     1      30.392  42.775  54.312  1.00  0.00     0.001 A 
HETATM    8  C   UNL     1      29.332  42.539  53.435  1.00  0.00     0.010 A 
BRANCH   5   9
HETATM    9  C   UNL     1      29.218  45.947  56.084  1.00  0.00     0.417 C 
HETATM   10  F   UNL     1      28.744  47.073  55.491  1.00  0.00    -0.166 F 
HETATM   11  F   UNL     1      28.446  45.728  57.179  1.00  0.00    -0.166 F 
HETATM   12  F   UNL     1      30.459  46.260  56.555  1.00  0.00    -0.166 F 
ENDBRANCH   5   9
ENDBRANCH   2   3
BRANCH   2  13
HETATM   13  O   UNL     1      27.063  41.738  52.073  1.00  0.00    -0.389 OA
HETATM   14  H   UNL     1      27.947  41.529  51.713  1.00  0.00     0.210 HD
ENDBRANCH   2  13
ENDBRANCH   1   2
BRANCH   1  15
HETATM   15  N   UNL     1      25.919  45.003  51.092  1.00  0.00    -0.068 N 
HETATM   16  H   UNL     1      25.128  44.568  51.584  1.00  0.00     0.280 HD
HETATM   17  C   UNL     1      26.209  46.326  51.773  1.00  0.00     0.235 C 
HETATM   18  C   UNL     1      25.008  47.256  51.642  1.00  0.00     0.037 C 
HETATM   19  C   UNL     1      24.613  47.498  50.178  1.00  0.00     0.025 C 
HETATM   20  C   UNL     1      24.333  46.134  49.534  1.00  0.00     0.037 C 
HETATM   21  C   UNL     1      25.518  45.185  49.646  1.00  0.00     0.235 C 
BRANCH  19  22
HETATM   22  C   UNL     1      25.619  48.333  49.427  1.00  0.00    -0.018 A 
HETATM   23  C   UNL     1      25.393  49.431  48.558  1.00  0.00     0.147 A 
HETATM   24  N   UNL     1      26.515  49.920  48.037  1.00  0.00    -0.187 NA
HETATM   25  N   UNL     1      27.485  49.223  48.642  1.00  0.00    -0.289 N 
HETATM   26  H   UNL     1      28.452  49.464  48.444  1.00  0.00     0.188 HD
HETATM   27  C   UNL     1      26.999  48.248  49.468  1.00  0.00     0.118 A 
ENDBRANCH  19  22
ENDBRANCH   1  15
TORSDOF 6
ENDMDL
MODEL 3
REMARK VINA RESULT:      -8.3      2.776      3.610
REMARK  6 active torsions:
REMARK  status: ('A' for Active; 'I' for Inactive)
REMARK    1  A    between atoms: C_3  and  C_4 
REMARK    2  A    between atoms: C_9  and  C_10 
REMARK    3  A    between atoms: C_10  and  O_11 
REMARK    4  A    between atoms: C_10  and  C_12 
REMARK    5  A    between atoms: C_12  and  N_13 
REMARK    6  A    between atoms: C_17  and  C_18 
ROOT
HETATM    1  C   UNL     1      27.711  42.115  53.186  1.00  0.00     0.271 C 
ENDROOT
BRANCH   1   2
HETATM    2  C   UNL     1      29.170  42.115  53.719  1.00  0.00     0.177 C 
BRANCH   2   3
HETATM    3  C   UNL     1      29.486  43.324  54.575  1.00  0.00    -0.027 A 
HETATM    4  C   UNL     1      28.643  44.449  54.614  1.00  0.00     0.025 A 
HETATM    5  C   UNL     1      28.936  45.554  55.433  1.00  0.00     0.048 A 
HETATM    6  C   UNL     1      30.100  45.530  56.211  1.00  0.00     0.016 A 
HETATM    7  C   UNL     1      30.948  44.424  56.177  1.00  0.00     0.001 A 
HETATM    8  C   UNL     1      30.643  43.328  55.369  1.00  0.00     0.010 A 
BRANCH   5   9
HETATM    9  C   UNL     1      28.006  46.747  55.449  1.00  0.00     0.417 C 
HETATM   10  F   UNL     1      27.751  47.228  56.693  1.00  0.00    -0.166 F 
HETATM   11  F   UNL     1      28.486  47.786  54.719  1.00  0.00    -0.166 F 
HETATM   12  F   UNL     1      26.795  46.434  54.907  1.00  0.00    -0.166 F 
ENDBRANCH   5   9
ENDBRANCH   2   3
BRANCH   2  13
HETATM   13  O   UNL     1      30.092  41.996  52.638  1.00  0.00    -0.389 OA
HETATM   14  H   UNL     1      30.935  42.393  52.938  1.00  0.00     0.210 HD
ENDBRANCH   2  13
ENDBRANCH   1   2
BRANCH   1  15
HETATM   15  N   UNL     1      27.576  42.483  51.696  1.00  0.00    -0.068 N 
HETATM   16  H   UNL     1      28.510  42.382  51.278  1.00  0.00     0.280 HD
HETATM   17  C   UNL     1      26.639  41.553  50.950  1.00  0.00     0.235 C 
HETATM   18  C   UNL     1      26.544  41.968  49.487  1.00  0.00     0.037 C 
HETATM   19  C   UNL     1      26.078  43.421  49.320  1.00  0.00     0.025 C 
HETATM   20  C   UNL     1      27.053  44.321  50.092  1.00  0.00     0.037 C 
HETATM   21  C   UNL     1      27.164  43.930  51.560  1.00  0.00     0.235 C 
BRANCH  19  22
HETATM   22  C   UNL     1      24.632  43.622  49.698  1.00  0.00    -0.018 A 
HETATM   23  C   UNL     1      23.623  42.647  49.907  1.00  0.00     0.147 A 
HETATM   24  N   UNL     1      22.440  43.180  50.202  1.00  0.00    -0.187 NA
HETATM   25  N   UNL     1      22.690  44.492  50.298  1.00  0.00    -0.289 N 
HETATM   26  H   UNL     1      21.934  45.111  50.578  1.00  0.00     0.188 HD
HETATM   27  C   UNL     1      23.982  44.809  49.986  1.00  0.00     0.118 A 
ENDBRANCH  19  22
ENDBRANCH   1  15
TORSDOF 6
ENDMDL
MODEL 4
REMARK VINA RESULT:      -8.2      1.601      2.423
REMARK  6 active torsions:
REMARK  status: ('A' for Active; 'I' for Inactive)
REMARK    1  A    between atoms: C_3  and  C_4 
REMARK    2  A    between atoms: C_9  and  C_10 
REMARK    3  A    between atoms: C_10  and  O_11 
REMARK    4  A    between atoms: C_10  and  C_12 
REMARK    5  A    between atoms: C_12  and  N_13 
REMARK    6  A    between atoms: C_17  and  C_18 
ROOT
HETATM    1  C   UNL     1      28.382  43.837  51.767  1.00  0.00     0.271 C 
ENDROOT
BRANCH   1   2
HETATM    2  C   UNL     1      28.736  42.967  53.004  1.00  0.00     0.177 C 
BRANCH   2   3
HETATM    3  C   UNL     1      29.170  43.789  54.200  1.00  0.00    -0.027 A 
HETATM    4  C   UNL     1      30.113  43.312  55.128  1.00  0.00     0.025 A 
HETATM    5  C   UNL     1      30.525  44.097  56.219  1.00  0.00     0.048 A 
HETATM    6  C   UNL     1      29.969  45.371  56.386  1.00  0.00     0.016 A 
HETATM    7  C   UNL     1      29.029  45.854  55.477  1.00  0.00     0.001 A 
HETATM    8  C   UNL     1      28.634  45.071  54.391  1.00  0.00     0.010 A 
BRANCH   5   9
HETATM    9  C   UNL     1      31.541  43.551  57.197  1.00  0.00     0.417 C 
HETATM   10  F   UNL     1      31.256  42.300  57.644  1.00  0.00    -0.166 F 
HETATM   11  F   UNL     1      32.792  43.501  56.671  1.00  0.00    -0.166 F 
HETATM   12  F   UNL     1      31.631  44.338  58.307  1.00  0.00    -0.166 F 
ENDBRANCH   5   9
ENDBRANCH   2   3
BRANCH   2  13
HETATM   13  O   UNL     1      29.724  41.998  52.662  1.00  0.00    -0.389 OA
HETATM   14  H   UNL     1      29.972  41.539  53.489  1.00  0.00     0.210 HD
ENDBRANCH   2  13
ENDBRANCH   1   2
BRANCH   1  15
HETATM   15  N   UNL     1      26.905  43.765  51.336  1.00  0.00    -0.068 N 
HETATM   16  H   UNL     1      26.599  42.794  51.485  1.00  0.00     0.280 HD
HETATM   17  C   UNL     1      26.011  44.660  52.171  1.00  0.00     0.235 C 
HETATM   18  C   UNL     1      24.567  44.547  51.697  1.00  0.00     0.037 C 
HETATM   19  C   UNL     1      24.411  44.896  50.209  1.00  0.00     0.025 C 
HETATM   20  C   UNL     1      25.334  43.967  49.408  1.00  0.00     0.037 C 
HETATM   21  C   UNL     1      26.786  44.063  49.859  1.00  0.00     0.235 C 
BRANCH  19  22
HETATM   22  C   UNL     1      24.621  46.361  49.924  1.00  0.00    -0.018 A 
HETATM   23  C   UNL     1      25.826  47.109  49.952  1.00  0.00     0.147 A 
HETATM   24  N   UNL     1      25.643  48.398  49.675  1.00  0.00    -0.187 NA
HETATM   25  N   UNL     1      24.345  48.480  49.357  1.00  0.00    -0.289 N 
HETATM   26  H   UNL     1      23.977  49.375  49.047  1.00  0.00     0.188 HD
HETATM   27  C   UNL     1      23.686  47.292  49.510  1.00  0.00     0.118 A 
ENDBRANCH  19  22
ENDBRANCH   1  15
TORSDOF 6
ENDMDL
MODEL 5
REMARK VINA RESULT:      -8.2      3.300      4.525
REMARK  6 active torsions:
REMARK  status: ('A' for Active; 'I' for Inactive)
REMARK    1  A    between atoms: C_3  and  C_4 
REMARK    2  A    between atoms: C_9  and  C_10 
REMARK    3  A    between atoms: C_10  and  O_11 
REMARK    4  A    between atoms: C_10  and  C_12 
REMARK    5  A    between atoms: C_12  and  N_13 
REMARK    6  A    between atoms: C_17  and  C_18 
ROOT
HETATM    1  C   UNL     1      26.285  44.147  51.911  1.00  0.00     0.271 C 
ENDROOT
BRANCH   1   2
HETATM    2  C   UNL     1      25.900  44.550  53.361  1.00  0.00     0.177 C 
BRANCH   2   3
HETATM    3  C   UNL     1      27.093  44.979  54.191  1.00  0.00    -0.027 A 
HETATM    4  C   UNL     1      28.215  44.150  54.365  1.00  0.00     0.025 A 
HETATM    5  C   UNL     1      29.326  44.574  55.117  1.00  0.00     0.048 A 
HETATM    6  C   UNL     1      29.298  45.841  55.712  1.00  0.00     0.016 A 
HETATM    7  C   UNL     1      28.189  46.670  55.552  1.00  0.00     0.001 A 
HETATM    8  C   UNL     1      27.096  46.245  54.795  1.00  0.00     0.010 A 
BRANCH   5   9
HETATM    9  C   UNL     1      30.516  43.655  55.284  1.00  0.00     0.417 C 
HETATM   10  F   UNL     1      30.328  42.677  56.207  1.00  0.00    -0.166 F 
HETATM   11  F   UNL     1      30.858  43.036  54.124  1.00  0.00    -0.166 F 
HETATM   12  F   UNL     1      31.621  44.346  55.683  1.00  0.00    -0.166 F 
ENDBRANCH   5   9
ENDBRANCH   2   3
BRANCH   2  13
HETATM   13  O   UNL     1      25.187  43.491  53.997  1.00  0.00    -0.389 OA
HETATM   14  H   UNL     1      25.623  43.331  54.858  1.00  0.00     0.210 HD
ENDBRANCH   2  13
ENDBRANCH   1   2
BRANCH   1  15
HETATM   15  N   UNL     1      26.461  42.632  51.695  1.00  0.00    -0.068 N 
HETATM   16  H   UNL     1      26.301  42.181  52.605  1.00  0.00     0.280 HD
HETATM   17  C   UNL     1      25.451  42.063  50.718  1.00  0.00     0.235 C 
HETATM   18  C   UNL     1      25.677  40.565  50.544  1.00  0.00     0.037 C 
HETATM   19  C   UNL     1      27.100  40.240  50.070  1.00  0.00     0.025 C 
HETATM   20  C   UNL     1      28.083  40.837  51.087  1.00  0.00     0.037 C 
HETATM   21  C   UNL     1      27.883  42.334  51.277  1.00  0.00     0.235 C 
BRANCH  19  22
HETATM   22  C   UNL     1      27.359  40.667  48.647  1.00  0.00    -0.018 A 
HETATM   23  C   UNL     1      28.591  40.735  47.949  1.00  0.00     0.147 A 
HETATM   24  N   UNL     1      28.458  41.188  46.704  1.00  0.00    -0.187 NA
HETATM   25  N   UNL     1      27.135  41.313  46.545  1.00  0.00    -0.289 N 
HETATM   26  H   UNL     1      26.780  41.595  45.635  1.00  0.00     0.188 HD
HETATM   27  C   UNL     1      26.435  41.033  47.685  1.00  0.00     0.118 A 
ENDBRANCH  19  22
ENDBRANCH   1  15
TORSDOF 6
ENDMDL
MODEL 6
REMARK VINA RESULT:      -8.1      1.941      3.710
REMARK  6 active torsions:
REMARK  status: ('A' for Active; 'I' for Inactive)
REMARK    1  A    between atoms: C_3  and  C_4 
REMARK    2  A    between atoms: C_9  and  C_10 
REMARK    3  A    between atoms: C_10  and  O_11 
REMARK    4  A    between atoms: C_10  and  C_12 
REMARK    5  A    between atoms: C_12  and  N_13 
REMARK    6  A    between atoms: C_17  and  C_18 
ROOT
HETATM    1  C   UNL     1      26.539  44.534  53.684  1.00  0.00     0.271 C 
ENDROOT
BRANCH   1   2
HETATM    2  C   UNL     1      27.653  45.555  54.042  1.00  0.00     0.177 C 
BRANCH   2   3
HETATM    3  C   UNL     1      28.810  44.928  54.792  1.00  0.00    -0.027 A 
HETATM    4  C   UNL     1      29.225  45.402  56.050  1.00  0.00     0.025 A 
HETATM    5  C   UNL     1      30.284  44.793  56.746  1.00  0.00     0.048 A 
HETATM    6  C   UNL     1      30.942  43.704  56.162  1.00  0.00     0.016 A 
HETATM    7  C   UNL     1      30.545  43.228  54.913  1.00  0.00     0.001 A 
HETATM    8  C   UNL     1      29.486  43.832  54.234  1.00  0.00     0.010 A 
BRANCH   5   9
HETATM    9  C   UNL     1      30.704  45.330  58.097  1.00  0.00     0.417 C 
HETATM   10  F   UNL     1      29.780  45.140  59.074  1.00  0.00    -0.166 F 
HETATM   11  F   UNL     1      31.860  44.773  58.539  1.00  0.00    -0.166 F 
HETATM   12  F   UNL     1      30.929  46.674  58.044  1.00  0.00    -0.166 F 
ENDBRANCH   5   9
ENDBRANCH   2   3
BRANCH   2  13
HETATM   13  O   UNL     1      27.105  46.653  54.768  1.00  0.00    -0.389 OA
HETATM   14  H   UNL     1      27.249  46.467  55.717  1.00  0.00     0.210 HD
ENDBRANCH   2  13
ENDBRANCH   1   2
BRANCH   1  15
HETATM   15  N   UNL     1      26.202  44.455  52.183  1.00  0.00    -0.068 N 
HETATM   16  H   UNL     1      25.823  45.373  51.915  1.00  0.00     0.280 HD
HETATM   17  C   UNL     1      27.426  44.198  51.325  1.00  0.00     0.235 C 
HETATM   18  C   UNL     1      27.029  44.129  49.855  1.00  0.00     0.037 C 
HETATM   19  C   UNL     1      25.968  43.052  49.586  1.00  0.00     0.025 C 
HETATM   20  C   UNL     1      24.754  43.353  50.476  1.00  0.00     0.037 C 
HETATM   21  C   UNL     1      25.122  43.424  51.952  1.00  0.00     0.235 C 
BRANCH  19  22
HETATM   22  C   UNL     1      26.502  41.650  49.735  1.00  0.00    -0.018 A 
HETATM   23  C   UNL     1      27.708  41.099  49.232  1.00  0.00     0.147 A 
HETATM   24  N   UNL     1      27.852  39.809  49.527  1.00  0.00    -0.187 NA
HETATM   25  N   UNL     1      26.804  39.537  50.314  1.00  0.00    -0.289 N 
HETATM   26  H   UNL     1      26.729  38.609  50.720  1.00  0.00     0.188 HD
HETATM   27  C   UNL     1      25.956  40.600  50.452  1.00  0.00     0.118 A 
ENDBRANCH  19  22
ENDBRANCH   1  15
TORSDOF 6
ENDMDL
MODEL 7
REMARK VINA RESULT:      -8.0      4.341      6.141
REMARK  6 active torsions:
REMARK  status: ('A' for Active; 'I' for Inactive)
REMARK    1  A    between atoms: C_3  and  C_4 
REMARK    2  A    between atoms: C_9  and  C_10 
REMARK    3  A    between atoms: C_10  and  O_11 
REMARK    4  A    between atoms: C_10  and  C_12 
REMARK    5  A    between atoms: C_12  and  N_13 
REMARK    6  A    between atoms: C_17  and  C_18 
ROOT
HETATM    1  C   UNL     1      26.833  42.175  51.503  1.00  0.00     0.271 C 
ENDROOT
BRANCH   1   2
HETATM    2  C   UNL     1      27.628  43.507  51.570  1.00  0.00     0.177 C 
BRANCH   2   3
HETATM    3  C   UNL     1      28.523  43.600  52.788  1.00  0.00    -0.027 A 
HETATM    4  C   UNL     1      28.423  44.661  53.706  1.00  0.00     0.025 A 
HETATM    5  C   UNL     1      29.243  44.720  54.847  1.00  0.00     0.048 A 
HETATM    6  C   UNL     1      30.185  43.706  55.057  1.00  0.00     0.016 A 
HETATM    7  C   UNL     1      30.299  42.652  54.153  1.00  0.00     0.001 A 
HETATM    8  C   UNL     1      29.473  42.596  53.029  1.00  0.00     0.010 A 
BRANCH   5   9
HETATM    9  C   UNL     1      29.108  45.878  55.811  1.00  0.00     0.417 C 
HETATM   10  F   UNL     1      28.198  45.667  56.797  1.00  0.00    -0.166 F 
HETATM   11  F   UNL     1      30.282  46.183  56.422  1.00  0.00    -0.166 F 
HETATM   12  F   UNL     1      28.713  47.012  55.167  1.00  0.00    -0.166 F 
ENDBRANCH   5   9
ENDBRANCH   2   3
BRANCH   2  13
HETATM   13  O   UNL     1      26.739  44.619  51.500  1.00  0.00    -0.389 OA
HETATM   14  H   UNL     1      26.017  44.447  52.138  1.00  0.00     0.210 HD
ENDBRANCH   2  13
ENDBRANCH   1   2
BRANCH   1  15
HETATM   15  N   UNL     1      27.041  41.371  50.205  1.00  0.00    -0.068 N 
HETATM   16  H   UNL     1      26.683  41.953  49.435  1.00  0.00     0.280 HD
HETATM   17  C   UNL     1      28.503  41.088  49.924  1.00  0.00     0.235 C 
HETATM   18  C   UNL     1      28.643  40.291  48.632  1.00  0.00     0.037 C 
HETATM   19  C   UNL     1      27.855  38.974  48.669  1.00  0.00     0.025 C 
HETATM   20  C   UNL     1      26.386  39.312  48.958  1.00  0.00     0.037 C 
HETATM   21  C   UNL     1      26.216  40.105  50.247  1.00  0.00     0.235 C 
BRANCH  19  22
HETATM   22  C   UNL     1      28.447  37.961  49.617  1.00  0.00    -0.018 A 
HETATM   23  C   UNL     1      29.725  37.959  50.232  1.00  0.00     0.147 A 
HETATM   24  N   UNL     1      29.932  36.886  50.993  1.00  0.00    -0.187 NA
HETATM   25  N   UNL     1      28.760  36.241  50.970  1.00  0.00    -0.289 N 
HETATM   26  H   UNL     1      28.655  35.405  51.538  1.00  0.00     0.188 HD
HETATM   27  C   UNL     1      27.845  36.833  50.145  1.00  0.00     0.118 A 
ENDBRANCH  19  22
ENDBRANCH   1  15
TORSDOF 6
ENDMDL
MODEL 8
REMARK VINA RESULT:      -8.0      2.138      2.674
REMARK  6 active torsions:
REMARK  status: ('A' for Active; 'I' for Inactive)
REMARK    1  A    between atoms: C_3  and  C_4 
REMARK    2  A    between atoms: C_9  and  C_10 
REMARK    3  A    between atoms: C_10  and  O_11 
REMARK    4  A    between atoms: C_10  and  C_12 
REMARK    5  A    between atoms: C_12  and  N_13 
REMARK    6  A    between atoms: C_17  and  C_18 
ROOT
HETATM    1  C   UNL     1      27.539  42.344  51.625  1.00  0.00     0.271 C 
ENDROOT
BRANCH   1   2
HETATM    2  C   UNL     1      27.439  42.075  53.151  1.00  0.00     0.177 C 
BRANCH   2   3
HETATM    3  C   UNL     1      28.332  42.982  53.971  1.00  0.00    -0.027 A 
HETATM    4  C   UNL     1      27.919  44.263  54.378  1.00  0.00     0.025 A 
HETATM    5  C   UNL     1      28.750  45.084  55.162  1.00  0.00     0.048 A 
HETATM    6  C   UNL     1      30.016  44.614  55.527  1.00  0.00     0.016 A 
HETATM    7  C   UNL     1      30.441  43.348  55.126  1.00  0.00     0.001 A 
HETATM    8  C   UNL     1      29.605  42.537  54.357  1.00  0.00     0.010 A 
BRANCH   5   9
HETATM    9  C   UNL     1      28.272  46.457  55.580  1.00  0.00     0.417 C 
HETATM   10  F   UNL     1      28.421  46.710  56.905  1.00  0.00    -0.166 F 
HETATM   11  F   UNL     1      28.915  47.453  54.917  1.00  0.00    -0.166 F 
HETATM   12  F   UNL     1      26.946  46.621  55.309  1.00  0.00    -0.166 F 
ENDBRANCH   5   9
ENDBRANCH   2   3
BRANCH   2  13
HETATM   13  O   UNL     1      27.707  40.702  53.430  1.00  0.00    -0.389 OA
HETATM   14  H   UNL     1      28.321  40.681  54.191  1.00  0.00     0.210 HD
ENDBRANCH   2  13
ENDBRANCH   1   2
BRANCH   1  15
HETATM   15  N   UNL     1      26.213  42.761  50.961  1.00  0.00    -0.068 N 
HETATM   16  H   UNL     1      25.652  41.905  50.854  1.00  0.00     0.280 HD
HETATM   17  C   UNL     1      25.414  43.726  51.814  1.00  0.00     0.235 C 
HETATM   18  C   UNL     1      24.117  44.102  51.105  1.00  0.00     0.037 C 
HETATM   19  C   UNL     1      24.365  44.712  49.718  1.00  0.00     0.025 C 
HETATM   20  C   UNL     1      25.176  43.701  48.896  1.00  0.00     0.037 C 
HETATM   21  C   UNL     1      26.480  43.312  49.580  1.00  0.00     0.235 C 
BRANCH  19  22
HETATM   22  C   UNL     1      24.985  46.085  49.782  1.00  0.00    -0.018 A 
HETATM   23  C   UNL     1      24.350  47.340  49.972  1.00  0.00     0.147 A 
HETATM   24  N   UNL     1      25.203  48.362  49.945  1.00  0.00    -0.187 NA
HETATM   25  N   UNL     1      26.404  47.779  49.849  1.00  0.00    -0.289 N 
HETATM   26  H   UNL     1      27.232  48.368  49.870  1.00  0.00     0.188 HD
HETATM   27  C   UNL     1      26.326  46.420  49.728  1.00  0.00     0.118 A 
ENDBRANCH  19  22
ENDBRANCH   1  15
TORSDOF 6
ENDMDL
MODEL 9
REMARK VINA RESULT:      -7.9      5.169      8.315
REMARK  6 active torsions:
REMARK  status: ('A' for Active; 'I' for Inactive)
REMARK    1  A    between atoms: C_3  and  C_4 
REMARK    2  A    between atoms: C_9  and  C_10 
REMARK    3  A    between atoms: C_10  and  O_11 
REMARK    4  A    between atoms: C_10  and  C_12 
REMARK    5  A    between atoms: C_12  and  N_13 
REMARK    6  A    between atoms: C_17  and  C_18 
ROOT
HETATM    1  C   UNL     1      25.166  45.930  50.972  1.00  0.00     0.271 C 
ENDROOT
BRANCH   1   2
HETATM    2  C   UNL     1      26.454  46.434  50.265  1.00  0.00     0.177 C 
BRANCH   2   3
HETATM    3  C   UNL     1      26.266  47.770  49.578  1.00  0.00    -0.027 A 
HETATM    4  C   UNL     1      24.990  48.302  49.321  1.00  0.00     0.025 A 
HETATM    5  C   UNL     1      24.832  49.557  48.706  1.00  0.00     0.048 A 
HETATM    6  C   UNL     1      25.973  50.277  48.333  1.00  0.00     0.016 A 
HETATM    7  C   UNL     1      27.244  49.759  48.577  1.00  0.00     0.001 A 
HETATM    8  C   UNL     1      27.391  48.518  49.197  1.00  0.00     0.010 A 
BRANCH   5   9
HETATM    9  C   UNL     1      23.443  50.097  48.443  1.00  0.00     0.417 C 
HETATM   10  F   UNL     1      22.642  50.106  49.540  1.00  0.00    -0.166 F 
HETATM   11  F   UNL     1      23.464  51.367  47.964  1.00  0.00    -0.166 F 
HETATM   12  F   UNL     1      22.794  49.350  47.505  1.00  0.00    -0.166 F 
ENDBRANCH   5   9
ENDBRANCH   2   3
BRANCH   2  13
HETATM   13  O   UNL     1      26.934  45.450  49.351  1.00  0.00    -0.389 OA
HETATM   14  H   UNL     1      27.051  45.896  48.488  1.00  0.00     0.210 HD
ENDBRANCH   2  13
ENDBRANCH   1   2
BRANCH   1  15
HETATM   15  N   UNL     1      25.320  45.694  52.487  1.00  0.00    -0.068 N 
HETATM   16  H   UNL     1      24.547  46.194  52.945  1.00  0.00     0.280 HD
HETATM   17  C   UNL     1      25.205  44.230  52.863  1.00  0.00     0.235 C 
HETATM   18  C   UNL     1      25.367  44.062  54.369  1.00  0.00     0.037 C 
HETATM   19  C   UNL     1      26.700  44.628  54.880  1.00  0.00     0.025 C 
HETATM   20  C   UNL     1      26.770  46.107  54.475  1.00  0.00     0.037 C 
HETATM   21  C   UNL     1      26.615  46.304  52.973  1.00  0.00     0.235 C 
BRANCH  19  22
HETATM   22  C   UNL     1      27.891  43.816  54.440  1.00  0.00    -0.018 A 
HETATM   23  C   UNL     1      27.922  42.513  53.880  1.00  0.00     0.147 A 
HETATM   24  N   UNL     1      29.158  42.083  53.634  1.00  0.00    -0.187 NA
HETATM   25  N   UNL     1      29.931  43.137  53.925  1.00  0.00    -0.289 N 
HETATM   26  H   UNL     1      30.931  43.066  53.756  1.00  0.00     0.188 HD
HETATM   27  C   UNL     1      29.223  44.191  54.430  1.00  0.00     0.118 A 
ENDBRANCH  19  22
ENDBRANCH   1  15
TORSDOF 6
ENDMDL
MODEL 10
REMARK VINA RESULT:      -7.8     13.091     14.525
REMARK  6 active torsions:
REMARK  status: ('A' for Active; 'I' for Inactive)
REMARK    1  A    between atoms: C_3  and  C_4 
REMARK    2  A    between atoms: C_9  and  C_10 
REMARK    3  A    between atoms: C_10  and  O_11 
REMARK    4  A    between atoms: C_10  and  C_12 
REMARK    5  A    between atoms: C_12  and  N_13 
REMARK    6  A    between atoms: C_17  and  C_18 
ROOT
HETATM    1  C   UNL     1      33.187  50.551  39.826  1.00  0.00     0.271 C 
ENDROOT
BRANCH   1   2
HETATM    2  C   UNL     1      33.125  49.749  41.155  1.00  0.00     0.177 C 
BRANCH   2   3
HETATM    3  C   UNL     1      33.406  50.603  42.373  1.00  0.00    -0.027 A 
HETATM    4  C   UNL     1      34.662  51.197  42.592  1.00  0.00     0.025 A 
HETATM    5  C   UNL     1      34.899  52.009  43.716  1.00  0.00     0.048 A 
HETATM    6  C   UNL     1      33.864  52.212  44.636  1.00  0.00     0.016 A 
HETATM    7  C   UNL     1      32.617  51.625  44.435  1.00  0.00     0.001 A 
HETATM    8  C   UNL     1      32.387  50.829  43.311  1.00  0.00     0.010 A 
BRANCH   5   9
HETATM    9  C   UNL     1      36.263  52.631  43.919  1.00  0.00     0.417 C 
HETATM   10  F   UNL     1      36.253  53.726  44.722  1.00  0.00    -0.166 F 
HETATM   11  F   UNL     1      37.154  51.760  44.459  1.00  0.00    -0.166 F 
HETATM   12  F   UNL     1      36.802  53.035  42.733  1.00  0.00    -0.166 F 
ENDBRANCH   5   9
ENDBRANCH   2   3
BRANCH   2  13
HETATM   13  O   UNL     1      34.005  48.629  41.099  1.00  0.00    -0.389 OA
HETATM   14  H   UNL     1      34.501  48.698  40.258  1.00  0.00     0.210 HD
ENDBRANCH   2  13
ENDBRANCH   1   2
BRANCH   1  15
HETATM   15  N   UNL     1      31.936  50.411  38.937  1.00  0.00    -0.068 N 
HETATM   16  H   UNL     1      32.249  50.005  38.045  1.00  0.00     0.280 HD
HETATM   17  C   UNL     1      30.903  49.473  39.529  1.00  0.00     0.235 C 
HETATM   18  C   UNL     1      29.692  49.378  38.608  1.00  0.00     0.037 C 
HETATM   19  C   UNL     1      29.056  50.749  38.335  1.00  0.00     0.025 C 
HETATM   20  C   UNL     1      30.139  51.661  37.741  1.00  0.00     0.037 C 
HETATM   21  C   UNL     1      31.359  51.777  38.643  1.00  0.00     0.235 C 
BRANCH  19  22
HETATM   22  C   UNL     1      28.367  51.328  39.544  1.00  0.00    -0.018 A 
HETATM   23  C   UNL     1      28.607  52.563  40.199  1.00  0.00     0.147 A 
HETATM   24  N   UNL     1      27.829  52.746  41.264  1.00  0.00    -0.187 NA
HETATM   25  N   UNL     1      27.004  51.692  41.248  1.00  0.00    -0.289 N 
HETATM   26  H   UNL     1      26.267  51.642  41.945  1.00  0.00     0.188 HD
HETATM   27  C   UNL     1      27.299  50.805  40.250  1.00  0.00     0.118 A 
ENDBRANCH  19  22
ENDBRANCH   1  15
TORSDOF 6
ENDMDL
