MODEL 1
REMARK VINA RESULT:      -9.7      0.000      0.000
REMARK  10 active torsions:
REMARK  status: ('A' for Active; 'I' for Inactive)
REMARK    1  A    between atoms: C_2  and  C_3 
REMARK    2  A    between atoms: C_3  and  C_4 
REMARK    3  A    between atoms: C_4  and  O_5 
REMARK    4  A    between atoms: O_5  and  C_6 
REMARK    5  A    between atoms: C_9  and  C_10 
REMARK       I    between atoms: C_10  and  N_11 
REMARK    6  A    between atoms: N_11  and  C_12 
REMARK    7  A    between atoms: C_12  and  N_13 
REMARK    8  A    between atoms: N_13  and  C_14 
REMARK    9  A    between atoms: C_16  and  C_17 
REMARK   10  A    between atoms: C_26  and  O_27 
ROOT
HETATM    1  N   UNL     1      25.899  47.054  49.367  1.00  0.00    -0.333 N 
HETATM    2  H   UNL     1      26.365  46.633  48.562  1.00  0.00     0.168 HD
ENDROOT
BRANCH   1   3
HETATM    3  C   UNL     1      25.554  48.370  49.160  1.00  0.00     0.179 C 
HETATM    4  S   UNL     1      26.517  49.690  48.805  1.00  0.00    -0.040 SA
BRANCH   3   5
HETATM    5  N   UNL     1      24.202  48.646  49.269  1.00  0.00    -0.299 N 
HETATM    6  C   UNL     1      23.375  49.394  48.443  1.00  0.00     0.257 C 
HETATM    7  O   UNL     1      23.666  49.751  47.309  1.00  0.00    -0.267 OA
HETATM    8  H   UNL     1      23.788  48.239  50.098  1.00  0.00     0.171 HD
BRANCH   6   9
HETATM    9  C   UNL     1      22.036  49.660  49.022  1.00  0.00     0.032 A 
HETATM   10  C   UNL     1      21.132  48.605  49.207  1.00  0.00     0.020 A 
HETATM   11  C   UNL     1      19.847  48.868  49.686  1.00  0.00     0.038 A 
HETATM   12  C   UNL     1      19.476  50.176  49.997  1.00  0.00     0.068 A 
HETATM   13  C   UNL     1      20.376  51.227  49.808  1.00  0.00     0.038 A 
HETATM   14  C   UNL     1      21.667  50.969  49.338  1.00  0.00     0.020 A 
BRANCH  12  15
HETATM   15  O   UNL     1      18.206  50.502  50.389  1.00  0.00    -0.351 OA
BRANCH  15  16
HETATM   16  C   UNL     1      17.449  51.145  49.356  1.00  0.00     0.175 C 
BRANCH  16  17
HETATM   17  C   UNL     1      16.693  52.328  49.959  1.00  0.00     0.026 C 
BRANCH  17  18
HETATM   18  C   UNL     1      15.198  52.283  49.630  1.00  0.00    -0.002 C 
HETATM   19  C   UNL     1      14.388  53.133  50.598  1.00  0.00     0.005 C 
ENDBRANCH  17  18
ENDBRANCH  16  17
ENDBRANCH  15  16
ENDBRANCH  12  15
ENDBRANCH   6   9
ENDBRANCH   3   5
ENDBRANCH   1   3
BRANCH   1  20
HETATM   20  C   UNL     1      25.654  46.175  50.450  1.00  0.00     0.035 A 
HETATM   21  C   UNL     1      26.663  46.064  51.427  1.00  0.00     0.046 A 
HETATM   22  C   UNL     1      26.523  45.223  52.553  1.00  0.00     0.035 A 
HETATM   23  C   UNL     1      25.320  44.503  52.672  1.00  0.00     0.078 A 
HETATM   24  C   UNL     1      24.304  44.626  51.731  1.00  0.00     0.040 A 
HETATM   25  C   UNL     1      24.470  45.463  50.630  1.00  0.00     0.032 A 
BRANCH  22  26
HETATM   26  C   UNL     1      27.571  45.072  53.588  1.00  0.00     0.112 A 
HETATM   27  S   UNL     1      27.834  46.222  54.840  1.00  0.00    -0.067 SA
HETATM   28  C   UNL     1      29.112  45.265  55.481  1.00  0.00     0.035 A 
HETATM   29  C   UNL     1      29.257  44.123  54.694  1.00  0.00     0.075 A 
HETATM   30  C   UNL     1      29.928  45.503  56.598  1.00  0.00     0.021 A 
HETATM   31  N   UNL     1      28.379  44.024  53.629  1.00  0.00    -0.239 NA
HETATM   32  C   UNL     1      30.253  43.185  55.031  1.00  0.00     0.033 A 
HETATM   33  C   UNL     1      31.073  43.411  56.141  1.00  0.00     0.002 A 
HETATM   34  C   UNL     1      30.910  44.557  56.914  1.00  0.00     0.002 A 
ENDBRANCH  22  26
BRANCH  23  35
HETATM   35  O   UNL     1      25.053  43.647  53.711  1.00  0.00    -0.360 OA
HETATM   36  H   UNL     1      25.656  43.880  54.452  1.00  0.00     0.217 HD
ENDBRANCH  23  35
ENDBRANCH   1  20
TORSDOF 10
ENDMDL
MODEL 2
REMARK VINA RESULT:      -9.5      1.838      2.486
REMARK  10 active torsions:
REMARK  status: ('A' for Active; 'I' for Inactive)
REMARK    1  A    between atoms: C_2  and  C_3 
REMARK    2  A    between atoms: C_3  and  C_4 
REMARK    3  A    between atoms: C_4  and  O_5 
REMARK    4  A    between atoms: O_5  and  C_6 
REMARK    5  A    between atoms: C_9  and  C_10 
REMARK       I    between atoms: C_10  and  N_11 
REMARK    6  A    between atoms: N_11  and  C_12 
REMARK    7  A    between atoms: C_12  and  N_13 
REMARK    8  A    between atoms: N_13  and  C_14 
REMARK    9  A    between atoms: C_16  and  C_17 
REMARK   10  A    between atoms: C_26  and  O_27 
ROOT
HETATM    1  N   UNL     1      23.520  48.230  50.014  1.00  0.00    -0.333 N 
HETATM    2  H   UNL     1      23.116  48.470  50.920  1.00  0.00     0.168 HD
ENDROOT
BRANCH   1   3
HETATM    3  C   UNL     1      23.505  49.280  49.124  1.00  0.00     0.179 C 
HETATM    4  S   UNL     1      24.720  49.871  48.139  1.00  0.00    -0.040 SA
BRANCH   3   5
HETATM    5  N   UNL     1      22.301  49.957  49.037  1.00  0.00    -0.299 N 
HETATM    6  C   UNL     1      21.655  50.752  49.973  1.00  0.00     0.257 C 
HETATM    7  O   UNL     1      22.178  51.195  50.987  1.00  0.00    -0.267 OA
HETATM    8  H   UNL     1      21.839  49.815  48.147  1.00  0.00     0.171 HD
BRANCH   6   9
HETATM    9  C   UNL     1      20.265  51.108  49.597  1.00  0.00     0.032 A 
HETATM   10  C   UNL     1      19.186  50.530  50.279  1.00  0.00     0.020 A 
HETATM   11  C   UNL     1      17.879  50.813  49.877  1.00  0.00     0.038 A 
HETATM   12  C   UNL     1      17.653  51.683  48.811  1.00  0.00     0.068 A 
HETATM   13  C   UNL     1      18.729  52.255  48.130  1.00  0.00     0.038 A 
HETATM   14  C   UNL     1      20.040  51.985  48.533  1.00  0.00     0.020 A 
BRANCH  12  15
HETATM   15  O   UNL     1      16.399  51.929  48.322  1.00  0.00    -0.351 OA
BRANCH  15  16
HETATM   16  C   UNL     1      15.428  52.142  49.354  1.00  0.00     0.175 C 
BRANCH  16  17
HETATM   17  C   UNL     1      15.073  53.628  49.403  1.00  0.00     0.026 C 
BRANCH  17  18
HETATM   18  C   UNL     1      13.756  53.880  50.141  1.00  0.00    -0.002 C 
HETATM   19  C   UNL     1      13.990  54.547  51.489  1.00  0.00     0.005 C 
ENDBRANCH  17  18
ENDBRANCH  16  17
ENDBRANCH  15  16
ENDBRANCH  12  15
ENDBRANCH   6   9
ENDBRANCH   3   5
ENDBRANCH   1   3
BRANCH   1  20
HETATM   20  C   UNL     1      24.060  46.924  49.921  1.00  0.00     0.035 A 
HETATM   21  C   UNL     1      25.038  46.565  50.869  1.00  0.00     0.046 A 
HETATM   22  C   UNL     1      25.639  45.287  50.875  1.00  0.00     0.035 A 
HETATM   23  C   UNL     1      25.210  44.370  49.897  1.00  0.00     0.078 A 
HETATM   24  C   UNL     1      24.224  44.701  48.974  1.00  0.00     0.040 A 
HETATM   25  C   UNL     1      23.648  45.970  48.993  1.00  0.00     0.032 A 
BRANCH  22  26
HETATM   26  C   UNL     1      26.681  44.885  51.847  1.00  0.00     0.112 A 
HETATM   27  S   UNL     1      26.700  45.414  53.483  1.00  0.00    -0.067 SA
HETATM   28  C   UNL     1      28.128  44.504  53.784  1.00  0.00     0.035 A 
HETATM   29  C   UNL     1      28.501  43.851  52.611  1.00  0.00     0.075 A 
HETATM   30  C   UNL     1      28.868  44.373  54.971  1.00  0.00     0.021 A 
HETATM   31  N   UNL     1      27.674  44.072  51.523  1.00  0.00    -0.239 NA
HETATM   32  C   UNL     1      29.654  43.040  52.617  1.00  0.00     0.033 A 
HETATM   33  C   UNL     1      30.399  42.903  53.793  1.00  0.00     0.002 A 
HETATM   34  C   UNL     1      30.009  43.562  54.954  1.00  0.00     0.002 A 
ENDBRANCH  22  26
BRANCH  23  35
HETATM   35  O   UNL     1      25.711  43.098  49.785  1.00  0.00    -0.360 OA
HETATM   36  H   UNL     1      26.673  43.171  49.596  1.00  0.00     0.217 HD
ENDBRANCH  23  35
ENDBRANCH   1  20
TORSDOF 10
ENDMDL
MODEL 3
REMARK VINA RESULT:      -9.5      1.587      2.029
REMARK  10 active torsions:
REMARK  status: ('A' for Active; 'I' for Inactive)
REMARK    1  A    between atoms: C_2  and  C_3 
REMARK    2  A    between atoms: C_3  and  C_4 
REMARK    3  A    between atoms: C_4  and  O_5 
REMARK    4  A    between atoms: O_5  and  C_6 
REMARK    5  A    between atoms: C_9  and  C_10 
REMARK       I    between atoms: C_10  and  N_11 
REMARK    6  A    between atoms: N_11  and  C_12 
REMARK    7  A    between atoms: C_12  and  N_13 
REMARK    8  A    between atoms: N_13  and  C_14 
REMARK    9  A    between atoms: C_16  and  C_17 
REMARK   10  A    between atoms: C_26  and  O_27 
ROOT
HETATM    1  N   UNL     1      23.581  45.842  49.909  1.00  0.00    -0.333 N 
HETATM    2  H   UNL     1      22.617  45.591  49.681  1.00  0.00     0.168 HD
ENDROOT
BRANCH   1   3
HETATM    3  C   UNL     1      23.844  47.181  49.729  1.00  0.00     0.179 C 
HETATM    4  S   UNL     1      25.306  47.983  49.616  1.00  0.00    -0.040 SA
BRANCH   3   5
HETATM    5  N   UNL     1      22.725  47.990  49.635  1.00  0.00    -0.299 N 
HETATM    6  C   UNL     1      22.052  48.455  48.514  1.00  0.00     0.257 C 
HETATM    7  O   UNL     1      22.202  48.014  47.381  1.00  0.00    -0.267 OA
HETATM    8  H   UNL     1      22.380  48.285  50.541  1.00  0.00     0.171 HD
BRANCH   6   9
HETATM    9  C   UNL     1      21.040  49.497  48.814  1.00  0.00     0.032 A 
HETATM   10  C   UNL     1      21.144  50.763  48.222  1.00  0.00     0.020 A 
HETATM   11  C   UNL     1      20.231  51.763  48.559  1.00  0.00     0.038 A 
HETATM   12  C   UNL     1      19.209  51.494  49.469  1.00  0.00     0.068 A 
HETATM   13  C   UNL     1      19.109  50.233  50.061  1.00  0.00     0.038 A 
HETATM   14  C   UNL     1      20.013  49.223  49.719  1.00  0.00     0.020 A 
BRANCH  12  15
HETATM   15  O   UNL     1      18.340  52.459  49.899  1.00  0.00    -0.351 OA
BRANCH  15  16
HETATM   16  C   UNL     1      16.975  52.021  49.905  1.00  0.00     0.175 C 
BRANCH  16  17
HETATM   17  C   UNL     1      16.428  52.083  48.479  1.00  0.00     0.026 C 
BRANCH  17  18
HETATM   18  C   UNL     1      15.898  50.726  48.008  1.00  0.00    -0.002 C 
HETATM   19  C   UNL     1      16.804  50.109  46.954  1.00  0.00     0.005 C 
ENDBRANCH  17  18
ENDBRANCH  16  17
ENDBRANCH  15  16
ENDBRANCH  12  15
ENDBRANCH   6   9
ENDBRANCH   3   5
ENDBRANCH   1   3
BRANCH   1  20
HETATM   20  C   UNL     1      24.373  44.787  50.422  1.00  0.00     0.035 A 
HETATM   21  C   UNL     1      25.294  45.110  51.437  1.00  0.00     0.046 A 
HETATM   22  C   UNL     1      26.131  44.137  52.026  1.00  0.00     0.035 A 
HETATM   23  C   UNL     1      25.999  42.813  51.566  1.00  0.00     0.078 A 
HETATM   24  C   UNL     1      25.073  42.474  50.586  1.00  0.00     0.040 A 
HETATM   25  C   UNL     1      24.261  43.457  50.023  1.00  0.00     0.032 A 
BRANCH  22  26
HETATM   26  C   UNL     1      27.120  44.448  53.083  1.00  0.00     0.112 A 
HETATM   27  S   UNL     1      26.980  45.800  54.137  1.00  0.00    -0.067 SA
HETATM   28  C   UNL     1      28.438  45.355  54.936  1.00  0.00     0.035 A 
HETATM   29  C   UNL     1      28.941  44.198  54.343  1.00  0.00     0.075 A 
HETATM   30  C   UNL     1      29.093  45.981  56.009  1.00  0.00     0.021 A 
HETATM   31  N   UNL     1      28.186  43.693  53.299  1.00  0.00    -0.239 NA
HETATM   32  C   UNL     1      30.140  43.645  54.835  1.00  0.00     0.033 A 
HETATM   33  C   UNL     1      30.801  44.259  55.904  1.00  0.00     0.002 A 
HETATM   34  C   UNL     1      30.281  45.413  56.482  1.00  0.00     0.002 A 
ENDBRANCH  22  26
BRANCH  23  35
HETATM   35  O   UNL     1      26.750  41.770  52.046  1.00  0.00    -0.360 OA
HETATM   36  H   UNL     1      26.617  41.005  51.444  1.00  0.00     0.217 HD
ENDBRANCH  23  35
ENDBRANCH   1  20
TORSDOF 10
ENDMDL
MODEL 4
REMARK VINA RESULT:      -9.5      2.119      2.682
REMARK  10 active torsions:
REMARK  status: ('A' for Active; 'I' for Inactive)
REMARK    1  A    between atoms: C_2  and  C_3 
REMARK    2  A    between atoms: C_3  and  C_4 
REMARK    3  A    between atoms: C_4  and  O_5 
REMARK    4  A    between atoms: O_5  and  C_6 
REMARK    5  A    between atoms: C_9  and  C_10 
REMARK       I    between atoms: C_10  and  N_11 
REMARK    6  A    between atoms: N_11  and  C_12 
REMARK    7  A    between atoms: C_12  and  N_13 
REMARK    8  A    between atoms: N_13  and  C_14 
REMARK    9  A    between atoms: C_16  and  C_17 
REMARK   10  A    between atoms: C_26  and  O_27 
ROOT
HETATM    1  N   UNL     1      23.828  48.266  49.941  1.00  0.00    -0.333 N 
HETATM    2  H   UNL     1      23.380  48.611  50.791  1.00  0.00     0.168 HD
ENDROOT
BRANCH   1   3
HETATM    3  C   UNL     1      23.994  49.243  48.986  1.00  0.00     0.179 C 
HETATM    4  S   UNL     1      25.384  49.779  48.227  1.00  0.00    -0.040 SA
BRANCH   3   5
HETATM    5  N   UNL     1      22.833  49.888  48.600  1.00  0.00    -0.299 N 
HETATM    6  C   UNL     1      21.894  50.568  49.363  1.00  0.00     0.257 C 
HETATM    7  O   UNL     1      22.068  50.926  50.521  1.00  0.00    -0.267 OA
HETATM    8  H   UNL     1      22.662  49.820  47.604  1.00  0.00     0.171 HD
BRANCH   6   9
HETATM    9  C   UNL     1      20.659  50.917  48.620  1.00  0.00     0.032 A 
HETATM   10  C   UNL     1      20.382  50.297  47.394  1.00  0.00     0.020 A 
HETATM   11  C   UNL     1      19.255  50.678  46.663  1.00  0.00     0.038 A 
HETATM   12  C   UNL     1      18.400  51.659  47.164  1.00  0.00     0.068 A 
HETATM   13  C   UNL     1      18.680  52.278  48.384  1.00  0.00     0.038 A 
HETATM   14  C   UNL     1      19.800  51.895  49.126  1.00  0.00     0.020 A 
BRANCH  12  15
HETATM   15  O   UNL     1      17.331  52.130  46.452  1.00  0.00    -0.351 OA
BRANCH  15  16
HETATM   16  C   UNL     1      16.079  51.914  47.114  1.00  0.00     0.175 C 
BRANCH  16  17
HETATM   17  C   UNL     1      15.612  50.484  46.840  1.00  0.00     0.026 C 
BRANCH  17  18
HETATM   18  C   UNL     1      15.614  49.627  48.109  1.00  0.00    -0.002 C 
HETATM   19  C   UNL     1      16.516  48.411  47.958  1.00  0.00     0.005 C 
ENDBRANCH  17  18
ENDBRANCH  16  17
ENDBRANCH  15  16
ENDBRANCH  12  15
ENDBRANCH   6   9
ENDBRANCH   3   5
ENDBRANCH   1   3
BRANCH   1  20
HETATM   20  C   UNL     1      24.234  46.910  49.981  1.00  0.00     0.035 A 
HETATM   21  C   UNL     1      25.238  46.567  50.908  1.00  0.00     0.046 A 
HETATM   22  C   UNL     1      25.714  45.245  51.039  1.00  0.00     0.035 A 
HETATM   23  C   UNL     1      25.132  44.266  50.211  1.00  0.00     0.078 A 
HETATM   24  C   UNL     1      24.120  44.585  49.313  1.00  0.00     0.040 A 
HETATM   25  C   UNL     1      23.669  45.899  49.205  1.00  0.00     0.032 A 
BRANCH  22  26
HETATM   26  C   UNL     1      26.780  44.856  51.991  1.00  0.00     0.112 A 
HETATM   27  S   UNL     1      26.900  45.493  53.584  1.00  0.00    -0.067 SA
HETATM   28  C   UNL     1      28.295  44.533  53.886  1.00  0.00     0.035 A 
HETATM   29  C   UNL     1      28.581  43.784  52.746  1.00  0.00     0.075 A 
HETATM   30  C   UNL     1      29.082  44.445  55.046  1.00  0.00     0.021 A 
HETATM   31  N   UNL     1      27.716  43.973  51.683  1.00  0.00    -0.239 NA
HETATM   32  C   UNL     1      29.692  42.917  52.761  1.00  0.00     0.033 A 
HETATM   33  C   UNL     1      30.484  42.821  53.910  1.00  0.00     0.002 A 
HETATM   34  C   UNL     1      30.180  43.577  55.038  1.00  0.00     0.002 A 
ENDBRANCH  22  26
BRANCH  23  35
HETATM   35  O   UNL     1      25.502  42.945  50.230  1.00  0.00    -0.360 OA
HETATM   36  H   UNL     1      24.685  42.406  50.138  1.00  0.00     0.217 HD
ENDBRANCH  23  35
ENDBRANCH   1  20
TORSDOF 10
ENDMDL
MODEL 5
REMARK VINA RESULT:      -9.4      2.684      3.247
REMARK  10 active torsions:
REMARK  status: ('A' for Active; 'I' for Inactive)
REMARK    1  A    between atoms: C_2  and  C_3 
REMARK    2  A    between atoms: C_3  and  C_4 
REMARK    3  A    between atoms: C_4  and  O_5 
REMARK    4  A    between atoms: O_5  and  C_6 
REMARK    5  A    between atoms: C_9  and  C_10 
REMARK       I    between atoms: C_10  and  N_11 
REMARK    6  A    between atoms: N_11  and  C_12 
REMARK    7  A    between atoms: C_12  and  N_13 
REMARK    8  A    between atoms: N_13  and  C_14 
REMARK    9  A    between atoms: C_16  and  C_17 
REMARK   10  A    between atoms: C_26  and  O_27 
ROOT
HETATM    1  N   UNL     1      25.717  44.091  49.279  1.00  0.00    -0.333 N 
HETATM    2  H   UNL     1      26.136  44.649  48.533  1.00  0.00     0.168 HD
ENDROOT
BRANCH   1   3
HETATM    3  C   UNL     1      24.348  44.219  49.341  1.00  0.00     0.179 C 
HETATM    4  S   UNL     1      23.185  43.111  49.805  1.00  0.00    -0.040 SA
BRANCH   3   5
HETATM    5  N   UNL     1      23.858  45.453  48.954  1.00  0.00    -0.299 N 
HETATM    6  C   UNL     1      24.065  46.709  49.507  1.00  0.00     0.257 C 
HETATM    7  O   UNL     1      24.941  46.974  50.321  1.00  0.00    -0.267 OA
HETATM    8  H   UNL     1      23.243  45.394  48.151  1.00  0.00     0.171 HD
BRANCH   6   9
HETATM    9  C   UNL     1      23.174  47.759  48.955  1.00  0.00     0.032 A 
HETATM   10  C   UNL     1      23.574  49.102  48.985  1.00  0.00     0.020 A 
HETATM   11  C   UNL     1      22.706  50.095  48.529  1.00  0.00     0.038 A 
HETATM   12  C   UNL     1      21.451  49.745  48.029  1.00  0.00     0.068 A 
HETATM   13  C   UNL     1      21.052  48.407  48.004  1.00  0.00     0.038 A 
HETATM   14  C   UNL     1      21.921  47.407  48.449  1.00  0.00     0.020 A 
BRANCH  12  15
HETATM   15  O   UNL     1      20.529  50.682  47.649  1.00  0.00    -0.351 OA
BRANCH  15  16
HETATM   16  C   UNL     1      20.412  51.763  48.582  1.00  0.00     0.175 C 
BRANCH  16  17
HETATM   17  C   UNL     1      18.991  52.323  48.516  1.00  0.00     0.026 C 
BRANCH  17  18
HETATM   18  C   UNL     1      18.162  51.931  49.742  1.00  0.00    -0.002 C 
HETATM   19  C   UNL     1      16.907  52.783  49.861  1.00  0.00     0.005 C 
ENDBRANCH  17  18
ENDBRANCH  16  17
ENDBRANCH  15  16
ENDBRANCH  12  15
ENDBRANCH   6   9
ENDBRANCH   3   5
ENDBRANCH   1   3
BRANCH   1  20
HETATM   20  C   UNL     1      26.621  43.274  50.001  1.00  0.00     0.035 A 
HETATM   21  C   UNL     1      27.144  43.799  51.199  1.00  0.00     0.046 A 
HETATM   22  C   UNL     1      28.047  43.070  52.002  1.00  0.00     0.035 A 
HETATM   23  C   UNL     1      28.400  41.779  51.566  1.00  0.00     0.078 A 
HETATM   24  C   UNL     1      27.868  41.237  50.401  1.00  0.00     0.040 A 
HETATM   25  C   UNL     1      26.978  41.980  49.628  1.00  0.00     0.032 A 
BRANCH  22  26
HETATM   26  C   UNL     1      28.628  43.600  53.258  1.00  0.00     0.112 A 
HETATM   27  S   UNL     1      28.059  45.028  54.030  1.00  0.00    -0.067 SA
HETATM   28  C   UNL     1      29.222  44.838  55.284  1.00  0.00     0.035 A 
HETATM   29  C   UNL     1      29.973  43.692  55.031  1.00  0.00     0.075 A 
HETATM   30  C   UNL     1      29.456  45.642  56.411  1.00  0.00     0.021 A 
HETATM   31  N   UNL     1      29.626  42.999  53.885  1.00  0.00    -0.239 NA
HETATM   32  C   UNL     1      30.996  43.334  55.932  1.00  0.00     0.033 A 
HETATM   33  C   UNL     1      31.239  44.127  57.059  1.00  0.00     0.002 A 
HETATM   34  C   UNL     1      30.476  45.267  57.293  1.00  0.00     0.002 A 
ENDBRANCH  22  26
BRANCH  23  35
HETATM   35  O   UNL     1      29.269  40.964  52.245  1.00  0.00    -0.360 OA
HETATM   36  H   UNL     1      29.435  40.173  51.687  1.00  0.00     0.217 HD
ENDBRANCH  23  35
ENDBRANCH   1  20
TORSDOF 10
ENDMDL
MODEL 6
REMARK VINA RESULT:      -9.3      2.320      3.109
REMARK  10 active torsions:
REMARK  status: ('A' for Active; 'I' for Inactive)
REMARK    1  A    between atoms: C_2  and  C_3 
REMARK    2  A    between atoms: C_3  and  C_4 
REMARK    3  A    between atoms: C_4  and  O_5 
REMARK    4  A    between atoms: O_5  and  C_6 
REMARK    5  A    between atoms: C_9  and  C_10 
REMARK       I    between atoms: C_10  and  N_11 
REMARK    6  A    between atoms: N_11  and  C_12 
REMARK    7  A    between atoms: C_12  and  N_13 
REMARK    8  A    between atoms: N_13  and  C_14 
REMARK    9  A    between atoms: C_16  and  C_17 
REMARK   10  A    between atoms: C_26  and  O_27 
ROOT
HETATM    1  N   UNL     1      25.425  45.015  50.984  1.00  0.00    -0.333 N 
HETATM    2  H   UNL     1      26.154  44.440  50.558  1.00  0.00     0.168 HD
ENDROOT
BRANCH   1   3
HETATM    3  C   UNL     1      24.209  44.896  50.351  1.00  0.00     0.179 C 
HETATM    4  S   UNL     1      23.239  43.552  50.132  1.00  0.00    -0.040 SA
BRANCH   3   5
HETATM    5  N   UNL     1      23.715  46.068  49.806  1.00  0.00    -0.299 N 
HETATM    6  C   UNL     1      24.390  47.174  49.310  1.00  0.00     0.257 C 
HETATM    7  O   UNL     1      25.586  47.198  49.047  1.00  0.00    -0.267 OA
HETATM    8  H   UNL     1      22.703  46.097  49.797  1.00  0.00     0.171 HD
BRANCH   6   9
HETATM    9  C   UNL     1      23.511  48.335  49.031  1.00  0.00     0.032 A 
HETATM   10  C   UNL     1      24.073  49.573  48.692  1.00  0.00     0.020 A 
HETATM   11  C   UNL     1      23.246  50.681  48.498  1.00  0.00     0.038 A 
HETATM   12  C   UNL     1      21.864  50.547  48.626  1.00  0.00     0.068 A 
HETATM   13  C   UNL     1      21.305  49.314  48.969  1.00  0.00     0.038 A 
HETATM   14  C   UNL     1      22.126  48.198  49.153  1.00  0.00     0.020 A 
BRANCH  12  15
HETATM   15  O   UNL     1      21.014  51.616  48.531  1.00  0.00    -0.351 OA
BRANCH  15  16
HETATM   16  C   UNL     1      19.812  51.313  47.813  1.00  0.00     0.175 C 
BRANCH  16  17
HETATM   17  C   UNL     1      18.733  52.323  48.204  1.00  0.00     0.026 C 
BRANCH  17  18
HETATM   18  C   UNL     1      18.389  52.248  49.694  1.00  0.00    -0.002 C 
HETATM   19  C   UNL     1      16.917  52.541  49.942  1.00  0.00     0.005 C 
ENDBRANCH  17  18
ENDBRANCH  16  17
ENDBRANCH  15  16
ENDBRANCH  12  15
ENDBRANCH   6   9
ENDBRANCH   3   5
ENDBRANCH   1   3
BRANCH   1  20
HETATM   20  C   UNL     1      25.817  45.720  52.148  1.00  0.00     0.035 A 
HETATM   21  C   UNL     1      26.882  45.182  52.897  1.00  0.00     0.046 A 
HETATM   22  C   UNL     1      27.360  45.804  54.070  1.00  0.00     0.035 A 
HETATM   23  C   UNL     1      26.736  47.003  54.462  1.00  0.00     0.078 A 
HETATM   24  C   UNL     1      25.704  47.562  53.716  1.00  0.00     0.040 A 
HETATM   25  C   UNL     1      25.253  46.925  52.562  1.00  0.00     0.032 A 
BRANCH  22  26
HETATM   26  C   UNL     1      28.466  45.255  54.889  1.00  0.00     0.112 A 
HETATM   27  S   UNL     1      29.347  43.843  54.456  1.00  0.00    -0.067 SA
HETATM   28  C   UNL     1      30.325  43.996  55.864  1.00  0.00     0.035 A 
HETATM   29  C   UNL     1      29.913  45.120  56.577  1.00  0.00     0.075 A 
HETATM   30  C   UNL     1      31.380  43.183  56.308  1.00  0.00     0.021 A 
HETATM   31  N   UNL     1      28.863  45.825  56.014  1.00  0.00    -0.239 NA
HETATM   32  C   UNL     1      30.575  45.446  57.778  1.00  0.00     0.033 A 
HETATM   33  C   UNL     1      31.627  44.644  58.231  1.00  0.00     0.002 A 
HETATM   34  C   UNL     1      32.023  43.527  57.502  1.00  0.00     0.002 A 
ENDBRANCH  22  26
BRANCH  23  35
HETATM   35  O   UNL     1      27.096  47.710  55.582  1.00  0.00    -0.360 OA
HETATM   36  H   UNL     1      28.047  47.535  55.752  1.00  0.00     0.217 HD
ENDBRANCH  23  35
ENDBRANCH   1  20
TORSDOF 10
ENDMDL
MODEL 7
REMARK VINA RESULT:      -9.2      1.762      2.145
REMARK  10 active torsions:
REMARK  status: ('A' for Active; 'I' for Inactive)
REMARK    1  A    between atoms: C_2  and  C_3 
REMARK    2  A    between atoms: C_3  and  C_4 
REMARK    3  A    between atoms: C_4  and  O_5 
REMARK    4  A    between atoms: O_5  and  C_6 
REMARK    5  A    between atoms: C_9  and  C_10 
REMARK       I    between atoms: C_10  and  N_11 
REMARK    6  A    between atoms: N_11  and  C_12 
REMARK    7  A    between atoms: C_12  and  N_13 
REMARK    8  A    between atoms: N_13  and  C_14 
REMARK    9  A    between atoms: C_16  and  C_17 
REMARK   10  A    between atoms: C_26  and  O_27 
ROOT
HETATM    1  N   UNL     1      23.471  46.391  49.662  1.00  0.00    -0.333 N 
HETATM    2  H   UNL     1      23.763  47.294  50.038  1.00  0.00     0.168 HD
ENDROOT
BRANCH   1   3
HETATM    3  C   UNL     1      22.551  46.505  48.645  1.00  0.00     0.179 C 
HETATM    4  S   UNL     1      22.317  45.547  47.295  1.00  0.00    -0.040 SA
BRANCH   3   5
HETATM    5  N   UNL     1      21.691  47.584  48.752  1.00  0.00    -0.299 N 
HETATM    6  C   UNL     1      21.945  48.892  49.140  1.00  0.00     0.257 C 
HETATM    7  O   UNL     1      23.062  49.386  49.228  1.00  0.00    -0.267 OA
HETATM    8  H   UNL     1      20.735  47.344  48.521  1.00  0.00     0.171 HD
BRANCH   6   9
HETATM    9  C   UNL     1      20.720  49.698  49.361  1.00  0.00     0.032 A 
HETATM   10  C   UNL     1      20.705  51.056  49.017  1.00  0.00     0.020 A 
HETATM   11  C   UNL     1      19.575  51.829  49.290  1.00  0.00     0.038 A 
HETATM   12  C   UNL     1      18.459  51.242  49.886  1.00  0.00     0.068 A 
HETATM   13  C   UNL     1      18.477  49.889  50.232  1.00  0.00     0.038 A 
HETATM   14  C   UNL     1      19.601  49.107  49.952  1.00  0.00     0.020 A 
BRANCH  12  15
HETATM   15  O   UNL     1      17.359  51.969  50.253  1.00  0.00    -0.351 OA
BRANCH  15  16
HETATM   16  C   UNL     1      16.225  51.732  49.410  1.00  0.00     0.175 C 
BRANCH  16  17
HETATM   17  C   UNL     1      15.436  53.033  49.262  1.00  0.00     0.026 C 
BRANCH  17  18
HETATM   18  C   UNL     1      14.303  53.136  50.286  1.00  0.00    -0.002 C 
HETATM   19  C   UNL     1      14.625  54.151  51.373  1.00  0.00     0.005 C 
ENDBRANCH  17  18
ENDBRANCH  16  17
ENDBRANCH  15  16
ENDBRANCH  12  15
ENDBRANCH   6   9
ENDBRANCH   3   5
ENDBRANCH   1   3
BRANCH   1  20
HETATM   20  C   UNL     1      24.132  45.266  50.213  1.00  0.00     0.035 A 
HETATM   21  C   UNL     1      25.099  45.513  51.207  1.00  0.00     0.046 A 
HETATM   22  C   UNL     1      25.813  44.467  51.830  1.00  0.00     0.035 A 
HETATM   23  C   UNL     1      25.511  43.152  51.428  1.00  0.00     0.078 A 
HETATM   24  C   UNL     1      24.537  42.893  50.470  1.00  0.00     0.040 A 
HETATM   25  C   UNL     1      23.848  43.945  49.872  1.00  0.00     0.032 A 
BRANCH  22  26
HETATM   26  C   UNL     1      26.848  44.694  52.866  1.00  0.00     0.112 A 
HETATM   27  S   UNL     1      26.826  46.036  53.942  1.00  0.00    -0.067 SA
HETATM   28  C   UNL     1      28.269  45.481  54.696  1.00  0.00     0.035 A 
HETATM   29  C   UNL     1      28.677  44.302  54.075  1.00  0.00     0.075 A 
HETATM   30  C   UNL     1      28.991  46.045  55.761  1.00  0.00     0.021 A 
HETATM   31  N   UNL     1      27.864  43.866  53.044  1.00  0.00    -0.239 NA
HETATM   32  C   UNL     1      29.848  43.662  54.529  1.00  0.00     0.033 A 
HETATM   33  C   UNL     1      30.575  44.213  55.588  1.00  0.00     0.002 A 
HETATM   34  C   UNL     1      30.150  45.391  56.195  1.00  0.00     0.002 A 
ENDBRANCH  22  26
BRANCH  23  35
HETATM   35  O   UNL     1      26.131  42.043  51.946  1.00  0.00    -0.360 OA
HETATM   36  H   UNL     1      26.872  42.353  52.512  1.00  0.00     0.217 HD
ENDBRANCH  23  35
ENDBRANCH   1  20
TORSDOF 10
ENDMDL
MODEL 8
REMARK VINA RESULT:      -9.1      2.908     10.823
REMARK  10 active torsions:
REMARK  status: ('A' for Active; 'I' for Inactive)
REMARK    1  A    between atoms: C_2  and  C_3 
REMARK    2  A    between atoms: C_3  and  C_4 
REMARK    3  A    between atoms: C_4  and  O_5 
REMARK    4  A    between atoms: O_5  and  C_6 
REMARK    5  A    between atoms: C_9  and  C_10 
REMARK       I    between atoms: C_10  and  N_11 
REMARK    6  A    between atoms: N_11  and  C_12 
REMARK    7  A    between atoms: C_12  and  N_13 
REMARK    8  A    between atoms: N_13  and  C_14 
REMARK    9  A    between atoms: C_16  and  C_17 
REMARK   10  A    between atoms: C_26  and  O_27 
ROOT
HETATM    1  N   UNL     1      25.122  44.380  48.866  1.00  0.00    -0.333 N 
HETATM    2  H   UNL     1      25.776  45.120  48.605  1.00  0.00     0.168 HD
ENDROOT
BRANCH   1   3
HETATM    3  C   UNL     1      25.711  43.379  49.604  1.00  0.00     0.179 C 
HETATM    4  S   UNL     1      25.960  41.769  49.225  1.00  0.00    -0.040 SA
BRANCH   3   5
HETATM    5  N   UNL     1      26.160  43.761  50.856  1.00  0.00    -0.299 N 
HETATM    6  C   UNL     1      25.481  44.377  51.897  1.00  0.00     0.257 C 
HETATM    7  O   UNL     1      24.262  44.475  51.969  1.00  0.00    -0.267 OA
HETATM    8  H   UNL     1      27.143  43.561  50.995  1.00  0.00     0.171 HD
BRANCH   6   9
HETATM    9  C   UNL     1      26.364  44.845  52.992  1.00  0.00     0.032 A 
HETATM   10  C   UNL     1      27.279  43.961  53.579  1.00  0.00     0.020 A 
HETATM   11  C   UNL     1      28.060  44.383  54.656  1.00  0.00     0.038 A 
HETATM   12  C   UNL     1      27.939  45.688  55.132  1.00  0.00     0.068 A 
HETATM   13  C   UNL     1      27.023  46.567  54.550  1.00  0.00     0.038 A 
HETATM   14  C   UNL     1      26.246  46.154  53.464  1.00  0.00     0.020 A 
BRANCH  12  15
HETATM   15  O   UNL     1      28.617  46.129  56.236  1.00  0.00    -0.351 OA
BRANCH  15  16
HETATM   16  C   UNL     1      30.008  45.791  56.211  1.00  0.00     0.175 C 
BRANCH  16  17
HETATM   17  C   UNL     1      30.497  45.589  57.645  1.00  0.00     0.026 C 
BRANCH  17  18
HETATM   18  C   UNL     1      31.238  44.261  57.818  1.00  0.00    -0.002 C 
HETATM   19  C   UNL     1      31.261  43.463  56.523  1.00  0.00     0.005 C 
ENDBRANCH  17  18
ENDBRANCH  16  17
ENDBRANCH  15  16
ENDBRANCH  12  15
ENDBRANCH   6   9
ENDBRANCH   3   5
ENDBRANCH   1   3
BRANCH   1  20
HETATM   20  C   UNL     1      23.777  44.600  48.480  1.00  0.00     0.035 A 
HETATM   21  C   UNL     1      23.243  45.882  48.717  1.00  0.00     0.046 A 
HETATM   22  C   UNL     1      21.916  46.214  48.368  1.00  0.00     0.035 A 
HETATM   23  C   UNL     1      21.142  45.213  47.753  1.00  0.00     0.078 A 
HETATM   24  C   UNL     1      21.667  43.953  47.485  1.00  0.00     0.040 A 
HETATM   25  C   UNL     1      22.980  43.653  47.842  1.00  0.00     0.032 A 
BRANCH  22  26
HETATM   26  C   UNL     1      21.320  47.547  48.619  1.00  0.00     0.112 A 
HETATM   27  S   UNL     1      22.135  49.023  48.283  1.00  0.00    -0.067 SA
HETATM   28  C   UNL     1      20.777  49.924  48.836  1.00  0.00     0.035 A 
HETATM   29  C   UNL     1      19.784  49.035  49.244  1.00  0.00     0.075 A 
HETATM   30  C   UNL     1      20.598  51.315  48.905  1.00  0.00     0.021 A 
HETATM   31  N   UNL     1      20.101  47.694  49.114  1.00  0.00    -0.239 NA
HETATM   32  C   UNL     1      18.570  49.549  49.741  1.00  0.00     0.033 A 
HETATM   33  C   UNL     1      18.380  50.933  49.815  1.00  0.00     0.002 A 
HETATM   34  C   UNL     1      19.385  51.803  49.401  1.00  0.00     0.002 A 
ENDBRANCH  22  26
BRANCH  23  35
HETATM   35  O   UNL     1      19.839  45.397  47.365  1.00  0.00    -0.360 OA
HETATM   36  H   UNL     1      19.765  45.116  46.427  1.00  0.00     0.217 HD
ENDBRANCH  23  35
ENDBRANCH   1  20
TORSDOF 10
ENDMDL
MODEL 9
REMARK VINA RESULT:      -9.0      2.585     11.654
REMARK  10 active torsions:
REMARK  status: ('A' for Active; 'I' for Inactive)
REMARK    1  A    between atoms: C_2  and  C_3 
REMARK    2  A    between atoms: C_3  and  C_4 
REMARK    3  A    between atoms: C_4  and  O_5 
REMARK    4  A    between atoms: O_5  and  C_6 
REMARK    5  A    between atoms: C_9  and  C_10 
REMARK       I    between atoms: C_10  and  N_11 
REMARK    6  A    between atoms: N_11  and  C_12 
REMARK    7  A    between atoms: C_12  and  N_13 
REMARK    8  A    between atoms: N_13  and  C_14 
REMARK    9  A    between atoms: C_16  and  C_17 
REMARK   10  A    between atoms: C_26  and  O_27 
ROOT
HETATM    1  N   UNL     1      23.135  46.917  49.316  1.00  0.00    -0.333 N 
HETATM    2  H   UNL     1      23.164  45.983  49.727  1.00  0.00     0.168 HD
ENDROOT
BRANCH   1   3
HETATM    3  C   UNL     1      24.245  47.672  49.620  1.00  0.00     0.179 C 
HETATM    4  S   UNL     1      24.841  49.050  48.884  1.00  0.00    -0.040 SA
BRANCH   3   5
HETATM    5  N   UNL     1      24.986  47.217  50.695  1.00  0.00    -0.299 N 
HETATM    6  C   UNL     1      25.015  45.964  51.292  1.00  0.00     0.257 C 
HETATM    7  O   UNL     1      24.545  44.948  50.797  1.00  0.00    -0.267 OA
HETATM    8  H   UNL     1      25.575  47.937  51.095  1.00  0.00     0.171 HD
BRANCH   6   9
HETATM    9  C   UNL     1      25.760  45.930  52.574  1.00  0.00     0.032 A 
HETATM   10  C   UNL     1      25.960  47.113  53.298  1.00  0.00     0.020 A 
HETATM   11  C   UNL     1      26.720  47.091  54.469  1.00  0.00     0.038 A 
HETATM   12  C   UNL     1      27.262  45.889  54.922  1.00  0.00     0.068 A 
HETATM   13  C   UNL     1      27.066  44.711  54.197  1.00  0.00     0.038 A 
HETATM   14  C   UNL     1      26.296  44.725  53.031  1.00  0.00     0.020 A 
BRANCH  12  15
HETATM   15  O   UNL     1      28.084  45.823  56.014  1.00  0.00    -0.351 OA
BRANCH  15  16
HETATM   16  C   UNL     1      29.464  46.026  55.689  1.00  0.00     0.175 C 
BRANCH  16  17
HETATM   17  C   UNL     1      30.328  45.266  56.694  1.00  0.00     0.026 C 
BRANCH  17  18
HETATM   18  C   UNL     1      30.976  44.025  56.073  1.00  0.00    -0.002 C 
HETATM   19  C   UNL     1      31.738  43.215  57.112  1.00  0.00     0.005 C 
ENDBRANCH  17  18
ENDBRANCH  16  17
ENDBRANCH  15  16
ENDBRANCH  12  15
ENDBRANCH   6   9
ENDBRANCH   3   5
ENDBRANCH   1   3
BRANCH   1  20
HETATM   20  C   UNL     1      22.019  47.175  48.483  1.00  0.00     0.035 A 
HETATM   21  C   UNL     1      21.154  48.216  48.872  1.00  0.00     0.046 A 
HETATM   22  C   UNL     1      20.015  48.564  48.114  1.00  0.00     0.035 A 
HETATM   23  C   UNL     1      19.780  47.835  46.934  1.00  0.00     0.078 A 
HETATM   24  C   UNL     1      20.642  46.825  46.522  1.00  0.00     0.040 A 
HETATM   25  C   UNL     1      21.759  46.503  47.290  1.00  0.00     0.032 A 
BRANCH  22  26
HETATM   26  C   UNL     1      19.077  49.642  48.506  1.00  0.00     0.112 A 
HETATM   27  S   UNL     1      19.578  51.088  49.291  1.00  0.00    -0.067 SA
HETATM   28  C   UNL     1      17.956  51.661  49.318  1.00  0.00     0.035 A 
HETATM   29  C   UNL     1      17.132  50.707  48.722  1.00  0.00     0.075 A 
HETATM   30  C   UNL     1      17.444  52.866  49.826  1.00  0.00     0.021 A 
HETATM   31  N   UNL     1      17.778  49.571  48.265  1.00  0.00    -0.239 NA
HETATM   32  C   UNL     1      15.749  50.960  48.632  1.00  0.00     0.033 A 
HETATM   33  C   UNL     1      15.228  52.157  49.135  1.00  0.00     0.002 A 
HETATM   34  C   UNL     1      16.068  53.097  49.724  1.00  0.00     0.002 A 
ENDBRANCH  22  26
BRANCH  23  35
HETATM   35  O   UNL     1      18.710  48.064  46.106  1.00  0.00    -0.360 OA
HETATM   36  H   UNL     1      18.112  48.697  46.560  1.00  0.00     0.217 HD
ENDBRANCH  23  35
ENDBRANCH   1  20
TORSDOF 10
ENDMDL
MODEL 10
REMARK VINA RESULT:      -9.0      1.642      2.059
REMARK  10 active torsions:
REMARK  status: ('A' for Active; 'I' for Inactive)
REMARK    1  A    between atoms: C_2  and  C_3 
REMARK    2  A    between atoms: C_3  and  C_4 
REMARK    3  A    between atoms: C_4  and  O_5 
REMARK    4  A    between atoms: O_5  and  C_6 
REMARK    5  A    between atoms: C_9  and  C_10 
REMARK       I    between atoms: C_10  and  N_11 
REMARK    6  A    between atoms: N_11  and  C_12 
REMARK    7  A    between atoms: C_12  and  N_13 
REMARK    8  A    between atoms: N_13  and  C_14 
REMARK    9  A    between atoms: C_16  and  C_17 
REMARK   10  A    between atoms: C_26  and  O_27 
ROOT
HETATM    1  N   UNL     1      24.227  47.320  50.697  1.00  0.00    -0.333 N 
HETATM    2  H   UNL     1      23.614  47.730  51.403  1.00  0.00     0.168 HD
ENDROOT
BRANCH   1   3
HETATM    3  C   UNL     1      24.524  48.190  49.673  1.00  0.00     0.179 C 
HETATM    4  S   UNL     1      26.006  48.655  49.054  1.00  0.00    -0.040 SA
BRANCH   3   5
HETATM    5  N   UNL     1      23.428  48.776  49.066  1.00  0.00    -0.299 N 
HETATM    6  C   UNL     1      22.972  50.086  49.122  1.00  0.00     0.257 C 
HETATM    7  O   UNL     1      23.624  51.031  49.546  1.00  0.00    -0.267 OA
HETATM    8  H   UNL     1      22.888  48.118  48.517  1.00  0.00     0.171 HD
BRANCH   6   9
HETATM    9  C   UNL     1      21.625  50.275  48.530  1.00  0.00     0.032 A 
HETATM   10  C   UNL     1      20.885  51.426  48.830  1.00  0.00     0.020 A 
HETATM   11  C   UNL     1      19.591  51.570  48.327  1.00  0.00     0.038 A 
HETATM   12  C   UNL     1      19.047  50.576  47.515  1.00  0.00     0.068 A 
HETATM   13  C   UNL     1      19.783  49.427  47.221  1.00  0.00     0.038 A 
HETATM   14  C   UNL     1      21.084  49.281  47.711  1.00  0.00     0.020 A 
BRANCH  12  15
HETATM   15  O   UNL     1      17.755  50.624  47.066  1.00  0.00    -0.351 OA
BRANCH  15  16
HETATM   16  C   UNL     1      16.848  49.881  47.889  1.00  0.00     0.175 C 
BRANCH  16  17
HETATM   17  C   UNL     1      15.613  50.738  48.167  1.00  0.00     0.026 C 
BRANCH  17  18
HETATM   18  C   UNL     1      15.974  52.209  48.390  1.00  0.00    -0.002 C 
HETATM   19  C   UNL     1      16.280  52.492  49.853  1.00  0.00     0.005 C 
ENDBRANCH  17  18
ENDBRANCH  16  17
ENDBRANCH  15  16
ENDBRANCH  12  15
ENDBRANCH   6   9
ENDBRANCH   3   5
ENDBRANCH   1   3
BRANCH   1  20
HETATM   20  C   UNL     1      24.678  46.007  50.980  1.00  0.00     0.035 A 
HETATM   21  C   UNL     1      25.761  45.878  51.872  1.00  0.00     0.046 A 
HETATM   22  C   UNL     1      26.288  44.619  52.230  1.00  0.00     0.035 A 
HETATM   23  C   UNL     1      25.676  43.482  51.669  1.00  0.00     0.078 A 
HETATM   24  C   UNL     1      24.588  43.593  50.810  1.00  0.00     0.040 A 
HETATM   25  C   UNL     1      24.089  44.850  50.474  1.00  0.00     0.032 A 
BRANCH  22  26
HETATM   26  C   UNL     1      27.435  44.451  53.152  1.00  0.00     0.112 A 
HETATM   27  S   UNL     1      28.612  43.209  52.974  1.00  0.00    -0.067 SA
HETATM   28  C   UNL     1      29.456  43.782  54.360  1.00  0.00     0.035 A 
HETATM   29  C   UNL     1      28.782  44.889  54.872  1.00  0.00     0.075 A 
HETATM   30  C   UNL     1      30.630  43.291  54.954  1.00  0.00     0.021 A 
HETATM   31  N   UNL     1      27.642  45.259  54.178  1.00  0.00    -0.239 NA
HETATM   32  C   UNL     1      29.293  45.530  56.018  1.00  0.00     0.033 A 
HETATM   33  C   UNL     1      30.461  45.050  56.619  1.00  0.00     0.002 A 
HETATM   34  C   UNL     1      31.120  43.944  56.091  1.00  0.00     0.002 A 
ENDBRANCH  22  26
BRANCH  23  35
HETATM   35  O   UNL     1      26.088  42.199  51.926  1.00  0.00    -0.360 OA
HETATM   36  H   UNL     1      25.422  41.589  51.539  1.00  0.00     0.217 HD
ENDBRANCH  23  35
ENDBRANCH   1  20
TORSDOF 10
ENDMDL
