MODEL 1
REMARK VINA RESULT:      -9.3      0.000      0.000
REMARK  11 active torsions:
REMARK  status: ('A' for Active; 'I' for Inactive)
REMARK    1  A    between atoms: C_2  and  O_3 
REMARK    2  A    between atoms: O_3  and  C_4 
REMARK    3  A    between atoms: C_5  and  O_6 
REMARK    4  A    between atoms: C_9  and  C_10 
REMARK    5  A    between atoms: N_11  and  C_12 
REMARK    6  A    between atoms: C_12  and  C_13 
REMARK    7  A    between atoms: C_13  and  C_14 
REMARK    8  A    between atoms: C_14  and  N_15 
REMARK    9  A    between atoms: C_24  and  O_25 
REMARK   10  A    between atoms: C_26  and  C_27 
REMARK   11  A    between atoms: C_27  and  C_28 
ROOT
HETATM    1  C   UNL     1      26.512  45.309  51.054  1.00  0.00     0.161 C 
HETATM    2  N   UNL     1      25.766  44.154  50.560  1.00  0.00    -0.333 N 
HETATM    3  C   UNL     1      24.927  43.640  51.520  1.00  0.00     0.278 C 
HETATM    4  O   UNL     1      24.268  42.613  51.442  1.00  0.00    -0.265 OA
HETATM    5  C   UNL     1      25.175  44.381  52.772  1.00  0.00     0.146 C 
HETATM    6  C   UNL     1      26.185  45.224  52.522  1.00  0.00     0.059 C 
ENDROOT
BRANCH   1   7
HETATM    7  C   UNL     1      26.062  46.587  50.358  1.00  0.00    -0.028 A 
HETATM    8  C   UNL     1      26.986  47.507  49.820  1.00  0.00     0.012 A 
HETATM    9  C   UNL     1      26.557  48.676  49.193  1.00  0.00     0.040 A 
HETATM   10  C   UNL     1      25.200  48.942  49.110  1.00  0.00     0.099 A 
HETATM   11  C   UNL     1      24.252  48.056  49.626  1.00  0.00     0.102 A 
HETATM   12  C   UNL     1      24.685  46.887  50.260  1.00  0.00     0.049 A 
BRANCH  10  13
HETATM   13  O   UNL     1      24.807  50.096  48.491  1.00  0.00    -0.358 OA
HETATM   14  H   UNL     1      24.482  50.676  49.206  1.00  0.00     0.218 HD
ENDBRANCH  10  13
BRANCH  11  15
HETATM   15  O   UNL     1      22.951  48.457  49.474  1.00  0.00    -0.349 OA
BRANCH  15  16
HETATM   16  C   UNL     1      22.161  47.730  48.537  1.00  0.00     0.171 C 
HETATM   17  C   UNL     1      21.235  48.720  47.852  1.00  0.00     0.034 C 
ENDBRANCH  15  16
ENDBRANCH  11  15
ENDBRANCH   1   7
BRANCH   2  18
HETATM   18  C   UNL     1      26.110  43.439  49.345  1.00  0.00     0.129 C 
BRANCH  18  19
HETATM   19  C   UNL     1      27.028  42.233  49.588  1.00  0.00     0.048 C 
BRANCH  19  20
HETATM   20  C   UNL     1      27.422  41.393  48.368  1.00  0.00     0.236 C 
BRANCH  20  21
HETATM   21  N   UNL     1      28.346  40.246  48.679  1.00  0.00    -0.067 N 
HETATM   22  H   UNL     1      29.317  40.534  48.439  1.00  0.00     0.280 HD
HETATM   23  C   UNL     1      28.300  39.792  50.132  1.00  0.00     0.261 C 
HETATM   24  C   UNL     1      29.231  38.594  50.345  1.00  0.00     0.195 C 
HETATM   25  O   UNL     1      28.904  37.519  49.459  1.00  0.00    -0.388 OA
HETATM   26  C   UNL     1      29.048  37.912  48.090  1.00  0.00     0.195 C 
HETATM   27  C   UNL     1      28.080  39.051  47.755  1.00  0.00     0.261 C 
ENDBRANCH  20  21
ENDBRANCH  19  20
ENDBRANCH  18  19
ENDBRANCH   2  18
BRANCH   6  28
HETATM   28  C   UNL     1      27.000  46.017  53.467  1.00  0.00     0.193 C 
HETATM   29  O   UNL     1      26.824  47.227  53.555  1.00  0.00    -0.287 OA
BRANCH  28  30
HETATM   30  C   UNL     1      28.099  45.386  54.231  1.00  0.00     0.015 A 
HETATM   31  C   UNL     1      28.610  44.131  53.879  1.00  0.00     0.016 A 
HETATM   32  C   UNL     1      29.661  43.573  54.611  1.00  0.00     0.007 A 
HETATM   33  C   UNL     1      30.220  44.271  55.687  1.00  0.00    -0.062 A 
HETATM   34  C   UNL     1      31.363  43.684  56.463  1.00  0.00     0.048 C 
HETATM   35  C   UNL     1      29.745  45.552  55.994  1.00  0.00     0.007 A 
HETATM   36  C   UNL     1      28.691  46.111  55.267  1.00  0.00     0.016 A 
ENDBRANCH  28  30
ENDBRANCH   6  28
BRANCH   5  37
HETATM   37  O   UNL     1      24.576  44.067  53.951  1.00  0.00    -0.355 OA
HETATM   38  H   UNL     1      24.386  43.108  53.939  1.00  0.00     0.218 HD
ENDBRANCH   5  37
TORSDOF 11
ENDMDL
MODEL 2
REMARK VINA RESULT:      -9.1      2.067      3.088
REMARK  11 active torsions:
REMARK  status: ('A' for Active; 'I' for Inactive)
REMARK    1  A    between atoms: C_2  and  O_3 
REMARK    2  A    between atoms: O_3  and  C_4 
REMARK    3  A    between atoms: C_5  and  O_6 
REMARK    4  A    between atoms: C_9  and  C_10 
REMARK    5  A    between atoms: N_11  and  C_12 
REMARK    6  A    between atoms: C_12  and  C_13 
REMARK    7  A    between atoms: C_13  and  C_14 
REMARK    8  A    between atoms: C_14  and  N_15 
REMARK    9  A    between atoms: C_24  and  O_25 
REMARK   10  A    between atoms: C_26  and  C_27 
REMARK   11  A    between atoms: C_27  and  C_28 
ROOT
HETATM    1  C   UNL     1      27.615  43.197  50.655  1.00  0.00     0.161 C 
HETATM    2  N   UNL     1      26.801  42.076  50.193  1.00  0.00    -0.333 N 
HETATM    3  C   UNL     1      26.621  41.135  51.180  1.00  0.00     0.278 C 
HETATM    4  O   UNL     1      26.089  40.040  51.059  1.00  0.00    -0.265 OA
HETATM    5  C   UNL     1      27.434  41.545  52.341  1.00  0.00     0.146 C 
HETATM    6  C   UNL     1      28.107  42.641  51.966  1.00  0.00     0.059 C 
ENDROOT
BRANCH   1   7
HETATM    7  C   UNL     1      26.784  44.469  50.757  1.00  0.00    -0.028 A 
HETATM    8  C   UNL     1      25.788  44.632  51.743  1.00  0.00     0.012 A 
HETATM    9  C   UNL     1      25.031  45.800  51.816  1.00  0.00     0.040 A 
HETATM   10  C   UNL     1      25.255  46.812  50.897  1.00  0.00     0.099 A 
HETATM   11  C   UNL     1      26.233  46.692  49.908  1.00  0.00     0.102 A 
HETATM   12  C   UNL     1      26.987  45.517  49.832  1.00  0.00     0.049 A 
BRANCH  10  13
HETATM   13  O   UNL     1      24.498  47.946  50.992  1.00  0.00    -0.358 OA
HETATM   14  H   UNL     1      24.695  48.458  50.184  1.00  0.00     0.218 HD
ENDBRANCH  10  13
BRANCH  11  15
HETATM   15  O   UNL     1      26.333  47.771  49.069  1.00  0.00    -0.349 OA
BRANCH  15  16
HETATM   16  C   UNL     1      27.544  48.522  49.131  1.00  0.00     0.171 C 
HETATM   17  C   UNL     1      27.221  49.946  48.713  1.00  0.00     0.034 C 
ENDBRANCH  15  16
ENDBRANCH  11  15
ENDBRANCH   1   7
BRANCH   2  18
HETATM   18  C   UNL     1      26.510  41.820  48.795  1.00  0.00     0.129 C 
BRANCH  18  19
HETATM   19  C   UNL     1      27.709  41.264  48.014  1.00  0.00     0.048 C 
BRANCH  19  20
HETATM   20  C   UNL     1      27.497  39.962  47.235  1.00  0.00     0.236 C 
BRANCH  20  21
HETATM   21  N   UNL     1      27.945  38.724  47.967  1.00  0.00    -0.067 N 
HETATM   22  H   UNL     1      28.362  38.069  47.274  1.00  0.00     0.280 HD
HETATM   23  C   UNL     1      28.954  38.993  49.075  1.00  0.00     0.261 C 
HETATM   24  C   UNL     1      29.316  37.689  49.794  1.00  0.00     0.195 C 
HETATM   25  O   UNL     1      28.148  37.038  50.306  1.00  0.00    -0.388 OA
HETATM   26  C   UNL     1      27.243  36.690  49.253  1.00  0.00     0.195 C 
HETATM   27  C   UNL     1      26.750  37.948  48.532  1.00  0.00     0.261 C 
ENDBRANCH  20  21
ENDBRANCH  19  20
ENDBRANCH  18  19
ENDBRANCH   2  18
BRANCH   6  28
HETATM   28  C   UNL     1      29.239  43.319  52.632  1.00  0.00     0.193 C 
HETATM   29  O   UNL     1      30.380  43.154  52.213  1.00  0.00    -0.287 OA
BRANCH  28  30
HETATM   30  C   UNL     1      29.027  44.112  53.864  1.00  0.00     0.015 A 
HETATM   31  C   UNL     1      27.827  44.795  54.098  1.00  0.00     0.016 A 
HETATM   32  C   UNL     1      27.654  45.518  55.280  1.00  0.00     0.007 A 
HETATM   33  C   UNL     1      28.667  45.548  56.245  1.00  0.00    -0.062 A 
HETATM   34  C   UNL     1      28.476  46.308  57.526  1.00  0.00     0.048 C 
HETATM   35  C   UNL     1      29.838  44.811  56.031  1.00  0.00     0.007 A 
HETATM   36  C   UNL     1      30.018  44.091  54.848  1.00  0.00     0.016 A 
ENDBRANCH  28  30
ENDBRANCH   6  28
BRANCH   5  37
HETATM   37  O   UNL     1      27.559  40.790  53.464  1.00  0.00    -0.355 OA
HETATM   38  H   UNL     1      27.309  39.873  53.231  1.00  0.00     0.218 HD
ENDBRANCH   5  37
TORSDOF 11
ENDMDL
MODEL 3
REMARK VINA RESULT:      -8.6      2.514      4.855
REMARK  11 active torsions:
REMARK  status: ('A' for Active; 'I' for Inactive)
REMARK    1  A    between atoms: C_2  and  O_3 
REMARK    2  A    between atoms: O_3  and  C_4 
REMARK    3  A    between atoms: C_5  and  O_6 
REMARK    4  A    between atoms: C_9  and  C_10 
REMARK    5  A    between atoms: N_11  and  C_12 
REMARK    6  A    between atoms: C_12  and  C_13 
REMARK    7  A    between atoms: C_13  and  C_14 
REMARK    8  A    between atoms: C_14  and  N_15 
REMARK    9  A    between atoms: C_24  and  O_25 
REMARK   10  A    between atoms: C_26  and  C_27 
REMARK   11  A    between atoms: C_27  and  C_28 
ROOT
HETATM    1  C   UNL     1      27.563  43.189  50.637  1.00  0.00     0.161 C 
HETATM    2  N   UNL     1      26.739  42.065  50.201  1.00  0.00    -0.333 N 
HETATM    3  C   UNL     1      26.570  41.138  51.202  1.00  0.00     0.278 C 
HETATM    4  O   UNL     1      26.033  40.044  51.104  1.00  0.00    -0.265 OA
HETATM    5  C   UNL     1      27.401  41.560  52.346  1.00  0.00     0.146 C 
HETATM    6  C   UNL     1      28.072  42.648  51.947  1.00  0.00     0.059 C 
ENDROOT
BRANCH   1   7
HETATM    7  C   UNL     1      26.738  44.466  50.734  1.00  0.00    -0.028 A 
HETATM    8  C   UNL     1      25.720  44.623  51.698  1.00  0.00     0.012 A 
HETATM    9  C   UNL     1      24.969  45.795  51.767  1.00  0.00     0.040 A 
HETATM   10  C   UNL     1      25.221  46.816  50.866  1.00  0.00     0.099 A 
HETATM   11  C   UNL     1      26.222  46.702  49.899  1.00  0.00     0.102 A 
HETATM   12  C   UNL     1      26.969  45.523  49.826  1.00  0.00     0.049 A 
BRANCH  10  13
HETATM   13  O   UNL     1      24.469  47.954  50.957  1.00  0.00    -0.358 OA
HETATM   14  H   UNL     1      24.975  48.554  51.538  1.00  0.00     0.218 HD
ENDBRANCH  10  13
BRANCH  11  15
HETATM   15  O   UNL     1      26.349  47.790  49.076  1.00  0.00    -0.349 OA
BRANCH  15  16
HETATM   16  C   UNL     1      27.581  48.505  49.142  1.00  0.00     0.171 C 
HETATM   17  C   UNL     1      27.297  49.945  48.751  1.00  0.00     0.034 C 
ENDBRANCH  15  16
ENDBRANCH  11  15
ENDBRANCH   1   7
BRANCH   2  18
HETATM   18  C   UNL     1      26.426  41.792  48.811  1.00  0.00     0.129 C 
BRANCH  18  19
HETATM   19  C   UNL     1      24.944  41.997  48.468  1.00  0.00     0.048 C 
BRANCH  19  20
HETATM   20  C   UNL     1      24.498  43.415  48.098  1.00  0.00     0.236 C 
BRANCH  20  21
HETATM   21  N   UNL     1      23.005  43.608  48.077  1.00  0.00    -0.067 N 
HETATM   22  H   UNL     1      22.558  42.738  48.434  1.00  0.00     0.280 HD
HETATM   23  C   UNL     1      22.523  44.794  48.901  1.00  0.00     0.261 C 
HETATM   24  C   UNL     1      21.002  44.943  48.783  1.00  0.00     0.195 C 
HETATM   25  O   UNL     1      20.598  45.067  47.416  1.00  0.00    -0.388 OA
HETATM   26  C   UNL     1      20.958  43.905  46.661  1.00  0.00     0.195 C 
HETATM   27  C   UNL     1      22.478  43.727  46.642  1.00  0.00     0.261 C 
ENDBRANCH  20  21
ENDBRANCH  19  20
ENDBRANCH  18  19
ENDBRANCH   2  18
BRANCH   6  28
HETATM   28  C   UNL     1      29.216  43.331  52.588  1.00  0.00     0.193 C 
HETATM   29  O   UNL     1      30.347  43.175  52.139  1.00  0.00    -0.287 OA
BRANCH  28  30
HETATM   30  C   UNL     1      29.030  44.116  53.829  1.00  0.00     0.015 A 
HETATM   31  C   UNL     1      27.872  44.870  54.052  1.00  0.00     0.016 A 
HETATM   32  C   UNL     1      27.721  45.584  55.242  1.00  0.00     0.007 A 
HETATM   33  C   UNL     1      28.715  45.535  56.226  1.00  0.00    -0.062 A 
HETATM   34  C   UNL     1      28.547  46.285  57.516  1.00  0.00     0.048 C 
HETATM   35  C   UNL     1      29.841  44.729  56.022  1.00  0.00     0.007 A 
HETATM   36  C   UNL     1      29.999  44.018  54.830  1.00  0.00     0.016 A 
ENDBRANCH  28  30
ENDBRANCH   6  28
BRANCH   5  37
HETATM   37  O   UNL     1      27.540  40.818  53.477  1.00  0.00    -0.355 OA
HETATM   38  H   UNL     1      27.235  41.367  54.227  1.00  0.00     0.218 HD
ENDBRANCH   5  37
TORSDOF 11
ENDMDL
MODEL 4
REMARK VINA RESULT:      -8.4      2.087      7.078
REMARK  11 active torsions:
REMARK  status: ('A' for Active; 'I' for Inactive)
REMARK    1  A    between atoms: C_2  and  O_3 
REMARK    2  A    between atoms: O_3  and  C_4 
REMARK    3  A    between atoms: C_5  and  O_6 
REMARK    4  A    between atoms: C_9  and  C_10 
REMARK    5  A    between atoms: N_11  and  C_12 
REMARK    6  A    between atoms: C_12  and  C_13 
REMARK    7  A    between atoms: C_13  and  C_14 
REMARK    8  A    between atoms: C_14  and  N_15 
REMARK    9  A    between atoms: C_24  and  O_25 
REMARK   10  A    between atoms: C_26  and  C_27 
REMARK   11  A    between atoms: C_27  and  C_28 
ROOT
HETATM    1  C   UNL     1      25.131  43.628  51.027  1.00  0.00     0.161 C 
HETATM    2  N   UNL     1      24.788  44.511  49.915  1.00  0.00    -0.333 N 
HETATM    3  C   UNL     1      25.256  45.788  50.113  1.00  0.00     0.278 C 
HETATM    4  O   UNL     1      25.026  46.768  49.419  1.00  0.00    -0.265 OA
HETATM    5  C   UNL     1      25.845  45.842  51.465  1.00  0.00     0.146 C 
HETATM    6  C   UNL     1      25.630  44.643  52.022  1.00  0.00     0.059 C 
ENDROOT
BRANCH   1   7
HETATM    7  C   UNL     1      26.150  42.580  50.597  1.00  0.00    -0.028 A 
HETATM    8  C   UNL     1      26.655  41.620  51.499  1.00  0.00     0.012 A 
HETATM    9  C   UNL     1      27.593  40.673  51.091  1.00  0.00     0.040 A 
HETATM   10  C   UNL     1      28.043  40.684  49.781  1.00  0.00     0.099 A 
HETATM   11  C   UNL     1      27.565  41.616  48.856  1.00  0.00     0.102 A 
HETATM   12  C   UNL     1      26.629  42.569  49.269  1.00  0.00     0.049 A 
BRANCH  10  13
HETATM   13  O   UNL     1      28.963  39.745  49.408  1.00  0.00    -0.358 OA
HETATM   14  H   UNL     1      28.442  38.983  49.090  1.00  0.00     0.218 HD
ENDBRANCH  10  13
BRANCH  11  15
HETATM   15  O   UNL     1      28.107  41.506  47.603  1.00  0.00    -0.349 OA
BRANCH  15  16
HETATM   16  C   UNL     1      27.292  40.900  46.602  1.00  0.00     0.171 C 
HETATM   17  C   UNL     1      28.119  40.811  45.331  1.00  0.00     0.034 C 
ENDBRANCH  15  16
ENDBRANCH  11  15
ENDBRANCH   1   7
BRANCH   2  18
HETATM   18  C   UNL     1      23.800  44.179  48.905  1.00  0.00     0.129 C 
BRANCH  18  19
HETATM   19  C   UNL     1      22.355  44.247  49.419  1.00  0.00     0.048 C 
BRANCH  19  20
HETATM   20  C   UNL     1      21.335  44.989  48.549  1.00  0.00     0.236 C 
BRANCH  20  21
HETATM   21  N   UNL     1      20.956  46.351  49.066  1.00  0.00    -0.067 N 
HETATM   22  H   UNL     1      21.057  46.347  50.102  1.00  0.00     0.280 HD
HETATM   23  C   UNL     1      21.790  47.486  48.485  1.00  0.00     0.261 C 
HETATM   24  C   UNL     1      21.305  48.835  49.027  1.00  0.00     0.195 C 
HETATM   25  O   UNL     1      19.912  49.030  48.762  1.00  0.00    -0.388 OA
HETATM   26  C   UNL     1      19.117  48.022  49.395  1.00  0.00     0.195 C 
HETATM   27  C   UNL     1      19.466  46.637  48.844  1.00  0.00     0.261 C 
ENDBRANCH  20  21
ENDBRANCH  19  20
ENDBRANCH  18  19
ENDBRANCH   2  18
BRANCH   6  28
HETATM   28  C   UNL     1      25.782  44.224  53.431  1.00  0.00     0.193 C 
HETATM   29  O   UNL     1      24.787  43.957  54.098  1.00  0.00    -0.287 OA
BRANCH  28  30
HETATM   30  C   UNL     1      27.111  44.225  54.081  1.00  0.00     0.015 A 
HETATM   31  C   UNL     1      28.012  43.167  53.908  1.00  0.00     0.016 A 
HETATM   32  C   UNL     1      29.266  43.209  54.521  1.00  0.00     0.007 A 
HETATM   33  C   UNL     1      29.638  44.314  55.294  1.00  0.00    -0.062 A 
HETATM   34  C   UNL     1      30.993  44.372  55.938  1.00  0.00     0.048 C 
HETATM   35  C   UNL     1      28.756  45.396  55.411  1.00  0.00     0.007 A 
HETATM   36  C   UNL     1      27.499  45.355  54.804  1.00  0.00     0.016 A 
ENDBRANCH  28  30
ENDBRANCH   6  28
BRANCH   5  37
HETATM   37  O   UNL     1      26.323  46.986  52.022  1.00  0.00    -0.355 OA
HETATM   38  H   UNL     1      26.671  46.759  52.907  1.00  0.00     0.218 HD
ENDBRANCH   5  37
TORSDOF 11
ENDMDL
MODEL 5
REMARK VINA RESULT:      -8.4      2.331      3.501
REMARK  11 active torsions:
REMARK  status: ('A' for Active; 'I' for Inactive)
REMARK    1  A    between atoms: C_2  and  O_3 
REMARK    2  A    between atoms: O_3  and  C_4 
REMARK    3  A    between atoms: C_5  and  O_6 
REMARK    4  A    between atoms: C_9  and  C_10 
REMARK    5  A    between atoms: N_11  and  C_12 
REMARK    6  A    between atoms: C_12  and  C_13 
REMARK    7  A    between atoms: C_13  and  C_14 
REMARK    8  A    between atoms: C_14  and  N_15 
REMARK    9  A    between atoms: C_24  and  O_25 
REMARK   10  A    between atoms: C_26  and  C_27 
REMARK   11  A    between atoms: C_27  and  C_28 
ROOT
HETATM    1  C   UNL     1      27.608  43.201  50.641  1.00  0.00     0.161 C 
HETATM    2  N   UNL     1      26.790  42.080  50.185  1.00  0.00    -0.333 N 
HETATM    3  C   UNL     1      26.601  41.148  51.179  1.00  0.00     0.278 C 
HETATM    4  O   UNL     1      26.063  40.056  51.065  1.00  0.00    -0.265 OA
HETATM    5  C   UNL     1      27.412  41.563  52.339  1.00  0.00     0.146 C 
HETATM    6  C   UNL     1      28.092  42.652  51.959  1.00  0.00     0.059 C 
ENDROOT
BRANCH   1   7
HETATM    7  C   UNL     1      26.784  44.478  50.730  1.00  0.00    -0.028 A 
HETATM    8  C   UNL     1      25.773  44.647  51.699  1.00  0.00     0.012 A 
HETATM    9  C   UNL     1      25.023  45.820  51.761  1.00  0.00     0.040 A 
HETATM   10  C   UNL     1      25.269  46.831  50.846  1.00  0.00     0.099 A 
HETATM   11  C   UNL     1      26.263  46.706  49.873  1.00  0.00     0.102 A 
HETATM   12  C   UNL     1      27.010  45.525  49.809  1.00  0.00     0.049 A 
BRANCH  10  13
HETATM   13  O   UNL     1      24.518  47.970  50.929  1.00  0.00    -0.358 OA
HETATM   14  H   UNL     1      24.733  48.481  50.125  1.00  0.00     0.218 HD
ENDBRANCH  10  13
BRANCH  11  15
HETATM   15  O   UNL     1      26.385  47.784  49.038  1.00  0.00    -0.349 OA
BRANCH  15  16
HETATM   16  C   UNL     1      27.585  48.547  49.144  1.00  0.00     0.171 C 
HETATM   17  C   UNL     1      27.254  49.978  48.759  1.00  0.00     0.034 C 
ENDBRANCH  15  16
ENDBRANCH  11  15
ENDBRANCH   1   7
BRANCH   2  18
HETATM   18  C   UNL     1      26.502  41.815  48.788  1.00  0.00     0.129 C 
BRANCH  18  19
HETATM   19  C   UNL     1      27.460  40.799  48.150  1.00  0.00     0.048 C 
BRANCH  19  20
HETATM   20  C   UNL     1      26.908  39.399  47.862  1.00  0.00     0.236 C 
BRANCH  20  21
HETATM   21  N   UNL     1      27.251  38.870  46.494  1.00  0.00    -0.067 N 
HETATM   22  H   UNL     1      26.477  38.249  46.181  1.00  0.00     0.280 HD
HETATM   23  C   UNL     1      27.479  39.955  45.451  1.00  0.00     0.261 C 
HETATM   24  C   UNL     1      27.869  39.329  44.108  1.00  0.00     0.195 C 
HETATM   25  O   UNL     1      29.023  38.491  44.242  1.00  0.00    -0.388 OA
HETATM   26  C   UNL     1      28.776  37.408  45.144  1.00  0.00     0.195 C 
HETATM   27  C   UNL     1      28.468  37.939  46.548  1.00  0.00     0.261 C 
ENDBRANCH  20  21
ENDBRANCH  19  20
ENDBRANCH  18  19
ENDBRANCH   2  18
BRANCH   6  28
HETATM   28  C   UNL     1      29.226  43.329  52.623  1.00  0.00     0.193 C 
HETATM   29  O   UNL     1      30.367  43.160  52.205  1.00  0.00    -0.287 OA
BRANCH  28  30
HETATM   30  C   UNL     1      29.016  44.125  53.853  1.00  0.00     0.015 A 
HETATM   31  C   UNL     1      27.832  44.841  54.069  1.00  0.00     0.016 A 
HETATM   32  C   UNL     1      27.659  45.567  55.249  1.00  0.00     0.007 A 
HETATM   33  C   UNL     1      28.657  45.568  56.230  1.00  0.00    -0.062 A 
HETATM   34  C   UNL     1      28.466  46.330  57.509  1.00  0.00     0.048 C 
HETATM   35  C   UNL     1      29.811  44.799  56.034  1.00  0.00     0.007 A 
HETATM   36  C   UNL     1      29.990  44.077  54.852  1.00  0.00     0.016 A 
ENDBRANCH  28  30
ENDBRANCH   6  28
BRANCH   5  37
HETATM   37  O   UNL     1      27.529  40.816  53.469  1.00  0.00    -0.355 OA
HETATM   38  H   UNL     1      27.274  39.899  53.243  1.00  0.00     0.218 HD
ENDBRANCH   5  37
TORSDOF 11
ENDMDL
MODEL 6
REMARK VINA RESULT:      -8.3      4.635      8.654
REMARK  11 active torsions:
REMARK  status: ('A' for Active; 'I' for Inactive)
REMARK    1  A    between atoms: C_2  and  O_3 
REMARK    2  A    between atoms: O_3  and  C_4 
REMARK    3  A    between atoms: C_5  and  O_6 
REMARK    4  A    between atoms: C_9  and  C_10 
REMARK    5  A    between atoms: N_11  and  C_12 
REMARK    6  A    between atoms: C_12  and  C_13 
REMARK    7  A    between atoms: C_13  and  C_14 
REMARK    8  A    between atoms: C_14  and  N_15 
REMARK    9  A    between atoms: C_24  and  O_25 
REMARK   10  A    between atoms: C_26  and  C_27 
REMARK   11  A    between atoms: C_27  and  C_28 
ROOT
HETATM    1  C   UNL     1      21.430  48.080  47.578  1.00  0.00     0.161 C 
HETATM    2  N   UNL     1      22.121  46.805  47.749  1.00  0.00    -0.333 N 
HETATM    3  C   UNL     1      23.001  46.839  48.805  1.00  0.00     0.278 C 
HETATM    4  O   UNL     1      23.801  45.969  49.119  1.00  0.00    -0.265 OA
HETATM    5  C   UNL     1      23.024  48.220  49.322  1.00  0.00     0.146 C 
HETATM    6  C   UNL     1      22.236  48.942  48.515  1.00  0.00     0.059 C 
ENDROOT
BRANCH   1   7
HETATM    7  C   UNL     1      19.951  47.951  47.919  1.00  0.00    -0.028 A 
HETATM    8  C   UNL     1      19.512  47.639  49.223  1.00  0.00     0.012 A 
HETATM    9  C   UNL     1      18.155  47.516  49.515  1.00  0.00     0.040 A 
HETATM   10  C   UNL     1      17.225  47.693  48.505  1.00  0.00     0.099 A 
HETATM   11  C   UNL     1      17.617  48.007  47.202  1.00  0.00     0.102 A 
HETATM   12  C   UNL     1      18.979  48.123  46.909  1.00  0.00     0.049 A 
BRANCH  10  13
HETATM   13  O   UNL     1      15.901  47.566  48.819  1.00  0.00    -0.358 OA
HETATM   14  H   UNL     1      15.515  48.452  48.680  1.00  0.00     0.218 HD
ENDBRANCH  10  13
BRANCH  11  15
HETATM   15  O   UNL     1      16.586  48.146  46.311  1.00  0.00    -0.349 OA
BRANCH  15  16
HETATM   16  C   UNL     1      16.491  49.393  45.627  1.00  0.00     0.171 C 
HETATM   17  C   UNL     1      15.703  50.342  46.513  1.00  0.00     0.034 C 
ENDBRANCH  15  16
ENDBRANCH  11  15
ENDBRANCH   1   7
BRANCH   2  18
HETATM   18  C   UNL     1      22.132  45.759  46.743  1.00  0.00     0.129 C 
BRANCH  18  19
HETATM   19  C   UNL     1      21.370  44.496  47.168  1.00  0.00     0.048 C 
BRANCH  19  20
HETATM   20  C   UNL     1      22.163  43.186  47.231  1.00  0.00     0.236 C 
BRANCH  20  21
HETATM   21  N   UNL     1      23.272  43.183  48.249  1.00  0.00    -0.067 N 
HETATM   22  H   UNL     1      23.724  44.120  48.243  1.00  0.00     0.280 HD
HETATM   23  C   UNL     1      22.811  42.856  49.663  1.00  0.00     0.261 C 
HETATM   24  C   UNL     1      24.008  42.827  50.620  1.00  0.00     0.195 C 
HETATM   25  O   UNL     1      25.005  41.901  50.175  1.00  0.00    -0.388 OA
HETATM   26  C   UNL     1      25.515  42.266  48.888  1.00  0.00     0.195 C 
HETATM   27  C   UNL     1      24.401  42.230  47.839  1.00  0.00     0.261 C 
ENDBRANCH  20  21
ENDBRANCH  19  20
ENDBRANCH  18  19
ENDBRANCH   2  18
BRANCH   6  28
HETATM   28  C   UNL     1      22.091  50.410  48.414  1.00  0.00     0.193 C 
HETATM   29  O   UNL     1      23.073  51.104  48.173  1.00  0.00    -0.287 OA
BRANCH  28  30
HETATM   30  C   UNL     1      20.795  51.064  48.704  1.00  0.00     0.015 A 
HETATM   31  C   UNL     1      20.001  51.600  47.683  1.00  0.00     0.016 A 
HETATM   32  C   UNL     1      18.774  52.194  47.990  1.00  0.00     0.007 A 
HETATM   33  C   UNL     1      18.323  52.238  49.313  1.00  0.00    -0.062 A 
HETATM   34  C   UNL     1      16.997  52.857  49.645  1.00  0.00     0.048 C 
HETATM   35  C   UNL     1      19.094  51.644  50.321  1.00  0.00     0.007 A 
HETATM   36  C   UNL     1      20.324  51.055  50.018  1.00  0.00     0.016 A 
ENDBRANCH  28  30
ENDBRANCH   6  28
BRANCH   5  37
HETATM   37  O   UNL     1      23.860  48.629  50.313  1.00  0.00    -0.355 OA
HETATM   38  H   UNL     1      23.414  49.354  50.794  1.00  0.00     0.218 HD
ENDBRANCH   5  37
TORSDOF 11
ENDMDL
MODEL 7
REMARK VINA RESULT:      -8.3      5.548     11.430
REMARK  11 active torsions:
REMARK  status: ('A' for Active; 'I' for Inactive)
REMARK    1  A    between atoms: C_2  and  O_3 
REMARK    2  A    between atoms: O_3  and  C_4 
REMARK    3  A    between atoms: C_5  and  O_6 
REMARK    4  A    between atoms: C_9  and  C_10 
REMARK    5  A    between atoms: N_11  and  C_12 
REMARK    6  A    between atoms: C_12  and  C_13 
REMARK    7  A    between atoms: C_13  and  C_14 
REMARK    8  A    between atoms: C_14  and  N_15 
REMARK    9  A    between atoms: C_24  and  O_25 
REMARK   10  A    between atoms: C_26  and  C_27 
REMARK   11  A    between atoms: C_27  and  C_28 
ROOT
HETATM    1  C   UNL     1      20.557  49.602  48.133  1.00  0.00     0.161 C 
HETATM    2  N   UNL     1      19.909  50.249  49.270  1.00  0.00    -0.333 N 
HETATM    3  C   UNL     1      19.102  49.377  49.963  1.00  0.00     0.278 C 
HETATM    4  O   UNL     1      18.346  49.652  50.883  1.00  0.00    -0.265 OA
HETATM    5  C   UNL     1      19.084  48.101  49.221  1.00  0.00     0.146 C 
HETATM    6  C   UNL     1      19.799  48.300  48.105  1.00  0.00     0.059 C 
ENDROOT
BRANCH   1   7
HETATM    7  C   UNL     1      22.058  49.478  48.358  1.00  0.00    -0.028 A 
HETATM    8  C   UNL     1      22.983  50.306  47.687  1.00  0.00     0.012 A 
HETATM    9  C   UNL     1      24.354  50.174  47.900  1.00  0.00     0.040 A 
HETATM   10  C   UNL     1      24.814  49.205  48.775  1.00  0.00     0.099 A 
HETATM   11  C   UNL     1      23.933  48.367  49.462  1.00  0.00     0.102 A 
HETATM   12  C   UNL     1      22.558  48.497  49.243  1.00  0.00     0.049 A 
BRANCH  10  13
HETATM   13  O   UNL     1      26.164  49.097  48.964  1.00  0.00    -0.358 OA
HETATM   14  H   UNL     1      26.354  49.604  49.777  1.00  0.00     0.218 HD
ENDBRANCH  10  13
BRANCH  11  15
HETATM   15  O   UNL     1      24.536  47.456  50.288  1.00  0.00    -0.349 OA
BRANCH  15  16
HETATM   16  C   UNL     1      24.323  46.078  49.989  1.00  0.00     0.171 C 
HETATM   17  C   UNL     1      25.662  45.484  49.590  1.00  0.00     0.034 C 
ENDBRANCH  15  16
ENDBRANCH  11  15
ENDBRANCH   1   7
BRANCH   2  18
HETATM   18  C   UNL     1      19.851  51.688  49.447  1.00  0.00     0.129 C 
BRANCH  18  19
HETATM   19  C   UNL     1      19.128  52.414  48.303  1.00  0.00     0.048 C 
BRANCH  19  20
HETATM   20  C   UNL     1      17.689  51.985  47.999  1.00  0.00     0.236 C 
BRANCH  20  21
HETATM   21  N   UNL     1      16.638  52.916  48.543  1.00  0.00    -0.067 N 
HETATM   22  H   UNL     1      17.020  53.885  48.525  1.00  0.00     0.280 HD
HETATM   23  C   UNL     1      15.323  52.880  47.776  1.00  0.00     0.261 C 
HETATM   24  C   UNL     1      14.301  53.819  48.426  1.00  0.00     0.195 C 
HETATM   25  O   UNL     1      14.103  53.494  49.806  1.00  0.00    -0.388 OA
HETATM   26  C   UNL     1      15.318  53.629  50.551  1.00  0.00     0.195 C 
HETATM   27  C   UNL     1      16.377  52.653  50.031  1.00  0.00     0.261 C 
ENDBRANCH  20  21
ENDBRANCH  19  20
ENDBRANCH  18  19
ENDBRANCH   2  18
BRANCH   6  28
HETATM   28  C   UNL     1      19.904  47.455  46.897  1.00  0.00     0.193 C 
HETATM   29  O   UNL     1      19.167  47.669  45.939  1.00  0.00    -0.287 OA
BRANCH  28  30
HETATM   30  C   UNL     1      20.813  46.288  46.866  1.00  0.00     0.015 A 
HETATM   31  C   UNL     1      20.962  45.447  47.976  1.00  0.00     0.016 A 
HETATM   32  C   UNL     1      21.814  44.343  47.906  1.00  0.00     0.007 A 
HETATM   33  C   UNL     1      22.507  44.058  46.724  1.00  0.00    -0.062 A 
HETATM   34  C   UNL     1      23.408  42.861  46.639  1.00  0.00     0.048 C 
HETATM   35  C   UNL     1      22.304  44.868  45.599  1.00  0.00     0.007 A 
HETATM   36  C   UNL     1      21.457  45.976  45.667  1.00  0.00     0.016 A 
ENDBRANCH  28  30
ENDBRANCH   6  28
BRANCH   5  37
HETATM   37  O   UNL     1      18.310  47.044  49.580  1.00  0.00    -0.355 OA
HETATM   38  H   UNL     1      17.931  46.665  48.761  1.00  0.00     0.218 HD
ENDBRANCH   5  37
TORSDOF 11
ENDMDL
MODEL 8
REMARK VINA RESULT:      -8.2     10.690     13.389
REMARK  11 active torsions:
REMARK  status: ('A' for Active; 'I' for Inactive)
REMARK    1  A    between atoms: C_2  and  O_3 
REMARK    2  A    between atoms: O_3  and  C_4 
REMARK    3  A    between atoms: C_5  and  O_6 
REMARK    4  A    between atoms: C_9  and  C_10 
REMARK    5  A    between atoms: N_11  and  C_12 
REMARK    6  A    between atoms: C_12  and  C_13 
REMARK    7  A    between atoms: C_13  and  C_14 
REMARK    8  A    between atoms: C_14  and  N_15 
REMARK    9  A    between atoms: C_24  and  O_25 
REMARK   10  A    between atoms: C_26  and  C_27 
REMARK   11  A    between atoms: C_27  and  C_28 
ROOT
HETATM    1  C   UNL     1      27.782  49.323  40.025  1.00  0.00     0.161 C 
HETATM    2  N   UNL     1      26.779  48.263  39.975  1.00  0.00    -0.333 N 
HETATM    3  C   UNL     1      26.253  48.116  38.713  1.00  0.00     0.278 C 
HETATM    4  O   UNL     1      25.318  47.398  38.388  1.00  0.00    -0.265 OA
HETATM    5  C   UNL     1      26.815  49.188  37.869  1.00  0.00     0.146 C 
HETATM    6  C   UNL     1      27.567  49.951  38.673  1.00  0.00     0.059 C 
ENDROOT
BRANCH   1   7
HETATM    7  C   UNL     1      29.172  48.748  40.263  1.00  0.00    -0.028 A 
HETATM    8  C   UNL     1      29.735  47.780  39.404  1.00  0.00     0.012 A 
HETATM    9  C   UNL     1      31.006  47.259  39.641  1.00  0.00     0.040 A 
HETATM   10  C   UNL     1      31.721  47.691  40.745  1.00  0.00     0.099 A 
HETATM   11  C   UNL     1      31.202  48.650  41.618  1.00  0.00     0.102 A 
HETATM   12  C   UNL     1      29.925  49.167  41.382  1.00  0.00     0.049 A 
BRANCH  10  13
HETATM   13  O   UNL     1      32.964  47.162  40.955  1.00  0.00    -0.358 OA
HETATM   14  H   UNL     1      33.107  46.536  40.220  1.00  0.00     0.218 HD
ENDBRANCH  10  13
BRANCH  11  15
HETATM   15  O   UNL     1      32.022  48.973  42.667  1.00  0.00    -0.349 OA
BRANCH  15  16
HETATM   16  C   UNL     1      32.756  50.190  42.557  1.00  0.00     0.171 C 
HETATM   17  C   UNL     1      32.252  51.128  43.641  1.00  0.00     0.034 C 
ENDBRANCH  15  16
ENDBRANCH  11  15
ENDBRANCH   1   7
BRANCH   2  18
HETATM   18  C   UNL     1      26.173  47.678  41.157  1.00  0.00     0.129 C 
BRANCH  18  19
HETATM   19  C   UNL     1      26.740  46.296  41.512  1.00  0.00     0.048 C 
BRANCH  19  20
HETATM   20  C   UNL     1      25.893  45.074  41.143  1.00  0.00     0.236 C 
BRANCH  20  21
HETATM   21  N   UNL     1      26.647  43.999  40.406  1.00  0.00    -0.067 N 
HETATM   22  H   UNL     1      25.987  43.523  39.757  1.00  0.00     0.280 HD
HETATM   23  C   UNL     1      27.843  44.514  39.617  1.00  0.00     0.261 C 
HETATM   24  C   UNL     1      28.577  43.350  38.942  1.00  0.00     0.195 C 
HETATM   25  O   UNL     1      28.977  42.364  39.900  1.00  0.00    -0.388 OA
HETATM   26  C   UNL     1      27.844  41.802  40.570  1.00  0.00     0.195 C 
HETATM   27  C   UNL     1      27.096  42.883  41.356  1.00  0.00     0.261 C 
ENDBRANCH  20  21
ENDBRANCH  19  20
ENDBRANCH  18  19
ENDBRANCH   2  18
BRANCH   6  28
HETATM   28  C   UNL     1      28.154  51.284  38.419  1.00  0.00     0.193 C 
HETATM   29  O   UNL     1      27.483  52.151  37.868  1.00  0.00    -0.287 OA
BRANCH  28  30
HETATM   30  C   UNL     1      29.576  51.555  38.727  1.00  0.00     0.015 A 
HETATM   31  C   UNL     1      30.605  51.103  37.891  1.00  0.00     0.016 A 
HETATM   32  C   UNL     1      31.935  51.393  38.201  1.00  0.00     0.007 A 
HETATM   33  C   UNL     1      32.247  52.151  39.335  1.00  0.00    -0.062 A 
HETATM   34  C   UNL     1      33.675  52.481  39.660  1.00  0.00     0.048 C 
HETATM   35  C   UNL     1      31.210  52.652  40.131  1.00  0.00     0.007 A 
HETATM   36  C   UNL     1      29.878  52.360  39.827  1.00  0.00     0.016 A 
ENDBRANCH  28  30
ENDBRANCH   6  28
BRANCH   5  37
HETATM   37  O   UNL     1      26.436  49.393  36.580  1.00  0.00    -0.355 OA
HETATM   38  H   UNL     1      26.212  50.341  36.486  1.00  0.00     0.218 HD
ENDBRANCH   5  37
TORSDOF 11
ENDMDL
MODEL 9
REMARK VINA RESULT:      -8.1      3.879      8.130
REMARK  11 active torsions:
REMARK  status: ('A' for Active; 'I' for Inactive)
REMARK    1  A    between atoms: C_2  and  O_3 
REMARK    2  A    between atoms: O_3  and  C_4 
REMARK    3  A    between atoms: C_5  and  O_6 
REMARK    4  A    between atoms: C_9  and  C_10 
REMARK    5  A    between atoms: N_11  and  C_12 
REMARK    6  A    between atoms: C_12  and  C_13 
REMARK    7  A    between atoms: C_13  and  C_14 
REMARK    8  A    between atoms: C_14  and  N_15 
REMARK    9  A    between atoms: C_24  and  O_25 
REMARK   10  A    between atoms: C_26  and  C_27 
REMARK   11  A    between atoms: C_27  and  C_28 
ROOT
HETATM    1  C   UNL     1      23.758  48.457  49.357  1.00  0.00     0.161 C 
HETATM    2  N   UNL     1      24.114  49.519  48.420  1.00  0.00    -0.333 N 
HETATM    3  C   UNL     1      25.458  49.513  48.128  1.00  0.00     0.278 C 
HETATM    4  O   UNL     1      26.069  50.345  47.473  1.00  0.00    -0.265 OA
HETATM    5  C   UNL     1      26.094  48.489  48.979  1.00  0.00     0.146 C 
HETATM    6  C   UNL     1      25.132  48.005  49.776  1.00  0.00     0.059 C 
ENDROOT
BRANCH   1   7
HETATM    7  C   UNL     1      22.900  47.396  48.679  1.00  0.00    -0.028 A 
HETATM    8  C   UNL     1      22.158  47.673  47.512  1.00  0.00     0.012 A 
HETATM    9  C   UNL     1      21.372  46.692  46.909  1.00  0.00     0.040 A 
HETATM   10  C   UNL     1      21.312  45.429  47.474  1.00  0.00     0.099 A 
HETATM   11  C   UNL     1      22.034  45.113  48.627  1.00  0.00     0.102 A 
HETATM   12  C   UNL     1      22.817  46.100  49.234  1.00  0.00     0.049 A 
BRANCH  10  13
HETATM   13  O   UNL     1      20.533  44.487  46.863  1.00  0.00    -0.358 OA
HETATM   14  H   UNL     1      21.145  43.963  46.311  1.00  0.00     0.218 HD
ENDBRANCH  10  13
BRANCH  11  15
HETATM   15  O   UNL     1      21.870  43.827  49.071  1.00  0.00    -0.349 OA
BRANCH  15  16
HETATM   16  C   UNL     1      22.868  43.321  49.955  1.00  0.00     0.171 C 
HETATM   17  C   UNL     1      23.471  42.087  49.305  1.00  0.00     0.034 C 
ENDBRANCH  15  16
ENDBRANCH  11  15
ENDBRANCH   1   7
BRANCH   2  18
HETATM   18  C   UNL     1      23.243  50.636  48.106  1.00  0.00     0.129 C 
BRANCH  18  19
HETATM   19  C   UNL     1      22.269  50.987  49.240  1.00  0.00     0.048 C 
BRANCH  19  20
HETATM   20  C   UNL     1      20.804  51.228  48.858  1.00  0.00     0.236 C 
BRANCH  20  21
HETATM   21  N   UNL     1      20.014  49.969  48.616  1.00  0.00    -0.067 N 
HETATM   22  H   UNL     1      20.525  49.393  47.915  1.00  0.00     0.280 HD
HETATM   23  C   UNL     1      19.773  49.140  49.869  1.00  0.00     0.261 C 
HETATM   24  C   UNL     1      18.923  47.908  49.538  1.00  0.00     0.195 C 
HETATM   25  O   UNL     1      17.687  48.283  48.921  1.00  0.00    -0.388 OA
HETATM   26  C   UNL     1      17.910  48.973  47.687  1.00  0.00     0.195 C 
HETATM   27  C   UNL     1      18.676  50.276  47.932  1.00  0.00     0.261 C 
ENDBRANCH  20  21
ENDBRANCH  19  20
ENDBRANCH  18  19
ENDBRANCH   2  18
BRANCH   6  28
HETATM   28  C   UNL     1      25.252  47.152  50.977  1.00  0.00     0.193 C 
HETATM   29  O   UNL     1      25.020  47.624  52.085  1.00  0.00    -0.287 OA
BRANCH  28  30
HETATM   30  C   UNL     1      25.750  45.763  50.871  1.00  0.00     0.015 A 
HETATM   31  C   UNL     1      26.199  45.236  49.653  1.00  0.00     0.016 A 
HETATM   32  C   UNL     1      26.681  43.927  49.593  1.00  0.00     0.007 A 
HETATM   33  C   UNL     1      26.737  43.141  50.749  1.00  0.00    -0.062 A 
HETATM   34  C   UNL     1      27.274  41.740  50.692  1.00  0.00     0.048 C 
HETATM   35  C   UNL     1      26.346  43.695  51.974  1.00  0.00     0.007 A 
HETATM   36  C   UNL     1      25.858  45.003  52.038  1.00  0.00     0.016 A 
ENDBRANCH  28  30
ENDBRANCH   6  28
BRANCH   5  37
HETATM   37  O   UNL     1      27.437  48.280  49.011  1.00  0.00    -0.355 OA
HETATM   38  H   UNL     1      27.616  47.633  49.723  1.00  0.00     0.218 HD
ENDBRANCH   5  37
TORSDOF 11
ENDMDL
MODEL 10
REMARK VINA RESULT:      -8.1      6.814      9.941
REMARK  11 active torsions:
REMARK  status: ('A' for Active; 'I' for Inactive)
REMARK    1  A    between atoms: C_2  and  O_3 
REMARK    2  A    between atoms: O_3  and  C_4 
REMARK    3  A    between atoms: C_5  and  O_6 
REMARK    4  A    between atoms: C_9  and  C_10 
REMARK    5  A    between atoms: N_11  and  C_12 
REMARK    6  A    between atoms: C_12  and  C_13 
REMARK    7  A    between atoms: C_13  and  C_14 
REMARK    8  A    between atoms: C_14  and  N_15 
REMARK    9  A    between atoms: C_24  and  O_25 
REMARK   10  A    between atoms: C_26  and  C_27 
REMARK   11  A    between atoms: C_27  and  C_28 
ROOT
HETATM    1  C   UNL     1      21.315  47.972  47.343  1.00  0.00     0.161 C 
HETATM    2  N   UNL     1      21.961  46.671  47.488  1.00  0.00    -0.333 N 
HETATM    3  C   UNL     1      22.752  46.616  48.612  1.00  0.00     0.278 C 
HETATM    4  O   UNL     1      23.503  45.707  48.935  1.00  0.00    -0.265 OA
HETATM    5  C   UNL     1      22.761  47.962  49.217  1.00  0.00     0.146 C 
HETATM    6  C   UNL     1      22.058  48.753  48.395  1.00  0.00     0.059 C 
ENDROOT
BRANCH   1   7
HETATM    7  C   UNL     1      19.811  47.861  47.553  1.00  0.00    -0.028 A 
HETATM    8  C   UNL     1      19.261  47.153  48.642  1.00  0.00     0.012 A 
HETATM    9  C   UNL     1      17.881  47.055  48.814  1.00  0.00     0.040 A 
HETATM   10  C   UNL     1      17.038  47.655  47.893  1.00  0.00     0.099 A 
HETATM   11  C   UNL     1      17.542  48.368  46.803  1.00  0.00     0.102 A 
HETATM   12  C   UNL     1      18.926  48.460  46.628  1.00  0.00     0.049 A 
BRANCH  10  13
HETATM   13  O   UNL     1      15.690  47.542  48.086  1.00  0.00    -0.358 OA
HETATM   14  H   UNL     1      15.585  47.195  48.993  1.00  0.00     0.218 HD
ENDBRANCH  10  13
BRANCH  11  15
HETATM   15  O   UNL     1      16.587  48.899  45.977  1.00  0.00    -0.349 OA
BRANCH  15  16
HETATM   16  C   UNL     1      16.637  50.307  45.759  1.00  0.00     0.171 C 
HETATM   17  C   UNL     1      15.825  50.970  46.858  1.00  0.00     0.034 C 
ENDBRANCH  15  16
ENDBRANCH  11  15
ENDBRANCH   1   7
BRANCH   2  18
HETATM   18  C   UNL     1      22.034  45.689  46.422  1.00  0.00     0.129 C 
BRANCH  18  19
HETATM   19  C   UNL     1      21.160  44.452  46.673  1.00  0.00     0.048 C 
BRANCH  19  20
HETATM   20  C   UNL     1      20.743  43.628  45.450  1.00  0.00     0.236 C 
BRANCH  20  21
HETATM   21  N   UNL     1      19.379  43.969  44.911  1.00  0.00    -0.067 N 
HETATM   22  H   UNL     1      19.485  44.738  44.218  1.00  0.00     0.280 HD
HETATM   23  C   UNL     1      18.663  42.797  44.255  1.00  0.00     0.261 C 
HETATM   24  C   UNL     1      17.268  43.222  43.782  1.00  0.00     0.195 C 
HETATM   25  O   UNL     1      16.497  43.761  44.860  1.00  0.00    -0.388 OA
HETATM   26  C   UNL     1      17.117  44.927  45.411  1.00  0.00     0.195 C 
HETATM   27  C   UNL     1      18.487  44.579  45.999  1.00  0.00     0.261 C 
ENDBRANCH  20  21
ENDBRANCH  19  20
ENDBRANCH  18  19
ENDBRANCH   2  18
BRANCH   6  28
HETATM   28  C   UNL     1      21.954  50.227  48.376  1.00  0.00     0.193 C 
HETATM   29  O   UNL     1      22.945  50.905  48.123  1.00  0.00    -0.287 OA
BRANCH  28  30
HETATM   30  C   UNL     1      20.694  50.901  48.762  1.00  0.00     0.015 A 
HETATM   31  C   UNL     1      20.126  51.904  47.967  1.00  0.00     0.016 A 
HETATM   32  C   UNL     1      18.927  52.507  48.352  1.00  0.00     0.007 A 
HETATM   33  C   UNL     1      18.276  52.099  49.522  1.00  0.00    -0.062 A 
HETATM   34  C   UNL     1      16.976  52.730  49.928  1.00  0.00     0.048 C 
HETATM   35  C   UNL     1      18.817  51.053  50.279  1.00  0.00     0.007 A 
HETATM   36  C   UNL     1      20.020  50.452  49.900  1.00  0.00     0.016 A 
ENDBRANCH  28  30
ENDBRANCH   6  28
BRANCH   5  37
HETATM   37  O   UNL     1      23.520  48.286  50.297  1.00  0.00    -0.355 OA
HETATM   38  H   UNL     1      23.701  47.459  50.787  1.00  0.00     0.218 HD
ENDBRANCH   5  37
TORSDOF 11
ENDMDL
