MODEL 1
REMARK VINA RESULT:      -9.5      0.000      0.000
REMARK  5 active torsions:
REMARK  status: ('A' for Active; 'I' for Inactive)
REMARK    1  A    between atoms: C_6  and  C_7 
REMARK    2  A    between atoms: C_7  and  N_8 
REMARK       I    between atoms: N_8  and  C_9 
REMARK       I    between atoms: C_9  and  N_10 
REMARK    3  A    between atoms: N_10  and  C_11 
REMARK    4  A    between atoms: C_14  and  C_15 
REMARK       I    between atoms: C_15  and  N_16 
REMARK    5  A    between atoms: N_16  and  C_17 
ROOT
HETATM    1  C   UNL     1      25.767  44.252  50.940  1.00  0.00     0.036 A 
HETATM    2  C   UNL     1      25.337  44.060  52.254  1.00  0.00     0.030 A 
HETATM    3  C   UNL     1      26.260  43.790  53.271  1.00  0.00     0.019 A 
HETATM    4  C   UNL     1      27.624  43.676  52.979  1.00  0.00     0.032 A 
HETATM    5  C   UNL     1      28.056  43.827  51.658  1.00  0.00     0.019 A 
HETATM    6  C   UNL     1      27.128  44.099  50.647  1.00  0.00     0.030 A 
ENDROOT
BRANCH   1   7
HETATM    7  N   UNL     1      24.922  44.572  49.860  1.00  0.00    -0.309 N 
HETATM    8  C   UNL     1      24.213  45.688  49.538  1.00  0.00     0.321 C 
HETATM    9  N   UNL     1      24.462  46.823  50.231  1.00  0.00    -0.337 N 
HETATM   10  O   UNL     1      23.409  45.644  48.608  1.00  0.00    -0.247 OA
HETATM   11  H   UNL     1      25.381  46.922  50.638  1.00  0.00     0.164 HD
HETATM   12  H   UNL     1      24.799  43.858  49.153  1.00  0.00     0.170 HD
BRANCH   9  13
HETATM   13  C   UNL     1      23.827  48.067  49.870  1.00  0.00     0.186 C 
BRANCH  13  14
HETATM   14  C   UNL     1      24.759  48.876  49.038  1.00  0.00     0.083 A 
HETATM   15  C   UNL     1      24.456  49.852  48.109  1.00  0.00     0.076 A 
HETATM   16  C   UNL     1      23.207  50.435  47.590  1.00  0.00     0.079 C 
HETATM   17  O   UNL     1      25.632  50.327  47.599  1.00  0.00    -0.307 OA
HETATM   18  C   UNL     1      26.588  49.605  48.244  1.00  0.00     0.258 A 
HETATM   19  N   UNL     1      26.134  48.716  49.098  1.00  0.00    -0.237 NA
ENDBRANCH  13  14
ENDBRANCH   9  13
ENDBRANCH   1   7
BRANCH   4  20
HETATM   20  C   UNL     1      28.583  43.460  54.101  1.00  0.00     0.256 C 
HETATM   21  N   UNL     1      29.073  44.614  54.684  1.00  0.00    -0.323 N 
HETATM   22  H   UNL     1      28.890  45.487  54.207  1.00  0.00     0.169 HD
HETATM   23  O   UNL     1      28.871  42.307  54.400  1.00  0.00    -0.267 OA
BRANCH  21  24
HETATM   24  C   UNL     1      29.863  44.710  55.849  1.00  0.00     0.035 A 
HETATM   25  C   UNL     1      30.944  43.872  56.128  1.00  0.00     0.029 A 
HETATM   26  C   UNL     1      31.658  44.007  57.322  1.00  0.00     0.002 A 
HETATM   27  C   UNL     1      31.298  44.982  58.249  1.00  0.00     0.000 A 
HETATM   28  C   UNL     1      30.222  45.824  57.982  1.00  0.00     0.002 A 
HETATM   29  C   UNL     1      29.507  45.686  56.789  1.00  0.00     0.029 A 
ENDBRANCH  21  24
ENDBRANCH   4  20
TORSDOF 5
ENDMDL
MODEL 2
REMARK VINA RESULT:      -8.9      3.052      4.137
REMARK  5 active torsions:
REMARK  status: ('A' for Active; 'I' for Inactive)
REMARK    1  A    between atoms: C_6  and  C_7 
REMARK    2  A    between atoms: C_7  and  N_8 
REMARK       I    between atoms: N_8  and  C_9 
REMARK       I    between atoms: C_9  and  N_10 
REMARK    3  A    between atoms: N_10  and  C_11 
REMARK    4  A    between atoms: C_14  and  C_15 
REMARK       I    between atoms: C_15  and  N_16 
REMARK    5  A    between atoms: N_16  and  C_17 
ROOT
HETATM    1  C   UNL     1      24.142  46.241  49.942  1.00  0.00     0.036 A 
HETATM    2  C   UNL     1      24.899  47.217  50.594  1.00  0.00     0.030 A 
HETATM    3  C   UNL     1      25.577  46.916  51.780  1.00  0.00     0.019 A 
HETATM    4  C   UNL     1      25.481  45.641  52.348  1.00  0.00     0.032 A 
HETATM    5  C   UNL     1      24.692  44.670  51.723  1.00  0.00     0.019 A 
HETATM    6  C   UNL     1      24.017  44.978  50.536  1.00  0.00     0.030 A 
ENDROOT
BRANCH   1   7
HETATM    7  N   UNL     1      23.463  46.435  48.725  1.00  0.00    -0.309 N 
HETATM    8  C   UNL     1      22.491  47.303  48.335  1.00  0.00     0.321 C 
HETATM    9  N   UNL     1      22.198  48.341  49.152  1.00  0.00    -0.337 N 
HETATM   10  O   UNL     1      21.946  47.146  47.243  1.00  0.00    -0.247 OA
HETATM   11  H   UNL     1      22.931  48.664  49.767  1.00  0.00     0.164 HD
HETATM   12  H   UNL     1      23.730  45.833  47.956  1.00  0.00     0.170 HD
BRANCH   9  13
HETATM   13  C   UNL     1      21.257  49.359  48.751  1.00  0.00     0.186 C 
BRANCH  13  14
HETATM   14  C   UNL     1      20.046  49.281  49.612  1.00  0.00     0.083 A 
HETATM   15  C   UNL     1      19.261  50.312  50.088  1.00  0.00     0.076 A 
HETATM   16  C   UNL     1      19.297  51.780  49.969  1.00  0.00     0.079 C 
HETATM   17  O   UNL     1      18.252  49.765  50.832  1.00  0.00    -0.307 OA
HETATM   18  C   UNL     1      18.486  48.427  50.772  1.00  0.00     0.258 A 
HETATM   19  N   UNL     1      19.544  48.075  50.077  1.00  0.00    -0.237 NA
ENDBRANCH  13  14
ENDBRANCH   9  13
ENDBRANCH   1   7
BRANCH   4  20
HETATM   20  C   UNL     1      26.277  45.338  53.573  1.00  0.00     0.256 C 
HETATM   21  N   UNL     1      27.581  44.941  53.341  1.00  0.00    -0.323 N 
HETATM   22  H   UNL     1      27.835  44.722  52.387  1.00  0.00     0.169 HD
HETATM   23  O   UNL     1      25.723  45.441  54.661  1.00  0.00    -0.267 OA
BRANCH  21  24
HETATM   24  C   UNL     1      28.595  44.745  54.302  1.00  0.00     0.035 A 
HETATM   25  C   UNL     1      28.975  45.708  55.240  1.00  0.00     0.029 A 
HETATM   26  C   UNL     1      30.014  45.451  56.140  1.00  0.00     0.002 A 
HETATM   27  C   UNL     1      30.683  44.230  56.110  1.00  0.00     0.000 A 
HETATM   28  C   UNL     1      30.313  43.263  55.180  1.00  0.00     0.002 A 
HETATM   29  C   UNL     1      29.276  43.521  54.279  1.00  0.00     0.029 A 
ENDBRANCH  21  24
ENDBRANCH   4  20
TORSDOF 5
ENDMDL
MODEL 3
REMARK VINA RESULT:      -8.9      2.706      9.497
REMARK  5 active torsions:
REMARK  status: ('A' for Active; 'I' for Inactive)
REMARK    1  A    between atoms: C_6  and  C_7 
REMARK    2  A    between atoms: C_7  and  N_8 
REMARK       I    between atoms: N_8  and  C_9 
REMARK       I    between atoms: C_9  and  N_10 
REMARK    3  A    between atoms: N_10  and  C_11 
REMARK    4  A    between atoms: C_14  and  C_15 
REMARK       I    between atoms: C_15  and  N_16 
REMARK    5  A    between atoms: N_16  and  C_17 
ROOT
HETATM    1  C   UNL     1      25.708  45.607  49.981  1.00  0.00     0.036 A 
HETATM    2  C   UNL     1      24.465  45.095  49.604  1.00  0.00     0.030 A 
HETATM    3  C   UNL     1      23.435  45.953  49.202  1.00  0.00     0.019 A 
HETATM    4  C   UNL     1      23.625  47.339  49.204  1.00  0.00     0.032 A 
HETATM    5  C   UNL     1      24.854  47.861  49.619  1.00  0.00     0.019 A 
HETATM    6  C   UNL     1      25.881  46.997  50.018  1.00  0.00     0.030 A 
ENDROOT
BRANCH   1   7
HETATM    7  N   UNL     1      26.816  44.825  50.356  1.00  0.00    -0.309 N 
HETATM    8  C   UNL     1      27.269  44.375  51.557  1.00  0.00     0.321 C 
HETATM    9  N   UNL     1      26.453  44.494  52.630  1.00  0.00    -0.337 N 
HETATM   10  O   UNL     1      28.374  43.840  51.623  1.00  0.00    -0.247 OA
HETATM   11  H   UNL     1      25.459  44.514  52.453  1.00  0.00     0.164 HD
HETATM   12  H   UNL     1      27.417  44.502  49.608  1.00  0.00     0.170 HD
BRANCH   9  13
HETATM   13  C   UNL     1      26.825  43.940  53.910  1.00  0.00     0.186 C 
BRANCH  13  14
HETATM   14  C   UNL     1      27.728  44.889  54.616  1.00  0.00     0.083 A 
HETATM   15  C   UNL     1      29.039  44.700  55.007  1.00  0.00     0.076 A 
HETATM   16  C   UNL     1      29.996  43.584  54.912  1.00  0.00     0.079 C 
HETATM   17  O   UNL     1      29.468  45.847  55.615  1.00  0.00    -0.307 OA
HETATM   18  C   UNL     1      28.387  46.670  55.566  1.00  0.00     0.258 A 
HETATM   19  N   UNL     1      27.318  46.156  55.001  1.00  0.00    -0.237 NA
ENDBRANCH  13  14
ENDBRANCH   9  13
ENDBRANCH   1   7
BRANCH   4  20
HETATM   20  C   UNL     1      22.528  48.216  48.700  1.00  0.00     0.256 C 
HETATM   21  N   UNL     1      21.823  48.894  49.678  1.00  0.00    -0.323 N 
HETATM   22  H   UNL     1      21.981  48.616  50.638  1.00  0.00     0.169 HD
HETATM   23  O   UNL     1      22.329  48.253  47.492  1.00  0.00    -0.267 OA
BRANCH  21  24
HETATM   24  C   UNL     1      20.850  49.897  49.485  1.00  0.00     0.035 A 
HETATM   25  C   UNL     1      21.042  51.022  48.682  1.00  0.00     0.029 A 
HETATM   26  C   UNL     1      20.041  51.993  48.568  1.00  0.00     0.002 A 
HETATM   27  C   UNL     1      18.839  51.846  49.255  1.00  0.00     0.000 A 
HETATM   28  C   UNL     1      18.637  50.727  50.059  1.00  0.00     0.002 A 
HETATM   29  C   UNL     1      19.638  49.759  50.175  1.00  0.00     0.029 A 
ENDBRANCH  21  24
ENDBRANCH   4  20
TORSDOF 5
ENDMDL
MODEL 4
REMARK VINA RESULT:      -8.9      1.870      9.216
REMARK  5 active torsions:
REMARK  status: ('A' for Active; 'I' for Inactive)
REMARK    1  A    between atoms: C_6  and  C_7 
REMARK    2  A    between atoms: C_7  and  N_8 
REMARK       I    between atoms: N_8  and  C_9 
REMARK       I    between atoms: C_9  and  N_10 
REMARK    3  A    between atoms: N_10  and  C_11 
REMARK    4  A    between atoms: C_14  and  C_15 
REMARK       I    between atoms: C_15  and  N_16 
REMARK    5  A    between atoms: N_16  and  C_17 
ROOT
HETATM    1  C   UNL     1      26.336  43.711  51.740  1.00  0.00     0.036 A 
HETATM    2  C   UNL     1      26.718  44.093  50.452  1.00  0.00     0.030 A 
HETATM    3  C   UNL     1      26.254  45.294  49.901  1.00  0.00     0.019 A 
HETATM    4  C   UNL     1      25.375  46.111  50.619  1.00  0.00     0.032 A 
HETATM    5  C   UNL     1      24.957  45.714  51.893  1.00  0.00     0.019 A 
HETATM    6  C   UNL     1      25.425  44.513  52.439  1.00  0.00     0.030 A 
ENDROOT
BRANCH   1   7
HETATM    7  N   UNL     1      26.784  42.549  52.395  1.00  0.00    -0.309 N 
HETATM    8  C   UNL     1      27.913  42.258  53.097  1.00  0.00     0.321 C 
HETATM    9  N   UNL     1      28.728  43.281  53.445  1.00  0.00    -0.337 N 
HETATM   10  O   UNL     1      28.134  41.094  53.429  1.00  0.00    -0.247 OA
HETATM   11  H   UNL     1      28.305  44.193  53.545  1.00  0.00     0.164 HD
HETATM   12  H   UNL     1      26.166  41.748  52.372  1.00  0.00     0.170 HD
BRANCH   9  13
HETATM   13  C   UNL     1      29.882  43.058  54.282  1.00  0.00     0.186 C 
BRANCH  13  14
HETATM   14  C   UNL     1      29.962  44.130  55.311  1.00  0.00     0.083 A 
HETATM   15  C   UNL     1      30.792  44.206  56.412  1.00  0.00     0.076 A 
HETATM   16  C   UNL     1      31.834  43.336  56.984  1.00  0.00     0.079 C 
HETATM   17  O   UNL     1      30.517  45.374  57.068  1.00  0.00    -0.307 OA
HETATM   18  C   UNL     1      29.526  45.942  56.329  1.00  0.00     0.258 A 
HETATM   19  N   UNL     1      29.140  45.247  55.284  1.00  0.00    -0.237 NA
ENDBRANCH  13  14
ENDBRANCH   9  13
ENDBRANCH   1   7
BRANCH   4  20
HETATM   20  C   UNL     1      24.961  47.416  50.026  1.00  0.00     0.256 C 
HETATM   21  N   UNL     1      23.644  47.480  49.610  1.00  0.00    -0.323 N 
HETATM   22  H   UNL     1      23.128  46.611  49.575  1.00  0.00     0.169 HD
HETATM   23  O   UNL     1      25.803  48.302  49.938  1.00  0.00    -0.267 OA
BRANCH  21  24
HETATM   24  C   UNL     1      22.947  48.622  49.164  1.00  0.00     0.035 A 
HETATM   25  C   UNL     1      23.523  49.888  49.045  1.00  0.00     0.029 A 
HETATM   26  C   UNL     1      22.756  50.981  48.627  1.00  0.00     0.002 A 
HETATM   27  C   UNL     1      21.407  50.817  48.324  1.00  0.00     0.000 A 
HETATM   28  C   UNL     1      20.822  49.559  48.439  1.00  0.00     0.002 A 
HETATM   29  C   UNL     1      21.588  48.468  48.859  1.00  0.00     0.029 A 
ENDBRANCH  21  24
ENDBRANCH   4  20
TORSDOF 5
ENDMDL
MODEL 5
REMARK VINA RESULT:      -8.6      2.907      9.326
REMARK  5 active torsions:
REMARK  status: ('A' for Active; 'I' for Inactive)
REMARK    1  A    between atoms: C_6  and  C_7 
REMARK    2  A    between atoms: C_7  and  N_8 
REMARK       I    between atoms: N_8  and  C_9 
REMARK       I    between atoms: C_9  and  N_10 
REMARK    3  A    between atoms: N_10  and  C_11 
REMARK    4  A    between atoms: C_14  and  C_15 
REMARK       I    between atoms: C_15  and  N_16 
REMARK    5  A    between atoms: N_16  and  C_17 
ROOT
HETATM    1  C   UNL     1      25.574  45.735  49.874  1.00  0.00     0.036 A 
HETATM    2  C   UNL     1      25.553  47.128  49.969  1.00  0.00     0.030 A 
HETATM    3  C   UNL     1      24.425  47.851  49.563  1.00  0.00     0.019 A 
HETATM    4  C   UNL     1      23.315  47.191  49.025  1.00  0.00     0.032 A 
HETATM    5  C   UNL     1      23.345  45.800  48.890  1.00  0.00     0.019 A 
HETATM    6  C   UNL     1      24.476  45.083  49.299  1.00  0.00     0.030 A 
ENDROOT
BRANCH   1   7
HETATM    7  N   UNL     1      26.640  44.920  50.297  1.00  0.00    -0.309 N 
HETATM    8  C   UNL     1      27.076  44.529  51.525  1.00  0.00     0.321 C 
HETATM    9  N   UNL     1      26.275  44.764  52.590  1.00  0.00    -0.337 N 
HETATM   10  O   UNL     1      28.151  43.939  51.623  1.00  0.00    -0.247 OA
HETATM   11  H   UNL     1      25.283  44.826  52.415  1.00  0.00     0.164 HD
HETATM   12  H   UNL     1      27.218  44.515  49.571  1.00  0.00     0.170 HD
BRANCH   9  13
HETATM   13  C   UNL     1      26.625  44.278  53.903  1.00  0.00     0.186 C 
BRANCH  13  14
HETATM   14  C   UNL     1      27.538  45.250  54.564  1.00  0.00     0.083 A 
HETATM   15  C   UNL     1      27.346  46.600  54.782  1.00  0.00     0.076 A 
HETATM   16  C   UNL     1      26.269  47.555  54.469  1.00  0.00     0.079 C 
HETATM   17  O   UNL     1      28.448  47.084  55.431  1.00  0.00    -0.307 OA
HETATM   18  C   UNL     1      29.255  45.997  55.565  1.00  0.00     0.258 A 
HETATM   19  N   UNL     1      28.781  44.882  55.057  1.00  0.00    -0.237 NA
ENDBRANCH  13  14
ENDBRANCH   9  13
ENDBRANCH   1   7
BRANCH   4  20
HETATM   20  C   UNL     1      22.105  47.990  48.673  1.00  0.00     0.256 C 
HETATM   21  N   UNL     1      21.766  48.974  49.583  1.00  0.00    -0.323 N 
HETATM   22  H   UNL     1      22.241  48.961  50.476  1.00  0.00     0.169 HD
HETATM   23  O   UNL     1      21.509  47.708  47.640  1.00  0.00    -0.267 OA
BRANCH  21  24
HETATM   24  C   UNL     1      20.777  49.969  49.433  1.00  0.00     0.035 A 
HETATM   25  C   UNL     1      20.915  51.083  48.603  1.00  0.00     0.029 A 
HETATM   26  C   UNL     1      19.903  52.046  48.533  1.00  0.00     0.002 A 
HETATM   27  C   UNL     1      18.745  51.903  49.293  1.00  0.00     0.000 A 
HETATM   28  C   UNL     1      18.597  50.796  50.124  1.00  0.00     0.002 A 
HETATM   29  C   UNL     1      19.610  49.836  50.195  1.00  0.00     0.029 A 
ENDBRANCH  21  24
ENDBRANCH   4  20
TORSDOF 5
ENDMDL
MODEL 6
REMARK VINA RESULT:      -8.1     11.841     13.395
REMARK  5 active torsions:
REMARK  status: ('A' for Active; 'I' for Inactive)
REMARK    1  A    between atoms: C_6  and  C_7 
REMARK    2  A    between atoms: C_7  and  N_8 
REMARK       I    between atoms: N_8  and  C_9 
REMARK       I    between atoms: C_9  and  N_10 
REMARK    3  A    between atoms: N_10  and  C_11 
REMARK    4  A    between atoms: C_14  and  C_15 
REMARK       I    between atoms: C_15  and  N_16 
REMARK    5  A    between atoms: N_16  and  C_17 
ROOT
HETATM    1  C   UNL     1      32.310  50.336  42.770  1.00  0.00     0.036 A 
HETATM    2  C   UNL     1      32.458  51.182  43.871  1.00  0.00     0.030 A 
HETATM    3  C   UNL     1      33.665  51.857  44.090  1.00  0.00     0.019 A 
HETATM    4  C   UNL     1      34.750  51.669  43.228  1.00  0.00     0.032 A 
HETATM    5  C   UNL     1      34.621  50.792  42.147  1.00  0.00     0.019 A 
HETATM    6  C   UNL     1      33.412  50.121  41.932  1.00  0.00     0.030 A 
ENDROOT
BRANCH   1   7
HETATM    7  N   UNL     1      31.126  49.651  42.440  1.00  0.00    -0.309 N 
HETATM    8  C   UNL     1      29.869  50.070  42.130  1.00  0.00     0.321 C 
HETATM    9  N   UNL     1      29.681  51.386  41.876  1.00  0.00    -0.337 N 
HETATM   10  O   UNL     1      28.962  49.244  42.045  1.00  0.00    -0.247 OA
HETATM   11  H   UNL     1      30.475  51.907  41.532  1.00  0.00     0.164 HD
HETATM   12  H   UNL     1      31.180  48.641  42.407  1.00  0.00     0.170 HD
BRANCH   9  13
HETATM   13  C   UNL     1      28.399  51.881  41.434  1.00  0.00     0.186 C 
BRANCH  13  14
HETATM   14  C   UNL     1      28.410  52.030  39.953  1.00  0.00     0.083 A 
HETATM   15  C   UNL     1      27.886  51.181  38.999  1.00  0.00     0.076 A 
HETATM   16  C   UNL     1      27.180  49.889  39.040  1.00  0.00     0.079 C 
HETATM   17  O   UNL     1      28.123  51.730  37.770  1.00  0.00    -0.307 OA
HETATM   18  C   UNL     1      28.788  52.884  38.046  1.00  0.00     0.258 A 
HETATM   19  N   UNL     1      29.003  53.112  39.322  1.00  0.00    -0.237 NA
ENDBRANCH  13  14
ENDBRANCH   9  13
ENDBRANCH   1   7
BRANCH   4  20
HETATM   20  C   UNL     1      35.994  52.462  43.454  1.00  0.00     0.256 C 
HETATM   21  N   UNL     1      36.528  52.365  44.726  1.00  0.00    -0.323 N 
HETATM   22  H   UNL     1      35.957  51.922  45.435  1.00  0.00     0.169 HD
HETATM   23  O   UNL     1      36.424  53.135  42.526  1.00  0.00    -0.267 OA
BRANCH  21  24
HETATM   24  C   UNL     1      37.766  52.874  45.171  1.00  0.00     0.035 A 
HETATM   25  C   UNL     1      38.971  52.175  45.083  1.00  0.00     0.029 A 
HETATM   26  C   UNL     1      40.154  52.733  45.578  1.00  0.00     0.002 A 
HETATM   27  C   UNL     1      40.142  53.996  46.165  1.00  0.00     0.000 A 
HETATM   28  C   UNL     1      38.946  54.703  46.258  1.00  0.00     0.002 A 
HETATM   29  C   UNL     1      37.764  54.143  45.766  1.00  0.00     0.029 A 
ENDBRANCH  21  24
ENDBRANCH   4  20
TORSDOF 5
ENDMDL
MODEL 7
REMARK VINA RESULT:      -8.1      3.338      4.415
REMARK  5 active torsions:
REMARK  status: ('A' for Active; 'I' for Inactive)
REMARK    1  A    between atoms: C_6  and  C_7 
REMARK    2  A    between atoms: C_7  and  N_8 
REMARK       I    between atoms: N_8  and  C_9 
REMARK       I    between atoms: C_9  and  N_10 
REMARK    3  A    between atoms: N_10  and  C_11 
REMARK    4  A    between atoms: C_14  and  C_15 
REMARK       I    between atoms: C_15  and  N_16 
REMARK    5  A    between atoms: N_16  and  C_17 
ROOT
HETATM    1  C   UNL     1      23.351  46.011  49.163  1.00  0.00     0.036 A 
HETATM    2  C   UNL     1      24.205  46.837  49.896  1.00  0.00     0.030 A 
HETATM    3  C   UNL     1      24.940  46.324  50.972  1.00  0.00     0.019 A 
HETATM    4  C   UNL     1      24.804  44.984  51.349  1.00  0.00     0.032 A 
HETATM    5  C   UNL     1      23.921  44.161  50.644  1.00  0.00     0.019 A 
HETATM    6  C   UNL     1      23.190  44.679  49.569  1.00  0.00     0.030 A 
ENDROOT
BRANCH   1   7
HETATM    7  N   UNL     1      22.608  46.422  48.042  1.00  0.00    -0.309 N 
HETATM    8  C   UNL     1      21.341  46.896  47.893  1.00  0.00     0.321 C 
HETATM    9  N   UNL     1      20.661  47.256  49.006  1.00  0.00    -0.337 N 
HETATM   10  O   UNL     1      20.875  47.025  46.762  1.00  0.00    -0.247 OA
HETATM   11  H   UNL     1      21.205  47.544  49.806  1.00  0.00     0.164 HD
HETATM   12  H   UNL     1      23.078  46.381  47.146  1.00  0.00     0.170 HD
BRANCH   9  13
HETATM   13  C   UNL     1      19.357  47.868  48.914  1.00  0.00     0.186 C 
BRANCH  13  14
HETATM   14  C   UNL     1      19.455  49.301  49.301  1.00  0.00     0.083 A 
HETATM   15  C   UNL     1      18.482  50.279  49.234  1.00  0.00     0.076 A 
HETATM   16  C   UNL     1      17.080  50.314  48.781  1.00  0.00     0.079 C 
HETATM   17  O   UNL     1      19.021  51.444  49.704  1.00  0.00    -0.307 OA
HETATM   18  C   UNL     1      20.300  51.109  50.025  1.00  0.00     0.258 A 
HETATM   19  N   UNL     1      20.624  49.858  49.795  1.00  0.00    -0.237 NA
ENDBRANCH  13  14
ENDBRANCH   9  13
ENDBRANCH   1   7
BRANCH   4  20
HETATM   20  C   UNL     1      25.659  44.458  52.453  1.00  0.00     0.256 C 
HETATM   21  N   UNL     1      27.017  44.462  52.196  1.00  0.00    -0.323 N 
HETATM   22  H   UNL     1      27.307  44.647  51.245  1.00  0.00     0.169 HD
HETATM   23  O   UNL     1      25.105  44.054  53.468  1.00  0.00    -0.267 OA
BRANCH  21  24
HETATM   24  C   UNL     1      28.057  44.172  53.105  1.00  0.00     0.035 A 
HETATM   25  C   UNL     1      28.947  43.108  52.955  1.00  0.00     0.029 A 
HETATM   26  C   UNL     1      29.932  42.864  53.918  1.00  0.00     0.002 A 
HETATM   27  C   UNL     1      30.034  43.682  55.040  1.00  0.00     0.000 A 
HETATM   28  C   UNL     1      29.151  44.747  55.200  1.00  0.00     0.002 A 
HETATM   29  C   UNL     1      28.166  44.988  54.239  1.00  0.00     0.029 A 
ENDBRANCH  21  24
ENDBRANCH   4  20
TORSDOF 5
ENDMDL
MODEL 8
REMARK VINA RESULT:      -8.0      3.159      5.431
REMARK  5 active torsions:
REMARK  status: ('A' for Active; 'I' for Inactive)
REMARK    1  A    between atoms: C_6  and  C_7 
REMARK    2  A    between atoms: C_7  and  N_8 
REMARK       I    between atoms: N_8  and  C_9 
REMARK       I    between atoms: C_9  and  N_10 
REMARK    3  A    between atoms: N_10  and  C_11 
REMARK    4  A    between atoms: C_14  and  C_15 
REMARK       I    between atoms: C_15  and  N_16 
REMARK    5  A    between atoms: N_16  and  C_17 
ROOT
HETATM    1  C   UNL     1      24.843  48.689  49.316  1.00  0.00     0.036 A 
HETATM    2  C   UNL     1      26.230  48.585  49.194  1.00  0.00     0.030 A 
HETATM    3  C   UNL     1      26.886  47.398  49.542  1.00  0.00     0.019 A 
HETATM    4  C   UNL     1      26.165  46.310  50.046  1.00  0.00     0.032 A 
HETATM    5  C   UNL     1      24.781  46.422  50.208  1.00  0.00     0.019 A 
HETATM    6  C   UNL     1      24.131  47.611  49.858  1.00  0.00     0.030 A 
ENDROOT
BRANCH   1   7
HETATM    7  N   UNL     1      24.090  49.821  48.951  1.00  0.00    -0.309 N 
HETATM    8  C   UNL     1      22.836  49.976  48.446  1.00  0.00     0.321 C 
HETATM    9  N   UNL     1      22.013  48.903  48.445  1.00  0.00    -0.337 N 
HETATM   10  O   UNL     1      22.478  51.085  48.053  1.00  0.00    -0.247 OA
HETATM   11  H   UNL     1      22.179  48.194  49.145  1.00  0.00     0.164 HD
HETATM   12  H   UNL     1      24.532  50.722  49.085  1.00  0.00     0.170 HD
BRANCH   9  13
HETATM   13  C   UNL     1      20.637  49.024  48.028  1.00  0.00     0.186 C 
BRANCH  13  14
HETATM   14  C   UNL     1      19.764  49.146  49.227  1.00  0.00     0.083 A 
HETATM   15  C   UNL     1      19.256  50.290  49.808  1.00  0.00     0.076 A 
HETATM   16  C   UNL     1      19.366  51.732  49.524  1.00  0.00     0.079 C 
HETATM   17  O   UNL     1      18.499  49.917  50.884  1.00  0.00    -0.307 OA
HETATM   18  C   UNL     1      18.597  48.560  50.901  1.00  0.00     0.258 A 
HETATM   19  N   UNL     1      19.345  48.042  49.954  1.00  0.00    -0.237 NA
ENDBRANCH  13  14
ENDBRANCH   9  13
ENDBRANCH   1   7
BRANCH   4  20
HETATM   20  C   UNL     1      26.891  45.039  50.336  1.00  0.00     0.256 C 
HETATM   21  N   UNL     1      27.221  44.842  51.664  1.00  0.00    -0.323 N 
HETATM   22  H   UNL     1      27.108  45.629  52.290  1.00  0.00     0.169 HD
HETATM   23  O   UNL     1      27.150  44.297  49.397  1.00  0.00    -0.267 OA
BRANCH  21  24
HETATM   24  C   UNL     1      27.762  43.674  52.243  1.00  0.00     0.035 A 
HETATM   25  C   UNL     1      28.890  43.665  53.065  1.00  0.00     0.029 A 
HETATM   26  C   UNL     1      29.388  42.461  53.574  1.00  0.00     0.002 A 
HETATM   27  C   UNL     1      28.762  41.256  53.265  1.00  0.00     0.000 A 
HETATM   28  C   UNL     1      27.636  41.254  52.446  1.00  0.00     0.002 A 
HETATM   29  C   UNL     1      27.141  42.457  51.935  1.00  0.00     0.029 A 
ENDBRANCH  21  24
ENDBRANCH   4  20
TORSDOF 5
ENDMDL
MODEL 9
REMARK VINA RESULT:      -7.9     16.352     19.619
REMARK  5 active torsions:
REMARK  status: ('A' for Active; 'I' for Inactive)
REMARK    1  A    between atoms: C_6  and  C_7 
REMARK    2  A    between atoms: C_7  and  N_8 
REMARK       I    between atoms: N_8  and  C_9 
REMARK       I    between atoms: C_9  and  N_10 
REMARK    3  A    between atoms: N_10  and  C_11 
REMARK    4  A    between atoms: C_14  and  C_15 
REMARK       I    between atoms: C_15  and  N_16 
REMARK    5  A    between atoms: N_16  and  C_17 
ROOT
HETATM    1  C   UNL     1      38.903  42.089  62.824  1.00  0.00     0.036 A 
HETATM    2  C   UNL     1      39.781  43.174  62.783  1.00  0.00     0.030 A 
HETATM    3  C   UNL     1      39.349  44.452  63.161  1.00  0.00     0.019 A 
HETATM    4  C   UNL     1      38.023  44.665  63.554  1.00  0.00     0.032 A 
HETATM    5  C   UNL     1      37.129  43.589  63.558  1.00  0.00     0.019 A 
HETATM    6  C   UNL     1      37.568  42.315  63.180  1.00  0.00     0.030 A 
ENDROOT
BRANCH   1   7
HETATM    7  N   UNL     1      39.255  40.764  62.507  1.00  0.00    -0.309 N 
HETATM    8  C   UNL     1      39.624  39.696  63.267  1.00  0.00     0.321 C 
HETATM    9  N   UNL     1      39.461  39.782  64.607  1.00  0.00    -0.337 N 
HETATM   10  O   UNL     1      40.046  38.681  62.716  1.00  0.00    -0.247 OA
HETATM   11  H   UNL     1      38.739  40.403  64.945  1.00  0.00     0.164 HD
HETATM   12  H   UNL     1      39.232  40.509  61.528  1.00  0.00     0.170 HD
BRANCH   9  13
HETATM   13  C   UNL     1      39.727  38.650  65.461  1.00  0.00     0.186 C 
BRANCH  13  14
HETATM   14  C   UNL     1      41.022  38.855  66.166  1.00  0.00     0.083 A 
HETATM   15  C   UNL     1      42.278  38.410  65.805  1.00  0.00     0.076 A 
HETATM   16  C   UNL     1      42.811  37.610  64.689  1.00  0.00     0.079 C 
HETATM   17  O   UNL     1      43.167  38.845  66.749  1.00  0.00    -0.307 OA
HETATM   18  C   UNL     1      42.396  39.527  67.638  1.00  0.00     0.258 A 
HETATM   19  N   UNL     1      41.113  39.556  67.359  1.00  0.00    -0.237 NA
ENDBRANCH  13  14
ENDBRANCH   9  13
ENDBRANCH   1   7
BRANCH   4  20
HETATM   20  C   UNL     1      37.621  46.024  64.019  1.00  0.00     0.256 C 
HETATM   21  N   UNL     1      38.513  46.637  64.879  1.00  0.00    -0.323 N 
HETATM   22  H   UNL     1      39.258  46.066  65.256  1.00  0.00     0.169 HD
HETATM   23  O   UNL     1      36.550  46.473  63.629  1.00  0.00    -0.267 OA
BRANCH  21  24
HETATM   24  C   UNL     1      38.468  47.968  65.346  1.00  0.00     0.035 A 
HETATM   25  C   UNL     1      37.481  48.458  66.203  1.00  0.00     0.029 A 
HETATM   26  C   UNL     1      37.484  49.800  66.595  1.00  0.00     0.002 A 
HETATM   27  C   UNL     1      38.474  50.664  66.134  1.00  0.00     0.000 A 
HETATM   28  C   UNL     1      39.464  50.186  65.279  1.00  0.00     0.002 A 
HETATM   29  C   UNL     1      39.458  48.845  64.886  1.00  0.00     0.029 A 
ENDBRANCH  21  24
ENDBRANCH   4  20
TORSDOF 5
ENDMDL
MODEL 10
REMARK VINA RESULT:      -7.9      6.786     12.884
REMARK  5 active torsions:
REMARK  status: ('A' for Active; 'I' for Inactive)
REMARK    1  A    between atoms: C_6  and  C_7 
REMARK    2  A    between atoms: C_7  and  N_8 
REMARK       I    between atoms: N_8  and  C_9 
REMARK       I    between atoms: C_9  and  N_10 
REMARK    3  A    between atoms: N_10  and  C_11 
REMARK    4  A    between atoms: C_14  and  C_15 
REMARK       I    between atoms: C_15  and  N_16 
REMARK    5  A    between atoms: N_16  and  C_17 
ROOT
HETATM    1  C   UNL     1      20.720  50.699  49.584  1.00  0.00     0.036 A 
HETATM    2  C   UNL     1      20.479  51.708  48.649  1.00  0.00     0.030 A 
HETATM    3  C   UNL     1      19.195  52.246  48.499  1.00  0.00     0.019 A 
HETATM    4  C   UNL     1      18.128  51.757  49.260  1.00  0.00     0.032 A 
HETATM    5  C   UNL     1      18.354  50.719  50.170  1.00  0.00     0.019 A 
HETATM    6  C   UNL     1      19.640  50.187  50.316  1.00  0.00     0.030 A 
ENDROOT
BRANCH   1   7
HETATM    7  N   UNL     1      21.981  50.129  49.839  1.00  0.00    -0.309 N 
HETATM    8  C   UNL     1      22.594  49.000  49.392  1.00  0.00     0.321 C 
HETATM    9  N   UNL     1      22.035  48.341  48.351  1.00  0.00    -0.337 N 
HETATM   10  O   UNL     1      23.651  48.643  49.910  1.00  0.00    -0.247 OA
HETATM   11  H   UNL     1      21.470  48.882  47.712  1.00  0.00     0.164 HD
HETATM   12  H   UNL     1      22.589  50.636  50.470  1.00  0.00     0.170 HD
BRANCH   9  13
HETATM   13  C   UNL     1      22.690  47.201  47.756  1.00  0.00     0.186 C 
BRANCH  13  14
HETATM   14  C   UNL     1      22.269  45.962  48.466  1.00  0.00     0.083 A 
HETATM   15  C   UNL     1      21.014  45.392  48.530  1.00  0.00     0.076 A 
HETATM   16  C   UNL     1      19.689  45.744  47.991  1.00  0.00     0.079 C 
HETATM   17  O   UNL     1      21.104  44.257  49.287  1.00  0.00    -0.307 OA
HETATM   18  C   UNL     1      22.415  44.204  49.647  1.00  0.00     0.258 A 
HETATM   19  N   UNL     1      23.156  45.195  49.206  1.00  0.00    -0.237 NA
ENDBRANCH  13  14
ENDBRANCH   9  13
ENDBRANCH   1   7
BRANCH   4  20
HETATM   20  C   UNL     1      16.791  52.405  49.123  1.00  0.00     0.256 C 
HETATM   21  N   UNL     1      16.352  53.087  50.244  1.00  0.00    -0.323 N 
HETATM   22  H   UNL     1      16.871  52.949  51.101  1.00  0.00     0.169 HD
HETATM   23  O   UNL     1      16.191  52.272  48.064  1.00  0.00    -0.267 OA
BRANCH  21  24
HETATM   24  C   UNL     1      15.214  53.914  50.346  1.00  0.00     0.035 A 
HETATM   25  C   UNL     1      13.912  53.430  50.490  1.00  0.00     0.029 A 
HETATM   26  C   UNL     1      12.829  54.313  50.550  1.00  0.00     0.002 A 
HETATM   27  C   UNL     1      13.038  55.688  50.467  1.00  0.00     0.000 A 
HETATM   28  C   UNL     1      14.333  56.181  50.323  1.00  0.00     0.002 A 
HETATM   29  C   UNL     1      15.414  55.298  50.260  1.00  0.00     0.029 A 
ENDBRANCH  21  24
ENDBRANCH   4  20
TORSDOF 5
ENDMDL
