MODEL 1
REMARK VINA RESULT:      -9.4      0.000      0.000
REMARK  8 active torsions:
REMARK  status: ('A' for Active; 'I' for Inactive)
REMARK    1  A    between atoms: C_2  and  C_3 
REMARK    2  A    between atoms: C_3  and  N_4 
REMARK    3  A    between atoms: C_5  and  S_6 
REMARK    4  A    between atoms: S_6  and  C_7 
REMARK    5  A    between atoms: C_7  and  C_8 
REMARK       I    between atoms: C_8  and  N_9 
REMARK    6  A    between atoms: N_9  and  C_10 
REMARK    7  A    between atoms: C_23  and  C_24 
REMARK    8  A    between atoms: C_25  and  O_26 
ROOT
HETATM    1  S   UNL     1      25.119  47.568  49.833  1.00  0.00    -0.081 SA
ENDROOT
BRANCH   1   2
HETATM    2  C   UNL     1      26.011  46.128  50.166  1.00  0.00     0.192 A 
HETATM    3  N   UNL     1      26.096  45.505  51.383  1.00  0.00    -0.304 N 
HETATM    4  C   UNL     1      27.011  44.484  51.203  1.00  0.00     0.167 A 
HETATM    5  N   UNL     1      27.393  44.485  49.934  1.00  0.00    -0.128 NA
HETATM    6  N   UNL     1      26.749  45.499  49.285  1.00  0.00    -0.122 NA
BRANCH   3   7
HETATM    7  C   UNL     1      25.432  45.896  52.614  1.00  0.00     0.159 C 
BRANCH   7   8
HETATM    8  C   UNL     1      26.097  47.067  53.276  1.00  0.00    -0.017 C 
HETATM    9  C   UNL     1      26.546  47.063  54.538  1.00  0.00     0.008 C 
ENDBRANCH   7   8
ENDBRANCH   3   7
BRANCH   4  10
HETATM   10  C   UNL     1      27.636  43.652  52.229  1.00  0.00     0.046 A 
HETATM   11  C   UNL     1      27.347  42.276  52.281  1.00  0.00     0.079 A 
HETATM   12  C   UNL     1      27.958  41.439  53.212  1.00  0.00     0.039 A 
HETATM   13  C   UNL     1      28.850  41.975  54.138  1.00  0.00     0.022 A 
HETATM   14  C   UNL     1      29.112  43.344  54.127  1.00  0.00     0.012 A 
HETATM   15 BR   UNL     1      30.305  44.076  55.398  1.00  0.00    -0.051 Br
HETATM   16  C   UNL     1      28.506  44.184  53.188  1.00  0.00     0.037 A 
BRANCH  11  17
HETATM   17  O   UNL     1      26.458  41.680  51.424  1.00  0.00    -0.360 OA
HETATM   18  H   UNL     1      26.061  42.375  50.859  1.00  0.00     0.217 HD
ENDBRANCH  11  17
ENDBRANCH   4  10
ENDBRANCH   1   2
BRANCH   1  19
HETATM   19  C   UNL     1      23.544  46.848  49.263  1.00  0.00     0.185 C 
BRANCH  19  20
HETATM   20  C   UNL     1      22.587  47.879  48.679  1.00  0.00     0.231 C 
HETATM   21  N   UNL     1      22.018  48.727  49.610  1.00  0.00    -0.326 N 
HETATM   22  H   UNL     1      22.370  48.651  50.563  1.00  0.00     0.169 HD
HETATM   23  O   UNL     1      22.334  47.871  47.476  1.00  0.00    -0.272 OA
BRANCH  21  24
HETATM   24  C   UNL     1      21.027  49.707  49.402  1.00  0.00     0.037 A 
HETATM   25  C   UNL     1      19.736  49.624  49.936  1.00  0.00     0.061 A 
HETATM   26  C   UNL     1      18.887  50.678  49.681  1.00  0.00     0.065 A 
HETATM   27  C   UNL     1      19.266  51.776  48.912  1.00  0.00     0.063 A 
HETATM   28  N   UNL     1      17.578  50.887  50.106  1.00  0.00    -0.306 N 
HETATM   29  N   UNL     1      18.189  52.653  48.855  1.00  0.00    -0.307 N 
HETATM   30  C   UNL     1      20.518  51.884  48.364  1.00  0.00     0.034 A 
HETATM   31  C   UNL     1      17.131  52.116  49.603  1.00  0.00     0.325 A 
HETATM   32  H   UNL     1      18.147  53.541  48.384  1.00  0.00     0.170 HD
HETATM   33  O   UNL     1      16.039  52.624  49.782  1.00  0.00    -0.247 OA
HETATM   34  C   UNL     1      21.408  50.835  48.628  1.00  0.00     0.032 A 
HETATM   35  H   UNL     1      17.027  50.281  50.692  1.00  0.00     0.170 HD
ENDBRANCH  21  24
ENDBRANCH  19  20
ENDBRANCH   1  19
TORSDOF 8
ENDMDL
MODEL 2
REMARK VINA RESULT:      -9.3      2.049      2.895
REMARK  8 active torsions:
REMARK  status: ('A' for Active; 'I' for Inactive)
REMARK    1  A    between atoms: C_2  and  C_3 
REMARK    2  A    between atoms: C_3  and  N_4 
REMARK    3  A    between atoms: C_5  and  S_6 
REMARK    4  A    between atoms: S_6  and  C_7 
REMARK    5  A    between atoms: C_7  and  C_8 
REMARK       I    between atoms: C_8  and  N_9 
REMARK    6  A    between atoms: N_9  and  C_10 
REMARK    7  A    between atoms: C_23  and  C_24 
REMARK    8  A    between atoms: C_25  and  O_26 
ROOT
HETATM    1  S   UNL     1      23.920  44.768  48.639  1.00  0.00    -0.081 SA
ENDROOT
BRANCH   1   2
HETATM    2  C   UNL     1      24.365  44.856  50.304  1.00  0.00     0.192 A 
HETATM    3  N   UNL     1      25.472  45.490  50.802  1.00  0.00    -0.304 N 
HETATM    4  C   UNL     1      25.486  45.187  52.151  1.00  0.00     0.167 A 
HETATM    5  N   UNL     1      24.413  44.461  52.427  1.00  0.00    -0.128 NA
HETATM    6  N   UNL     1      23.704  44.275  51.275  1.00  0.00    -0.122 NA
BRANCH   3   7
HETATM    7  C   UNL     1      26.463  46.241  50.051  1.00  0.00     0.159 C 
BRANCH   7   8
HETATM    8  C   UNL     1      26.204  47.719  50.080  1.00  0.00    -0.017 C 
HETATM    9  C   UNL     1      26.867  48.614  49.335  1.00  0.00     0.008 C 
ENDBRANCH   7   8
ENDBRANCH   3   7
BRANCH   4  10
HETATM   10  C   UNL     1      26.564  45.424  53.110  1.00  0.00     0.046 A 
HETATM   11  C   UNL     1      26.626  46.649  53.798  1.00  0.00     0.079 A 
HETATM   12  C   UNL     1      27.608  46.896  54.755  1.00  0.00     0.039 A 
HETATM   13  C   UNL     1      28.573  45.926  55.018  1.00  0.00     0.022 A 
HETATM   14  C   UNL     1      28.550  44.724  54.311  1.00  0.00     0.012 A 
HETATM   15 BR   UNL     1      29.872  43.416  54.651  1.00  0.00    -0.051 Br
HETATM   16  C   UNL     1      27.560  44.472  53.357  1.00  0.00     0.037 A 
BRANCH  11  17
HETATM   17  O   UNL     1      25.732  47.663  53.574  1.00  0.00    -0.360 OA
HETATM   18  H   UNL     1      26.100  48.251  52.882  1.00  0.00     0.217 HD
ENDBRANCH  11  17
ENDBRANCH   4  10
ENDBRANCH   1   2
BRANCH   1  19
HETATM   19  C   UNL     1      22.107  44.663  48.793  1.00  0.00     0.185 C 
BRANCH  19  20
HETATM   20  C   UNL     1      21.389  45.925  48.331  1.00  0.00     0.231 C 
HETATM   21  N   UNL     1      21.704  47.062  49.050  1.00  0.00    -0.326 N 
HETATM   22  H   UNL     1      22.451  46.968  49.736  1.00  0.00     0.169 HD
HETATM   23  O   UNL     1      20.562  45.863  47.422  1.00  0.00    -0.272 OA
BRANCH  21  24
HETATM   24  C   UNL     1      21.137  48.347  48.936  1.00  0.00     0.037 A 
HETATM   25  C   UNL     1      19.949  48.725  49.571  1.00  0.00     0.061 A 
HETATM   26  C   UNL     1      19.538  50.028  49.400  1.00  0.00     0.065 A 
HETATM   27  C   UNL     1      20.245  50.940  48.619  1.00  0.00     0.063 A 
HETATM   28  N   UNL     1      18.434  50.688  49.931  1.00  0.00    -0.306 N 
HETATM   29  N   UNL     1      19.571  52.155  48.661  1.00  0.00    -0.307 N 
HETATM   30  C   UNL     1      21.406  50.600  47.974  1.00  0.00     0.034 A 
HETATM   31  C   UNL     1      18.443  52.016  49.483  1.00  0.00     0.325 A 
HETATM   32  H   UNL     1      19.831  53.015  48.208  1.00  0.00     0.170 HD
HETATM   33  O   UNL     1      17.634  52.884  49.757  1.00  0.00    -0.247 OA
HETATM   34  C   UNL     1      21.857  49.286  48.151  1.00  0.00     0.032 A 
HETATM   35  H   UNL     1      17.738  50.305  50.551  1.00  0.00     0.170 HD
ENDBRANCH  21  24
ENDBRANCH  19  20
ENDBRANCH   1  19
TORSDOF 8
ENDMDL
MODEL 3
REMARK VINA RESULT:      -9.2      4.619     10.514
REMARK  8 active torsions:
REMARK  status: ('A' for Active; 'I' for Inactive)
REMARK    1  A    between atoms: C_2  and  C_3 
REMARK    2  A    between atoms: C_3  and  N_4 
REMARK    3  A    between atoms: C_5  and  S_6 
REMARK    4  A    between atoms: S_6  and  C_7 
REMARK    5  A    between atoms: C_7  and  C_8 
REMARK       I    between atoms: C_8  and  N_9 
REMARK    6  A    between atoms: N_9  and  C_10 
REMARK    7  A    between atoms: C_23  and  C_24 
REMARK    8  A    between atoms: C_25  and  O_26 
ROOT
HETATM    1  S   UNL     1      24.918  43.409  50.986  1.00  0.00    -0.081 SA
ENDROOT
BRANCH   1   2
HETATM    2  C   UNL     1      24.716  45.122  50.936  1.00  0.00     0.192 A 
HETATM    3  N   UNL     1      24.126  45.827  49.920  1.00  0.00    -0.304 N 
HETATM    4  C   UNL     1      24.309  47.158  50.250  1.00  0.00     0.167 A 
HETATM    5  N   UNL     1      24.924  47.216  51.422  1.00  0.00    -0.128 NA
HETATM    6  N   UNL     1      25.157  45.943  51.857  1.00  0.00    -0.122 NA
BRANCH   3   7
HETATM    7  C   UNL     1      23.522  45.286  48.715  1.00  0.00     0.159 C 
BRANCH   7   8
HETATM    8  C   UNL     1      22.035  45.136  48.837  1.00  0.00    -0.017 C 
HETATM    9  C   UNL     1      21.173  45.326  47.829  1.00  0.00     0.008 C 
ENDBRANCH   7   8
ENDBRANCH   3   7
BRANCH   4  10
HETATM   10  C   UNL     1      24.071  48.329  49.409  1.00  0.00     0.046 A 
HETATM   11  C   UNL     1      25.163  49.050  48.893  1.00  0.00     0.079 A 
HETATM   12  C   UNL     1      24.979  50.142  48.049  1.00  0.00     0.039 A 
HETATM   13  C   UNL     1      23.689  50.557  47.729  1.00  0.00     0.022 A 
HETATM   14  C   UNL     1      22.596  49.879  48.269  1.00  0.00     0.012 A 
HETATM   15 BR   UNL     1      20.843  50.455  47.854  1.00  0.00    -0.051 Br
HETATM   16  C   UNL     1      22.779  48.777  49.110  1.00  0.00     0.037 A 
BRANCH  11  17
HETATM   17  O   UNL     1      26.462  48.723  49.185  1.00  0.00    -0.360 OA
HETATM   18  H   UNL     1      27.051  49.274  48.629  1.00  0.00     0.217 HD
ENDBRANCH  11  17
ENDBRANCH   4  10
ENDBRANCH   1   2
BRANCH   1  19
HETATM   19  C   UNL     1      26.669  43.275  50.497  1.00  0.00     0.185 C 
BRANCH  19  20
HETATM   20  C   UNL     1      27.618  43.154  51.682  1.00  0.00     0.231 C 
HETATM   21  N   UNL     1      27.483  44.151  52.630  1.00  0.00    -0.326 N 
HETATM   22  H   UNL     1      26.705  44.794  52.499  1.00  0.00     0.169 HD
HETATM   23  O   UNL     1      28.457  42.255  51.709  1.00  0.00    -0.272 OA
BRANCH  21  24
HETATM   24  C   UNL     1      28.274  44.374  53.774  1.00  0.00     0.037 A 
HETATM   25  C   UNL     1      29.220  43.458  54.249  1.00  0.00     0.061 A 
HETATM   26  C   UNL     1      29.948  43.832  55.356  1.00  0.00     0.065 A 
HETATM   27  C   UNL     1      29.756  45.050  56.003  1.00  0.00     0.063 A 
HETATM   28  N   UNL     1      30.968  43.153  56.018  1.00  0.00    -0.306 N 
HETATM   29  N   UNL     1      30.647  45.116  57.068  1.00  0.00    -0.307 N 
HETATM   30  C   UNL     1      28.830  45.965  55.572  1.00  0.00     0.034 A 
HETATM   31  C   UNL     1      31.416  43.944  57.086  1.00  0.00     0.325 A 
HETATM   32  H   UNL     1      30.762  45.871  57.724  1.00  0.00     0.170 HD
HETATM   33  O   UNL     1      32.304  43.670  57.873  1.00  0.00    -0.247 OA
HETATM   34  C   UNL     1      28.092  45.618  54.434  1.00  0.00     0.032 A 
HETATM   35  H   UNL     1      31.350  42.252  55.782  1.00  0.00     0.170 HD
ENDBRANCH  21  24
ENDBRANCH  19  20
ENDBRANCH   1  19
TORSDOF 8
ENDMDL
MODEL 4
REMARK VINA RESULT:      -9.2      4.062     10.525
REMARK  8 active torsions:
REMARK  status: ('A' for Active; 'I' for Inactive)
REMARK    1  A    between atoms: C_2  and  C_3 
REMARK    2  A    between atoms: C_3  and  N_4 
REMARK    3  A    between atoms: C_5  and  S_6 
REMARK    4  A    between atoms: S_6  and  C_7 
REMARK    5  A    between atoms: C_7  and  C_8 
REMARK       I    between atoms: C_8  and  N_9 
REMARK    6  A    between atoms: N_9  and  C_10 
REMARK    7  A    between atoms: C_23  and  C_24 
REMARK    8  A    between atoms: C_25  and  O_26 
ROOT
HETATM    1  S   UNL     1      25.722  44.918  50.143  1.00  0.00    -0.081 SA
ENDROOT
BRANCH   1   2
HETATM    2  C   UNL     1      24.493  45.841  49.358  1.00  0.00     0.192 A 
HETATM    3  N   UNL     1      24.341  47.200  49.439  1.00  0.00    -0.304 N 
HETATM    4  C   UNL     1      23.163  47.473  48.767  1.00  0.00     0.167 A 
HETATM    5  N   UNL     1      22.690  46.337  48.277  1.00  0.00    -0.128 NA
HETATM    6  N   UNL     1      23.535  45.323  48.629  1.00  0.00    -0.122 NA
BRANCH   3   7
HETATM    7  C   UNL     1      25.190  48.135  50.157  1.00  0.00     0.159 C 
BRANCH   7   8
HETATM    8  C   UNL     1      26.575  48.205  49.586  1.00  0.00    -0.017 C 
HETATM    9  C   UNL     1      27.054  49.249  48.897  1.00  0.00     0.008 C 
ENDBRANCH   7   8
ENDBRANCH   3   7
BRANCH   4  10
HETATM   10  C   UNL     1      22.420  48.731  48.739  1.00  0.00     0.046 A 
HETATM   11  C   UNL     1      22.933  49.827  48.021  1.00  0.00     0.079 A 
HETATM   12  C   UNL     1      22.233  51.028  47.929  1.00  0.00     0.039 A 
HETATM   13  C   UNL     1      21.013  51.166  48.587  1.00  0.00     0.022 A 
HETATM   14  C   UNL     1      20.514  50.103  49.340  1.00  0.00     0.012 A 
HETATM   15 BR   UNL     1      18.870  50.297  50.253  1.00  0.00    -0.051 Br
HETATM   16  C   UNL     1      21.212  48.895  49.426  1.00  0.00     0.037 A 
BRANCH  11  17
HETATM   17  O   UNL     1      24.139  49.779  47.371  1.00  0.00    -0.360 OA
HETATM   18  H   UNL     1      24.832  49.551  48.025  1.00  0.00     0.217 HD
ENDBRANCH  11  17
ENDBRANCH   4  10
ENDBRANCH   1   2
BRANCH   1  19
HETATM   19  C   UNL     1      24.771  44.238  51.541  1.00  0.00     0.185 C 
BRANCH  19  20
HETATM   20  C   UNL     1      25.482  44.383  52.881  1.00  0.00     0.231 C 
HETATM   21  N   UNL     1      26.831  44.666  52.788  1.00  0.00    -0.326 N 
HETATM   22  H   UNL     1      27.189  44.853  51.853  1.00  0.00     0.169 HD
HETATM   23  O   UNL     1      24.865  44.193  53.928  1.00  0.00    -0.272 OA
BRANCH  21  24
HETATM   24  C   UNL     1      27.774  44.755  53.831  1.00  0.00     0.037 A 
HETATM   25  C   UNL     1      28.689  43.741  54.134  1.00  0.00     0.061 A 
HETATM   26  C   UNL     1      29.578  43.987  55.156  1.00  0.00     0.065 A 
HETATM   27  C   UNL     1      29.572  45.175  55.884  1.00  0.00     0.063 A 
HETATM   28  N   UNL     1      30.609  43.191  55.647  1.00  0.00    -0.306 N 
HETATM   29  N   UNL     1      30.590  45.105  56.827  1.00  0.00    -0.307 N 
HETATM   30  C   UNL     1      28.682  46.185  55.622  1.00  0.00     0.034 A 
HETATM   31  C   UNL     1      31.252  43.877  56.687  1.00  0.00     0.325 A 
HETATM   32  H   UNL     1      30.850  45.807  57.500  1.00  0.00     0.170 HD
HETATM   33  O   UNL     1      32.203  43.486  57.339  1.00  0.00    -0.247 OA
HETATM   34  C   UNL     1      27.782  45.968  54.572  1.00  0.00     0.032 A 
HETATM   35  H   UNL     1      30.880  42.279  55.317  1.00  0.00     0.170 HD
ENDBRANCH  21  24
ENDBRANCH  19  20
ENDBRANCH   1  19
TORSDOF 8
ENDMDL
MODEL 5
REMARK VINA RESULT:      -9.0      5.334      9.385
REMARK  8 active torsions:
REMARK  status: ('A' for Active; 'I' for Inactive)
REMARK    1  A    between atoms: C_2  and  C_3 
REMARK    2  A    between atoms: C_3  and  N_4 
REMARK    3  A    between atoms: C_5  and  S_6 
REMARK    4  A    between atoms: S_6  and  C_7 
REMARK    5  A    between atoms: C_7  and  C_8 
REMARK       I    between atoms: C_8  and  N_9 
REMARK    6  A    between atoms: N_9  and  C_10 
REMARK    7  A    between atoms: C_23  and  C_24 
REMARK    8  A    between atoms: C_25  and  O_26 
ROOT
HETATM    1  S   UNL     1      24.213  44.923  48.738  1.00  0.00    -0.081 SA
ENDROOT
BRANCH   1   2
HETATM    2  C   UNL     1      24.600  45.003  50.418  1.00  0.00     0.192 A 
HETATM    3  N   UNL     1      25.669  45.666  50.961  1.00  0.00    -0.304 N 
HETATM    4  C   UNL     1      25.649  45.344  52.306  1.00  0.00     0.167 A 
HETATM    5  N   UNL     1      24.592  44.581  52.536  1.00  0.00    -0.128 NA
HETATM    6  N   UNL     1      23.927  44.387  51.359  1.00  0.00    -0.122 NA
BRANCH   3   7
HETATM    7  C   UNL     1      26.658  46.459  50.252  1.00  0.00     0.159 C 
BRANCH   7   8
HETATM    8  C   UNL     1      26.195  47.865  50.005  1.00  0.00    -0.017 C 
HETATM    9  C   UNL     1      26.915  48.792  49.359  1.00  0.00     0.008 C 
ENDBRANCH   7   8
ENDBRANCH   3   7
BRANCH   4  10
HETATM   10  C   UNL     1      26.687  45.603  53.303  1.00  0.00     0.046 A 
HETATM   11  C   UNL     1      26.696  46.827  53.996  1.00  0.00     0.079 A 
HETATM   12  C   UNL     1      27.638  47.093  54.988  1.00  0.00     0.039 A 
HETATM   13  C   UNL     1      28.616  46.145  55.281  1.00  0.00     0.022 A 
HETATM   14  C   UNL     1      28.646  44.945  54.571  1.00  0.00     0.012 A 
HETATM   15 BR   UNL     1      29.986  43.668  54.952  1.00  0.00    -0.051 Br
HETATM   16  C   UNL     1      27.696  44.674  53.581  1.00  0.00     0.037 A 
BRANCH  11  17
HETATM   17  O   UNL     1      25.787  47.821  53.744  1.00  0.00    -0.360 OA
HETATM   18  H   UNL     1      25.593  48.282  54.586  1.00  0.00     0.217 HD
ENDBRANCH  11  17
ENDBRANCH   4  10
ENDBRANCH   1   2
BRANCH   1  19
HETATM   19  C   UNL     1      23.295  43.350  48.692  1.00  0.00     0.185 C 
BRANCH  19  20
HETATM   20  C   UNL     1      24.198  42.124  48.746  1.00  0.00     0.231 C 
HETATM   21  N   UNL     1      25.521  42.396  49.038  1.00  0.00    -0.326 N 
HETATM   22  H   UNL     1      25.737  43.359  49.290  1.00  0.00     0.169 HD
HETATM   23  O   UNL     1      23.741  41.012  48.483  1.00  0.00    -0.272 OA
BRANCH  21  24
HETATM   24  C   UNL     1      26.608  41.501  49.058  1.00  0.00     0.037 A 
HETATM   25  C   UNL     1      26.986  40.769  50.189  1.00  0.00     0.061 A 
HETATM   26  C   UNL     1      28.045  39.902  50.046  1.00  0.00     0.065 A 
HETATM   27  C   UNL     1      28.738  39.757  48.846  1.00  0.00     0.063 A 
HETATM   28  N   UNL     1      28.611  39.031  50.973  1.00  0.00    -0.306 N 
HETATM   29  N   UNL     1      29.735  38.807  49.038  1.00  0.00    -0.307 N 
HETATM   30  C   UNL     1      28.403  40.466  47.721  1.00  0.00     0.034 A 
HETATM   31  C   UNL     1      29.663  38.338  50.357  1.00  0.00     0.325 A 
HETATM   32  H   UNL     1      30.400  38.473  48.361  1.00  0.00     0.170 HD
HETATM   33  O   UNL     1      30.374  37.490  50.866  1.00  0.00    -0.247 OA
HETATM   34  C   UNL     1      27.314  41.339  47.835  1.00  0.00     0.032 A 
HETATM   35  H   UNL     1      28.322  38.889  51.927  1.00  0.00     0.170 HD
ENDBRANCH  21  24
ENDBRANCH  19  20
ENDBRANCH   1  19
TORSDOF 8
ENDMDL
MODEL 6
REMARK VINA RESULT:      -8.7      4.263     10.946
REMARK  8 active torsions:
REMARK  status: ('A' for Active; 'I' for Inactive)
REMARK    1  A    between atoms: C_2  and  C_3 
REMARK    2  A    between atoms: C_3  and  N_4 
REMARK    3  A    between atoms: C_5  and  S_6 
REMARK    4  A    between atoms: S_6  and  C_7 
REMARK    5  A    between atoms: C_7  and  C_8 
REMARK       I    between atoms: C_8  and  N_9 
REMARK    6  A    between atoms: N_9  and  C_10 
REMARK    7  A    between atoms: C_23  and  C_24 
REMARK    8  A    between atoms: C_25  and  O_26 
ROOT
HETATM    1  S   UNL     1      24.251  48.869  48.843  1.00  0.00    -0.081 SA
ENDROOT
BRANCH   1   2
HETATM    2  C   UNL     1      22.781  49.670  49.264  1.00  0.00     0.192 A 
HETATM    3  N   UNL     1      21.548  49.409  48.728  1.00  0.00    -0.304 N 
HETATM    4  C   UNL     1      20.711  50.372  49.261  1.00  0.00     0.167 A 
HETATM    5  N   UNL     1      21.413  51.115  50.102  1.00  0.00    -0.128 NA
HETATM    6  N   UNL     1      22.701  50.660  50.118  1.00  0.00    -0.122 NA
BRANCH   3   7
HETATM    7  C   UNL     1      21.219  48.394  47.742  1.00  0.00     0.159 C 
BRANCH   7   8
HETATM    8  C   UNL     1      20.481  47.232  48.340  1.00  0.00    -0.017 C 
HETATM    9  C   UNL     1      19.170  47.010  48.179  1.00  0.00     0.008 C 
ENDBRANCH   7   8
ENDBRANCH   3   7
BRANCH   4  10
HETATM   10  C   UNL     1      19.342  50.689  48.858  1.00  0.00     0.046 A 
HETATM   11  C   UNL     1      18.280  50.442  49.747  1.00  0.00     0.079 A 
HETATM   12  C   UNL     1      16.967  50.774  49.421  1.00  0.00     0.039 A 
HETATM   13  C   UNL     1      16.687  51.334  48.176  1.00  0.00     0.022 A 
HETATM   14  C   UNL     1      17.724  51.543  47.268  1.00  0.00     0.012 A 
HETATM   15 BR   UNL     1      17.342  52.281  45.569  1.00  0.00    -0.051 Br
HETATM   16  C   UNL     1      19.043  51.217  47.597  1.00  0.00     0.037 A 
BRANCH  11  17
HETATM   17  O   UNL     1      18.470  49.867  50.977  1.00  0.00    -0.360 OA
HETATM   18  H   UNL     1      17.596  49.599  51.330  1.00  0.00     0.217 HD
ENDBRANCH  11  17
ENDBRANCH   4  10
ENDBRANCH   1   2
BRANCH   1  19
HETATM   19  C   UNL     1      24.211  47.480  50.023  1.00  0.00     0.185 C 
BRANCH  19  20
HETATM   20  C   UNL     1      25.433  47.425  50.931  1.00  0.00     0.231 C 
HETATM   21  N   UNL     1      25.232  46.760  52.126  1.00  0.00    -0.326 N 
HETATM   22  H   UNL     1      24.336  46.289  52.234  1.00  0.00     0.169 HD
HETATM   23  O   UNL     1      26.471  47.995  50.599  1.00  0.00    -0.272 OA
BRANCH  21  24
HETATM   24  C   UNL     1      26.125  46.629  53.208  1.00  0.00     0.037 A 
HETATM   25  C   UNL     1      27.060  45.593  53.316  1.00  0.00     0.061 A 
HETATM   26  C   UNL     1      27.894  45.619  54.411  1.00  0.00     0.065 A 
HETATM   27  C   UNL     1      27.817  46.608  55.389  1.00  0.00     0.063 A 
HETATM   28  N   UNL     1      28.929  44.755  54.759  1.00  0.00    -0.306 N 
HETATM   29  N   UNL     1      28.795  46.347  56.341  1.00  0.00    -0.307 N 
HETATM   30  C   UNL     1      26.907  47.631  55.320  1.00  0.00     0.034 A 
HETATM   31  C   UNL     1      29.503  45.199  55.958  1.00  0.00     0.325 A 
HETATM   32  H   UNL     1      29.002  46.882  57.168  1.00  0.00     0.170 HD
HETATM   33  O   UNL     1      30.438  44.691  56.551  1.00  0.00    -0.247 OA
HETATM   34  C   UNL     1      26.061  47.640  54.204  1.00  0.00     0.032 A 
HETATM   35  H   UNL     1      29.245  43.949  54.244  1.00  0.00     0.170 HD
ENDBRANCH  21  24
ENDBRANCH  19  20
ENDBRANCH   1  19
TORSDOF 8
ENDMDL
MODEL 7
REMARK VINA RESULT:      -8.6      4.112     10.863
REMARK  8 active torsions:
REMARK  status: ('A' for Active; 'I' for Inactive)
REMARK    1  A    between atoms: C_2  and  C_3 
REMARK    2  A    between atoms: C_3  and  N_4 
REMARK    3  A    between atoms: C_5  and  S_6 
REMARK    4  A    between atoms: S_6  and  C_7 
REMARK    5  A    between atoms: C_7  and  C_8 
REMARK       I    between atoms: C_8  and  N_9 
REMARK    6  A    between atoms: N_9  and  C_10 
REMARK    7  A    between atoms: C_23  and  C_24 
REMARK    8  A    between atoms: C_25  and  O_26 
ROOT
HETATM    1  S   UNL     1      24.334  45.729  49.113  1.00  0.00    -0.081 SA
ENDROOT
BRANCH   1   2
HETATM    2  C   UNL     1      23.613  47.284  49.319  1.00  0.00     0.192 A 
HETATM    3  N   UNL     1      22.323  47.615  48.998  1.00  0.00    -0.304 N 
HETATM    4  C   UNL     1      22.237  48.979  49.208  1.00  0.00     0.167 A 
HETATM    5  N   UNL     1      23.401  49.403  49.677  1.00  0.00    -0.128 NA
HETATM    6  N   UNL     1      24.251  48.337  49.766  1.00  0.00    -0.122 NA
BRANCH   3   7
HETATM    7  C   UNL     1      21.300  46.732  48.466  1.00  0.00     0.159 C 
BRANCH   7   8
HETATM    8  C   UNL     1      21.397  46.573  46.978  1.00  0.00    -0.017 C 
HETATM    9  C   UNL     1      21.738  45.434  46.362  1.00  0.00     0.008 C 
ENDBRANCH   7   8
ENDBRANCH   3   7
BRANCH   4  10
HETATM   10  C   UNL     1      21.154  49.878  48.814  1.00  0.00     0.046 A 
HETATM   11  C   UNL     1      20.717  50.874  49.705  1.00  0.00     0.079 A 
HETATM   12  C   UNL     1      19.721  51.781  49.350  1.00  0.00     0.039 A 
HETATM   13  C   UNL     1      19.117  51.686  48.098  1.00  0.00     0.022 A 
HETATM   14  C   UNL     1      19.510  50.675  47.221  1.00  0.00     0.012 A 
HETATM   15 BR   UNL     1      18.674  50.530  45.531  1.00  0.00    -0.051 Br
HETATM   16  C   UNL     1      20.515  49.769  47.573  1.00  0.00     0.037 A 
BRANCH  11  17
HETATM   17  O   UNL     1      21.241  51.014  50.964  1.00  0.00    -0.360 OA
HETATM   18  H   UNL     1      20.514  50.913  51.613  1.00  0.00     0.217 HD
ENDBRANCH  11  17
ENDBRANCH   4  10
ENDBRANCH   1   2
BRANCH   1  19
HETATM   19  C   UNL     1      24.388  45.166  50.846  1.00  0.00     0.185 C 
BRANCH  19  20
HETATM   20  C   UNL     1      25.780  45.243  51.461  1.00  0.00     0.231 C 
HETATM   21  N   UNL     1      25.816  45.041  52.828  1.00  0.00    -0.326 N 
HETATM   22  H   UNL     1      24.940  44.760  53.265  1.00  0.00     0.169 HD
HETATM   23  O   UNL     1      26.749  45.524  50.757  1.00  0.00    -0.272 OA
BRANCH  21  24
HETATM   24  C   UNL     1      26.922  45.151  53.693  1.00  0.00     0.037 A 
HETATM   25  C   UNL     1      27.808  44.098  53.951  1.00  0.00     0.061 A 
HETATM   26  C   UNL     1      28.868  44.366  54.788  1.00  0.00     0.065 A 
HETATM   27  C   UNL     1      29.059  45.612  55.379  1.00  0.00     0.063 A 
HETATM   28  N   UNL     1      29.912  43.538  55.189  1.00  0.00    -0.306 N 
HETATM   29  N   UNL     1      30.213  45.549  56.151  1.00  0.00    -0.307 N 
HETATM   30  C   UNL     1      28.206  46.662  55.157  1.00  0.00     0.034 A 
HETATM   31  C   UNL     1      30.762  44.263  56.036  1.00  0.00     0.325 A 
HETATM   32  H   UNL     1      30.626  46.286  56.697  1.00  0.00     0.170 HD
HETATM   33  O   UNL     1      31.781  43.859  56.566  1.00  0.00    -0.247 OA
HETATM   34  C   UNL     1      27.132  46.422  54.292  1.00  0.00     0.032 A 
HETATM   35  H   UNL     1      30.066  42.581  54.918  1.00  0.00     0.170 HD
ENDBRANCH  21  24
ENDBRANCH  19  20
ENDBRANCH   1  19
TORSDOF 8
ENDMDL
MODEL 8
REMARK VINA RESULT:      -8.6      4.025     10.877
REMARK  8 active torsions:
REMARK  status: ('A' for Active; 'I' for Inactive)
REMARK    1  A    between atoms: C_2  and  C_3 
REMARK    2  A    between atoms: C_3  and  N_4 
REMARK    3  A    between atoms: C_5  and  S_6 
REMARK    4  A    between atoms: S_6  and  C_7 
REMARK    5  A    between atoms: C_7  and  C_8 
REMARK       I    between atoms: C_8  and  N_9 
REMARK    6  A    between atoms: N_9  and  C_10 
REMARK    7  A    between atoms: C_23  and  C_24 
REMARK    8  A    between atoms: C_25  and  O_26 
ROOT
HETATM    1  S   UNL     1      24.111  47.285  49.648  1.00  0.00    -0.081 SA
ENDROOT
BRANCH   1   2
HETATM    2  C   UNL     1      22.531  47.671  49.070  1.00  0.00     0.192 A 
HETATM    3  N   UNL     1      21.971  48.921  49.053  1.00  0.00    -0.304 N 
HETATM    4  C   UNL     1      20.667  48.728  48.636  1.00  0.00     0.167 A 
HETATM    5  N   UNL     1      20.500  47.440  48.373  1.00  0.00    -0.128 NA
HETATM    6  N   UNL     1      21.673  46.787  48.625  1.00  0.00    -0.122 NA
BRANCH   3   7
HETATM    7  C   UNL     1      22.594  50.165  49.473  1.00  0.00     0.159 C 
BRANCH   7   8
HETATM    8  C   UNL     1      23.215  50.910  48.328  1.00  0.00    -0.017 C 
HETATM    9  C   UNL     1      24.346  50.539  47.714  1.00  0.00     0.008 C 
ENDBRANCH   7   8
ENDBRANCH   3   7
BRANCH   4  10
HETATM   10  C   UNL     1      19.570  49.693  48.653  1.00  0.00     0.046 A 
HETATM   11  C   UNL     1      18.950  50.021  49.873  1.00  0.00     0.079 A 
HETATM   12  C   UNL     1      17.934  50.971  49.939  1.00  0.00     0.039 A 
HETATM   13  C   UNL     1      17.492  51.590  48.772  1.00  0.00     0.022 A 
HETATM   14  C   UNL     1      18.066  51.242  47.550  1.00  0.00     0.012 A 
HETATM   15 BR   UNL     1      17.452  52.064  45.962  1.00  0.00    -0.051 Br
HETATM   16  C   UNL     1      19.092  50.294  47.483  1.00  0.00     0.037 A 
BRANCH  11  17
HETATM   17  O   UNL     1      19.307  49.434  51.059  1.00  0.00    -0.360 OA
HETATM   18  H   UNL     1      18.503  49.054  51.470  1.00  0.00     0.217 HD
ENDBRANCH  11  17
ENDBRANCH   4  10
ENDBRANCH   1   2
BRANCH   1  19
HETATM   19  C   UNL     1      23.898  45.510  50.008  1.00  0.00     0.185 C 
BRANCH  19  20
HETATM   20  C   UNL     1      24.595  45.067  51.288  1.00  0.00     0.231 C 
HETATM   21  N   UNL     1      25.757  45.756  51.578  1.00  0.00    -0.326 N 
HETATM   22  H   UNL     1      25.972  46.550  50.977  1.00  0.00     0.169 HD
HETATM   23  O   UNL     1      24.145  44.126  51.939  1.00  0.00    -0.272 OA
BRANCH  21  24
HETATM   24  C   UNL     1      26.673  45.515  52.621  1.00  0.00     0.037 A 
HETATM   25  C   UNL     1      27.546  44.422  52.644  1.00  0.00     0.061 A 
HETATM   26  C   UNL     1      28.413  44.339  53.710  1.00  0.00     0.065 A 
HETATM   27  C   UNL     1      28.425  45.277  54.741  1.00  0.00     0.063 A 
HETATM   28  N   UNL     1      29.404  43.399  53.978  1.00  0.00    -0.306 N 
HETATM   29  N   UNL     1      29.414  44.908  55.645  1.00  0.00    -0.307 N 
HETATM   30  C   UNL     1      27.577  46.353  54.756  1.00  0.00     0.034 A 
HETATM   31  C   UNL     1      30.040  43.743  55.179  1.00  0.00     0.325 A 
HETATM   32  H   UNL     1      29.678  45.384  56.492  1.00  0.00     0.170 HD
HETATM   33  O   UNL     1      30.960  43.150  55.713  1.00  0.00    -0.247 OA
HETATM   34  C   UNL     1      26.700  46.472  53.671  1.00  0.00     0.032 A 
HETATM   35  H   UNL     1      29.655  42.605  53.412  1.00  0.00     0.170 HD
ENDBRANCH  21  24
ENDBRANCH  19  20
ENDBRANCH   1  19
TORSDOF 8
ENDMDL
MODEL 9
REMARK VINA RESULT:      -8.5      2.094      2.713
REMARK  8 active torsions:
REMARK  status: ('A' for Active; 'I' for Inactive)
REMARK    1  A    between atoms: C_2  and  C_3 
REMARK    2  A    between atoms: C_3  and  N_4 
REMARK    3  A    between atoms: C_5  and  S_6 
REMARK    4  A    between atoms: S_6  and  C_7 
REMARK    5  A    between atoms: C_7  and  C_8 
REMARK       I    between atoms: C_8  and  N_9 
REMARK    6  A    between atoms: N_9  and  C_10 
REMARK    7  A    between atoms: C_23  and  C_24 
REMARK    8  A    between atoms: C_25  and  O_26 
ROOT
HETATM    1  S   UNL     1      23.516  47.194  49.189  1.00  0.00    -0.081 SA
ENDROOT
BRANCH   1   2
HETATM    2  C   UNL     1      24.616  46.902  50.486  1.00  0.00     0.192 A 
HETATM    3  N   UNL     1      25.201  45.698  50.781  1.00  0.00    -0.304 N 
HETATM    4  C   UNL     1      25.888  45.910  51.962  1.00  0.00     0.167 A 
HETATM    5  N   UNL     1      25.751  47.183  52.302  1.00  0.00    -0.128 NA
HETATM    6  N   UNL     1      24.975  47.804  51.366  1.00  0.00    -0.122 NA
BRANCH   3   7
HETATM    7  C   UNL     1      25.051  44.451  50.052  1.00  0.00     0.159 C 
BRANCH   7   8
HETATM    8  C   UNL     1      23.936  43.603  50.590  1.00  0.00    -0.017 C 
HETATM    9  C   UNL     1      22.815  43.316  49.915  1.00  0.00     0.008 C 
ENDBRANCH   7   8
ENDBRANCH   3   7
BRANCH   4  10
HETATM   10  C   UNL     1      26.502  44.908  52.831  1.00  0.00     0.046 A 
HETATM   11  C   UNL     1      25.801  44.437  53.956  1.00  0.00     0.079 A 
HETATM   12  C   UNL     1      26.331  43.448  54.782  1.00  0.00     0.039 A 
HETATM   13  C   UNL     1      27.597  42.933  54.514  1.00  0.00     0.022 A 
HETATM   14  C   UNL     1      28.323  43.423  53.429  1.00  0.00     0.012 A 
HETATM   15 BR   UNL     1      30.052  42.742  53.078  1.00  0.00    -0.051 Br
HETATM   16  C   UNL     1      27.789  44.410  52.594  1.00  0.00     0.037 A 
BRANCH  11  17
HETATM   17  O   UNL     1      24.564  44.914  54.302  1.00  0.00    -0.360 OA
HETATM   18  H   UNL     1      24.447  45.795  53.890  1.00  0.00     0.217 HD
ENDBRANCH  11  17
ENDBRANCH   4  10
ENDBRANCH   1   2
BRANCH   1  19
HETATM   19  C   UNL     1      23.926  48.928  48.803  1.00  0.00     0.185 C 
BRANCH  19  20
HETATM   20  C   UNL     1      22.779  49.894  49.075  1.00  0.00     0.231 C 
HETATM   21  N   UNL     1      21.596  49.576  48.436  1.00  0.00    -0.326 N 
HETATM   22  H   UNL     1      21.576  48.687  47.940  1.00  0.00     0.169 HD
HETATM   23  O   UNL     1      22.968  50.891  49.770  1.00  0.00    -0.272 OA
BRANCH  21  24
HETATM   24  C   UNL     1      20.400  50.320  48.404  1.00  0.00     0.037 A 
HETATM   25  C   UNL     1      19.841  50.931  49.532  1.00  0.00     0.061 A 
HETATM   26  C   UNL     1      18.689  51.660  49.339  1.00  0.00     0.065 A 
HETATM   27  C   UNL     1      18.077  51.779  48.093  1.00  0.00     0.063 A 
HETATM   28  N   UNL     1      17.941  52.397  50.253  1.00  0.00    -0.306 N 
HETATM   29  N   UNL     1      16.950  52.579  48.243  1.00  0.00    -0.307 N 
HETATM   30  C   UNL     1      18.591  51.184  46.970  1.00  0.00     0.034 A 
HETATM   31  C   UNL     1      16.856  52.979  49.583  1.00  0.00     0.325 A 
HETATM   32  H   UNL     1      16.300  52.860  47.528  1.00  0.00     0.170 HD
HETATM   33  O   UNL     1      16.000  53.697  50.068  1.00  0.00    -0.247 OA
HETATM   34  C   UNL     1      19.775  50.456  47.135  1.00  0.00     0.032 A 
HETATM   35  H   UNL     1      18.134  52.522  51.234  1.00  0.00     0.170 HD
ENDBRANCH  21  24
ENDBRANCH  19  20
ENDBRANCH   1  19
TORSDOF 8
ENDMDL
MODEL 10
REMARK VINA RESULT:      -8.3     14.713     18.011
REMARK  8 active torsions:
REMARK  status: ('A' for Active; 'I' for Inactive)
REMARK    1  A    between atoms: C_2  and  C_3 
REMARK    2  A    between atoms: C_3  and  N_4 
REMARK    3  A    between atoms: C_5  and  S_6 
REMARK    4  A    between atoms: S_6  and  C_7 
REMARK    5  A    between atoms: C_7  and  C_8 
REMARK       I    between atoms: C_8  and  N_9 
REMARK    6  A    between atoms: N_9  and  C_10 
REMARK    7  A    between atoms: C_23  and  C_24 
REMARK    8  A    between atoms: C_25  and  O_26 
ROOT
HETATM    1  S   UNL     1      36.042  51.134  42.448  1.00  0.00    -0.081 SA
ENDROOT
BRANCH   1   2
HETATM    2  C   UNL     1      34.829  51.767  41.396  1.00  0.00     0.192 A 
HETATM    3  N   UNL     1      33.489  51.488  41.464  1.00  0.00    -0.304 N 
HETATM    4  C   UNL     1      32.936  52.104  40.356  1.00  0.00     0.167 A 
HETATM    5  N   UNL     1      33.897  52.749  39.713  1.00  0.00    -0.128 NA
HETATM    6  N   UNL     1      35.074  52.554  40.378  1.00  0.00    -0.122 NA
BRANCH   3   7
HETATM    7  C   UNL     1      32.818  50.651  42.442  1.00  0.00     0.159 C 
BRANCH   7   8
HETATM    8  C   UNL     1      32.190  51.449  43.546  1.00  0.00    -0.017 C 
HETATM    9  C   UNL     1      32.829  51.823  44.663  1.00  0.00     0.008 C 
ENDBRANCH   7   8
ENDBRANCH   3   7
BRANCH   4  10
HETATM   10  C   UNL     1      31.583  51.943  39.826  1.00  0.00     0.046 A 
HETATM   11  C   UNL     1      31.401  51.609  38.472  1.00  0.00     0.079 A 
HETATM   12  C   UNL     1      30.131  51.399  37.939  1.00  0.00     0.039 A 
HETATM   13  C   UNL     1      29.009  51.555  38.751  1.00  0.00     0.022 A 
HETATM   14  C   UNL     1      29.172  51.929  40.084  1.00  0.00     0.012 A 
HETATM   15 BR   UNL     1      27.650  52.163  41.181  1.00  0.00    -0.051 Br
HETATM   16  C   UNL     1      30.447  52.132  40.622  1.00  0.00     0.037 A 
BRANCH  11  17
HETATM   17  O   UNL     1      32.451  51.468  37.603  1.00  0.00    -0.360 OA
HETATM   18  H   UNL     1      33.219  51.957  37.965  1.00  0.00     0.217 HD
ENDBRANCH  11  17
ENDBRANCH   4  10
ENDBRANCH   1   2
BRANCH   1  19
HETATM   19  C   UNL     1      36.315  52.575  43.530  1.00  0.00     0.185 C 
BRANCH  19  20
HETATM   20  C   UNL     1      37.430  52.363  44.546  1.00  0.00     0.231 C 
HETATM   21  N   UNL     1      37.711  53.467  45.329  1.00  0.00    -0.326 N 
HETATM   22  H   UNL     1      37.085  54.263  45.227  1.00  0.00     0.169 HD
HETATM   23  O   UNL     1      38.037  51.294  44.579  1.00  0.00    -0.272 OA
BRANCH  21  24
HETATM   24  C   UNL     1      38.744  53.620  46.276  1.00  0.00     0.037 A 
HETATM   25  C   UNL     1      40.086  53.812  45.929  1.00  0.00     0.061 A 
HETATM   26  C   UNL     1      40.978  53.987  46.964  1.00  0.00     0.065 A 
HETATM   27  C   UNL     1      40.589  53.958  48.301  1.00  0.00     0.063 A 
HETATM   28  N   UNL     1      42.347  54.232  46.923  1.00  0.00    -0.306 N 
HETATM   29  N   UNL     1      41.719  54.173  49.081  1.00  0.00    -0.307 N 
HETATM   30  C   UNL     1      39.285  53.761  48.676  1.00  0.00     0.034 A 
HETATM   31  C   UNL     1      42.823  54.354  48.236  1.00  0.00     0.325 A 
HETATM   32  H   UNL     1      41.770  54.218  50.085  1.00  0.00     0.170 HD
HETATM   33  O   UNL     1      43.970  54.579  48.578  1.00  0.00    -0.247 OA
HETATM   34  C   UNL     1      38.355  53.602  47.642  1.00  0.00     0.032 A 
HETATM   35  H   UNL     1      42.922  54.327  46.102  1.00  0.00     0.170 HD
ENDBRANCH  21  24
ENDBRANCH  19  20
ENDBRANCH   1  19
TORSDOF 8
ENDMDL
