MODEL 1
REMARK VINA RESULT:      -8.2      0.000      0.000
REMARK  8 active torsions:
REMARK  status: ('A' for Active; 'I' for Inactive)
REMARK    1  A    between atoms: C_2  and  C_3 
REMARK    2  A    between atoms: C_3  and  O_4 
REMARK    3  A    between atoms: O_4  and  C_5 
REMARK    4  A    between atoms: C_6  and  C_7 
REMARK    5  A    between atoms: C_11  and  C_12 
REMARK       I    between atoms: C_12  and  N_13 
REMARK    6  A    between atoms: N_13  and  N_14 
REMARK    7  A    between atoms: C_15  and  C_16 
REMARK    8  A    between atoms: C_19  and  N_20 
ROOT
HETATM    1  C   UNL     1      22.121  49.969  48.251  1.00  0.00     0.092 A 
HETATM    2  N   UNL     1      23.080  50.242  47.347  1.00  0.00    -0.174 NA
HETATM    3  N   UNL     1      24.184  49.664  47.837  1.00  0.00    -0.272 N 
HETATM    4  H   UNL     1      25.055  49.744  47.319  1.00  0.00     0.189 HD
HETATM    5  C   UNL     1      23.997  48.996  49.014  1.00  0.00     0.121 A 
HETATM    6  C   UNL     1      22.660  49.174  49.304  1.00  0.00     0.071 A 
ENDROOT
BRANCH   5   7
HETATM    7  C   UNL     1      25.088  48.307  49.657  1.00  0.00     0.289 C 
HETATM    8  N   UNL     1      24.726  47.536  50.752  1.00  0.00    -0.242 N 
HETATM    9  H   UNL     1      23.761  47.489  51.050  1.00  0.00     0.192 HD
HETATM   10  O   UNL     1      26.238  48.414  49.235  1.00  0.00    -0.264 OA
BRANCH   8  11
HETATM   11  N   UNL     1      25.671  46.807  51.412  1.00  0.00    -0.184 NA
HETATM   12  C   UNL     1      25.903  47.157  52.637  1.00  0.00     0.150 C 
BRANCH  12  13
HETATM   13  C   UNL     1      26.884  46.436  53.471  1.00  0.00    -0.017 A 
HETATM   14  C   UNL     1      27.520  47.067  54.539  1.00  0.00     0.015 A 
HETATM   15  C   UNL     1      28.469  46.372  55.300  1.00  0.00     0.030 A 
HETATM   16  C   UNL     1      28.798  45.033  55.030  1.00  0.00     0.029 A 
HETATM   17  C   UNL     1      28.141  44.428  53.941  1.00  0.00     0.030 A 
HETATM   18  C   UNL     1      27.194  45.112  53.168  1.00  0.00     0.015 A 
BRANCH  16  19
HETATM   19  N   UNL     1      29.763  44.318  55.756  1.00  0.00    -0.390 N 
HETATM   20  C   UNL     1      30.532  45.117  56.715  1.00  0.00     0.149 C 
HETATM   21  C   UNL     1      30.548  43.303  55.052  1.00  0.00     0.149 C 
ENDBRANCH  16  19
ENDBRANCH  12  13
ENDBRANCH   8  11
ENDBRANCH   5   7
BRANCH   1  22
HETATM   22  C   UNL     1      20.740  50.439  48.058  1.00  0.00     0.028 A 
HETATM   23  C   UNL     1      19.729  49.649  47.469  1.00  0.00     0.081 A 
HETATM   24  C   UNL     1      18.439  50.185  47.318  1.00  0.00     0.038 A 
HETATM   25  C   UNL     1      18.143  51.479  47.752  1.00  0.00     0.003 A 
HETATM   26  C   UNL     1      19.131  52.258  48.341  1.00  0.00     0.001 A 
HETATM   27  C   UNL     1      20.416  51.741  48.492  1.00  0.00     0.017 A 
BRANCH  23  28
HETATM   28  O   UNL     1      20.066  48.378  47.075  1.00  0.00    -0.350 OA
BRANCH  28  29
HETATM   29  C   UNL     1      19.526  47.282  47.812  1.00  0.00     0.175 C 
BRANCH  29  30
HETATM   30  C   UNL     1      20.624  46.231  47.954  1.00  0.00     0.022 C 
HETATM   31  C   UNL     1      21.741  46.444  46.949  1.00  0.00     0.007 C 
ENDBRANCH  29  30
ENDBRANCH  28  29
ENDBRANCH  23  28
ENDBRANCH   1  22
TORSDOF 8
ENDMDL
MODEL 2
REMARK VINA RESULT:      -8.0      2.249     10.949
REMARK  8 active torsions:
REMARK  status: ('A' for Active; 'I' for Inactive)
REMARK    1  A    between atoms: C_2  and  C_3 
REMARK    2  A    between atoms: C_3  and  O_4 
REMARK    3  A    between atoms: O_4  and  C_5 
REMARK    4  A    between atoms: C_6  and  C_7 
REMARK    5  A    between atoms: C_11  and  C_12 
REMARK       I    between atoms: C_12  and  N_13 
REMARK    6  A    between atoms: N_13  and  N_14 
REMARK    7  A    between atoms: C_15  and  C_16 
REMARK    8  A    between atoms: C_19  and  N_20 
ROOT
HETATM    1  C   UNL     1      26.328  44.939  51.971  1.00  0.00     0.092 A 
HETATM    2  N   UNL     1      25.056  44.511  52.063  1.00  0.00    -0.174 NA
HETATM    3  N   UNL     1      24.343  45.410  51.372  1.00  0.00    -0.272 N 
HETATM    4  H   UNL     1      23.335  45.297  51.307  1.00  0.00     0.189 HD
HETATM    5  C   UNL     1      25.087  46.404  50.804  1.00  0.00     0.121 A 
HETATM    6  C   UNL     1      26.386  46.119  51.173  1.00  0.00     0.071 A 
ENDROOT
BRANCH   5   7
HETATM    7  C   UNL     1      24.464  47.437  50.014  1.00  0.00     0.289 C 
HETATM    8  N   UNL     1      23.238  47.090  49.465  1.00  0.00    -0.242 N 
HETATM    9  H   UNL     1      22.846  46.172  49.624  1.00  0.00     0.192 HD
HETATM   10  O   UNL     1      25.004  48.530  49.866  1.00  0.00    -0.264 OA
BRANCH   8  11
HETATM   11  N   UNL     1      22.537  48.004  48.734  1.00  0.00    -0.184 NA
HETATM   12  C   UNL     1      21.275  48.098  49.005  1.00  0.00     0.150 C 
BRANCH  12  13
HETATM   13  C   UNL     1      20.406  49.064  48.303  1.00  0.00    -0.017 A 
HETATM   14  C   UNL     1      20.442  50.421  48.618  1.00  0.00     0.015 A 
HETATM   15  C   UNL     1      19.590  51.316  47.959  1.00  0.00     0.030 A 
HETATM   16  C   UNL     1      18.694  50.889  46.965  1.00  0.00     0.029 A 
HETATM   17  C   UNL     1      18.679  49.511  46.676  1.00  0.00     0.030 A 
HETATM   18  C   UNL     1      19.523  48.604  47.330  1.00  0.00     0.015 A 
BRANCH  16  19
HETATM   19  N   UNL     1      17.808  51.756  46.306  1.00  0.00    -0.390 N 
HETATM   20  C   UNL     1      16.577  52.059  47.043  1.00  0.00     0.149 C 
HETATM   21  C   UNL     1      17.621  51.591  44.864  1.00  0.00     0.149 C 
ENDBRANCH  16  19
ENDBRANCH  12  13
ENDBRANCH   8  11
ENDBRANCH   5   7
BRANCH   1  22
HETATM   22  C   UNL     1      27.428  44.196  52.608  1.00  0.00     0.028 A 
HETATM   23  C   UNL     1      27.896  44.474  53.910  1.00  0.00     0.081 A 
HETATM   24  C   UNL     1      28.958  43.717  54.435  1.00  0.00     0.038 A 
HETATM   25  C   UNL     1      29.545  42.691  53.690  1.00  0.00     0.003 A 
HETATM   26  C   UNL     1      29.081  42.407  52.413  1.00  0.00     0.001 A 
HETATM   27  C   UNL     1      28.032  43.153  51.878  1.00  0.00     0.017 A 
BRANCH  23  28
HETATM   28  O   UNL     1      27.275  45.482  54.606  1.00  0.00    -0.350 OA
BRANCH  28  29
HETATM   29  C   UNL     1      28.096  46.451  55.257  1.00  0.00     0.175 C 
BRANCH  29  30
HETATM   30  C   UNL     1      27.542  47.832  54.916  1.00  0.00     0.022 C 
HETATM   31  C   UNL     1      26.089  47.766  54.481  1.00  0.00     0.007 C 
ENDBRANCH  29  30
ENDBRANCH  28  29
ENDBRANCH  23  28
ENDBRANCH   1  22
TORSDOF 8
ENDMDL
MODEL 3
REMARK VINA RESULT:      -7.8      7.632     12.124
REMARK  8 active torsions:
REMARK  status: ('A' for Active; 'I' for Inactive)
REMARK    1  A    between atoms: C_2  and  C_3 
REMARK    2  A    between atoms: C_3  and  O_4 
REMARK    3  A    between atoms: O_4  and  C_5 
REMARK    4  A    between atoms: C_6  and  C_7 
REMARK    5  A    between atoms: C_11  and  C_12 
REMARK       I    between atoms: C_12  and  N_13 
REMARK    6  A    between atoms: N_13  and  N_14 
REMARK    7  A    between atoms: C_15  and  C_16 
REMARK    8  A    between atoms: C_19  and  N_20 
ROOT
HETATM    1  C   UNL     1      29.842  43.196  54.431  1.00  0.00     0.092 A 
HETATM    2  N   UNL     1      30.787  42.979  53.499  1.00  0.00    -0.174 NA
HETATM    3  N   UNL     1      30.179  42.239  52.563  1.00  0.00    -0.272 N 
HETATM    4  H   UNL     1      30.707  41.940  51.748  1.00  0.00     0.189 HD
HETATM    5  C   UNL     1      28.863  41.975  52.819  1.00  0.00     0.121 A 
HETATM    6  C   UNL     1      28.616  42.592  54.028  1.00  0.00     0.071 A 
ENDROOT
BRANCH   5   7
HETATM    7  C   UNL     1      28.069  41.204  51.895  1.00  0.00     0.289 C 
HETATM    8  N   UNL     1      28.756  40.195  51.237  1.00  0.00    -0.242 N 
HETATM    9  H   UNL     1      29.740  40.045  51.414  1.00  0.00     0.192 HD
HETATM   10  O   UNL     1      26.875  41.448  51.734  1.00  0.00    -0.264 OA
BRANCH   8  11
HETATM   11  N   UNL     1      28.095  39.375  50.371  1.00  0.00    -0.184 NA
HETATM   12  C   UNL     1      28.837  38.698  49.553  1.00  0.00     0.150 C 
BRANCH  12  13
HETATM   13  C   UNL     1      28.250  37.756  48.580  1.00  0.00    -0.017 A 
HETATM   14  C   UNL     1      27.126  36.999  48.903  1.00  0.00     0.015 A 
HETATM   15  C   UNL     1      26.601  36.091  47.974  1.00  0.00     0.030 A 
HETATM   16  C   UNL     1      27.170  35.923  46.701  1.00  0.00     0.029 A 
HETATM   17  C   UNL     1      28.308  36.699  46.410  1.00  0.00     0.030 A 
HETATM   18  C   UNL     1      28.846  37.608  47.330  1.00  0.00     0.015 A 
BRANCH  16  19
HETATM   19  N   UNL     1      26.685  35.003  45.759  1.00  0.00    -0.390 N 
HETATM   20  C   UNL     1      27.259  33.657  45.858  1.00  0.00     0.149 C 
HETATM   21  C   UNL     1      26.468  35.465  44.387  1.00  0.00     0.149 C 
ENDBRANCH  16  19
ENDBRANCH  12  13
ENDBRANCH   8  11
ENDBRANCH   5   7
BRANCH   1  22
HETATM   22  C   UNL     1      30.132  43.992  55.635  1.00  0.00     0.028 A 
HETATM   23  C   UNL     1      29.609  45.285  55.851  1.00  0.00     0.081 A 
HETATM   24  C   UNL     1      29.947  45.975  57.029  1.00  0.00     0.038 A 
HETATM   25  C   UNL     1      30.781  45.393  57.987  1.00  0.00     0.003 A 
HETATM   26  C   UNL     1      31.289  44.118  57.784  1.00  0.00     0.001 A 
HETATM   27  C   UNL     1      30.966  43.424  56.619  1.00  0.00     0.017 A 
BRANCH  23  28
HETATM   28  O   UNL     1      28.782  45.805  54.886  1.00  0.00    -0.350 OA
BRANCH  28  29
HETATM   29  C   UNL     1      27.378  45.811  55.140  1.00  0.00     0.175 C 
BRANCH  29  30
HETATM   30  C   UNL     1      26.801  47.082  54.522  1.00  0.00     0.022 C 
HETATM   31  C   UNL     1      26.899  48.265  55.468  1.00  0.00     0.007 C 
ENDBRANCH  29  30
ENDBRANCH  28  29
ENDBRANCH  23  28
ENDBRANCH   1  22
TORSDOF 8
ENDMDL
MODEL 4
REMARK VINA RESULT:      -7.8      1.350      2.565
REMARK  8 active torsions:
REMARK  status: ('A' for Active; 'I' for Inactive)
REMARK    1  A    between atoms: C_2  and  C_3 
REMARK    2  A    between atoms: C_3  and  O_4 
REMARK    3  A    between atoms: O_4  and  C_5 
REMARK    4  A    between atoms: C_6  and  C_7 
REMARK    5  A    between atoms: C_11  and  C_12 
REMARK       I    between atoms: C_12  and  N_13 
REMARK    6  A    between atoms: N_13  and  N_14 
REMARK    7  A    between atoms: C_15  and  C_16 
REMARK    8  A    between atoms: C_19  and  N_20 
ROOT
HETATM    1  C   UNL     1      21.394  48.494  48.174  1.00  0.00     0.092 A 
HETATM    2  N   UNL     1      22.178  49.504  47.756  1.00  0.00    -0.174 NA
HETATM    3  N   UNL     1      23.347  49.309  48.382  1.00  0.00    -0.272 N 
HETATM    4  H   UNL     1      24.107  49.964  48.224  1.00  0.00     0.189 HD
HETATM    5  C   UNL     1      23.381  48.199  49.179  1.00  0.00     0.121 A 
HETATM    6  C   UNL     1      22.123  47.647  49.057  1.00  0.00     0.071 A 
ENDROOT
BRANCH   5   7
HETATM    7  C   UNL     1      24.576  47.846  49.905  1.00  0.00     0.289 C 
HETATM    8  N   UNL     1      24.414  46.823  50.828  1.00  0.00    -0.242 N 
HETATM    9  H   UNL     1      23.512  46.386  50.957  1.00  0.00     0.192 HD
HETATM   10  O   UNL     1      25.638  48.425  49.692  1.00  0.00    -0.264 OA
BRANCH   8  11
HETATM   11  N   UNL     1      25.488  46.377  51.543  1.00  0.00    -0.184 NA
HETATM   12  C   UNL     1      25.502  46.692  52.799  1.00  0.00     0.150 C 
BRANCH  12  13
HETATM   13  C   UNL     1      26.593  46.253  53.690  1.00  0.00    -0.017 A 
HETATM   14  C   UNL     1      27.308  47.172  54.457  1.00  0.00     0.015 A 
HETATM   15  C   UNL     1      28.358  46.736  55.275  1.00  0.00     0.030 A 
HETATM   16  C   UNL     1      28.714  45.380  55.363  1.00  0.00     0.029 A 
HETATM   17  C   UNL     1      27.976  44.480  54.571  1.00  0.00     0.030 A 
HETATM   18  C   UNL     1      26.926  44.901  53.745  1.00  0.00     0.015 A 
BRANCH  16  19
HETATM   19  N   UNL     1      29.778  44.916  56.152  1.00  0.00    -0.390 N 
HETATM   20  C   UNL     1      30.287  45.880  57.132  1.00  0.00     0.149 C 
HETATM   21  C   UNL     1      30.814  44.105  55.510  1.00  0.00     0.149 C 
ENDBRANCH  16  19
ENDBRANCH  12  13
ENDBRANCH   8  11
ENDBRANCH   5   7
BRANCH   1  22
HETATM   22  C   UNL     1      20.009  48.359  47.692  1.00  0.00     0.028 A 
HETATM   23  C   UNL     1      18.884  48.746  48.453  1.00  0.00     0.081 A 
HETATM   24  C   UNL     1      17.598  48.573  47.914  1.00  0.00     0.038 A 
HETATM   25  C   UNL     1      17.421  48.035  46.637  1.00  0.00     0.003 A 
HETATM   26  C   UNL     1      18.524  47.663  45.880  1.00  0.00     0.001 A 
HETATM   27  C   UNL     1      19.805  47.825  46.404  1.00  0.00     0.017 A 
BRANCH  23  28
HETATM   28  O   UNL     1      19.113  49.284  49.695  1.00  0.00    -0.350 OA
BRANCH  28  29
HETATM   29  C   UNL     1      18.521  50.547  49.998  1.00  0.00     0.175 C 
BRANCH  29  30
HETATM   30  C   UNL     1      19.520  51.633  49.607  1.00  0.00     0.022 C 
HETATM   31  C   UNL     1      19.053  52.418  48.395  1.00  0.00     0.007 C 
ENDBRANCH  29  30
ENDBRANCH  28  29
ENDBRANCH  23  28
ENDBRANCH   1  22
TORSDOF 8
ENDMDL
MODEL 5
REMARK VINA RESULT:      -7.6      2.501     10.770
REMARK  8 active torsions:
REMARK  status: ('A' for Active; 'I' for Inactive)
REMARK    1  A    between atoms: C_2  and  C_3 
REMARK    2  A    between atoms: C_3  and  O_4 
REMARK    3  A    between atoms: O_4  and  C_5 
REMARK    4  A    between atoms: C_6  and  C_7 
REMARK    5  A    between atoms: C_11  and  C_12 
REMARK       I    between atoms: C_12  and  N_13 
REMARK    6  A    between atoms: N_13  and  N_14 
REMARK    7  A    between atoms: C_15  and  C_16 
REMARK    8  A    between atoms: C_19  and  N_20 
ROOT
HETATM    1  C   UNL     1      26.081  45.603  52.148  1.00  0.00     0.092 A 
HETATM    2  N   UNL     1      24.970  44.896  51.874  1.00  0.00    -0.174 NA
HETATM    3  N   UNL     1      24.252  45.688  51.067  1.00  0.00    -0.272 N 
HETATM    4  H   UNL     1      23.351  45.363  50.730  1.00  0.00     0.189 HD
HETATM    5  C   UNL     1      24.848  46.881  50.772  1.00  0.00     0.121 A 
HETATM    6  C   UNL     1      26.044  46.850  51.459  1.00  0.00     0.071 A 
ENDROOT
BRANCH   5   7
HETATM    7  C   UNL     1      24.206  47.834  49.901  1.00  0.00     0.289 C 
HETATM    8  N   UNL     1      22.888  47.538  49.584  1.00  0.00    -0.242 N 
HETATM    9  H   UNL     1      22.447  46.705  49.951  1.00  0.00     0.192 HD
HETATM   10  O   UNL     1      24.810  48.824  49.495  1.00  0.00    -0.264 OA
BRANCH   8  11
HETATM   11  N   UNL     1      22.168  48.392  48.801  1.00  0.00    -0.184 NA
HETATM   12  C   UNL     1      20.961  48.642  49.197  1.00  0.00     0.150 C 
BRANCH  12  13
HETATM   13  C   UNL     1      20.083  49.568  48.455  1.00  0.00    -0.017 A 
HETATM   14  C   UNL     1      20.066  50.930  48.746  1.00  0.00     0.015 A 
HETATM   15  C   UNL     1      19.205  51.786  48.048  1.00  0.00     0.030 A 
HETATM   16  C   UNL     1      18.353  51.314  47.036  1.00  0.00     0.029 A 
HETATM   17  C   UNL     1      18.392  49.932  46.770  1.00  0.00     0.030 A 
HETATM   18  C   UNL     1      19.244  49.063  47.464  1.00  0.00     0.015 A 
BRANCH  16  19
HETATM   19  N   UNL     1      17.460  52.140  46.336  1.00  0.00    -0.390 N 
HETATM   20  C   UNL     1      16.130  52.263  46.941  1.00  0.00     0.149 C 
HETATM   21  C   UNL     1      17.453  52.073  44.874  1.00  0.00     0.149 C 
ENDBRANCH  16  19
ENDBRANCH  12  13
ENDBRANCH   8  11
ENDBRANCH   5   7
BRANCH   1  22
HETATM   22  C   UNL     1      27.137  45.054  53.015  1.00  0.00     0.028 A 
HETATM   23  C   UNL     1      27.888  43.905  52.685  1.00  0.00     0.081 A 
HETATM   24  C   UNL     1      28.871  43.448  53.579  1.00  0.00     0.038 A 
HETATM   25  C   UNL     1      29.121  44.119  54.778  1.00  0.00     0.003 A 
HETATM   26  C   UNL     1      28.392  45.255  55.103  1.00  0.00     0.001 A 
HETATM   27  C   UNL     1      27.410  45.717  54.228  1.00  0.00     0.017 A 
BRANCH  23  28
HETATM   28  O   UNL     1      27.615  43.291  51.488  1.00  0.00    -0.350 OA
BRANCH  28  29
HETATM   29  C   UNL     1      28.034  41.937  51.318  1.00  0.00     0.175 C 
BRANCH  29  30
HETATM   30  C   UNL     1      26.781  41.083  51.141  1.00  0.00     0.022 C 
HETATM   31  C   UNL     1      25.726  41.794  50.314  1.00  0.00     0.007 C 
ENDBRANCH  29  30
ENDBRANCH  28  29
ENDBRANCH  23  28
ENDBRANCH   1  22
TORSDOF 8
ENDMDL
MODEL 6
REMARK VINA RESULT:      -7.4      3.401     10.854
REMARK  8 active torsions:
REMARK  status: ('A' for Active; 'I' for Inactive)
REMARK    1  A    between atoms: C_2  and  C_3 
REMARK    2  A    between atoms: C_3  and  O_4 
REMARK    3  A    between atoms: O_4  and  C_5 
REMARK    4  A    between atoms: C_6  and  C_7 
REMARK    5  A    between atoms: C_11  and  C_12 
REMARK       I    between atoms: C_12  and  N_13 
REMARK    6  A    between atoms: N_13  and  N_14 
REMARK    7  A    between atoms: C_15  and  C_16 
REMARK    8  A    between atoms: C_19  and  N_20 
ROOT
HETATM    1  C   UNL     1      26.727  43.961  51.067  1.00  0.00     0.092 A 
HETATM    2  N   UNL     1      27.184  44.302  49.849  1.00  0.00    -0.174 NA
HETATM    3  N   UNL     1      26.128  44.841  49.227  1.00  0.00    -0.272 N 
HETATM    4  H   UNL     1      26.232  45.172  48.272  1.00  0.00     0.189 HD
HETATM    5  C   UNL     1      24.994  44.897  49.987  1.00  0.00     0.121 A 
HETATM    6  C   UNL     1      25.358  44.335  51.194  1.00  0.00     0.071 A 
ENDROOT
BRANCH   5   7
HETATM    7  C   UNL     1      23.778  45.467  49.463  1.00  0.00     0.289 C 
HETATM    8  N   UNL     1      23.772  46.852  49.381  1.00  0.00    -0.242 N 
HETATM    9  H   UNL     1      24.576  47.387  49.680  1.00  0.00     0.192 HD
HETATM   10  O   UNL     1      22.841  44.750  49.120  1.00  0.00    -0.264 OA
BRANCH   8  11
HETATM   11  N   UNL     1      22.689  47.498  48.860  1.00  0.00    -0.184 NA
HETATM   12  C   UNL     1      22.565  48.746  49.182  1.00  0.00     0.150 C 
BRANCH  12  13
HETATM   13  C   UNL     1      21.451  49.567  48.668  1.00  0.00    -0.017 A 
HETATM   14  C   UNL     1      21.387  50.934  48.929  1.00  0.00     0.015 A 
HETATM   15  C   UNL     1      20.306  51.689  48.455  1.00  0.00     0.030 A 
HETATM   16  C   UNL     1      19.273  51.109  47.700  1.00  0.00     0.029 A 
HETATM   17  C   UNL     1      19.367  49.725  47.459  1.00  0.00     0.030 A 
HETATM   18  C   UNL     1      20.439  48.956  47.931  1.00  0.00     0.015 A 
BRANCH  16  19
HETATM   19  N   UNL     1      18.164  51.832  47.234  1.00  0.00    -0.390 N 
HETATM   20  C   UNL     1      17.073  51.980  48.202  1.00  0.00     0.149 C 
HETATM   21  C   UNL     1      17.722  51.610  45.856  1.00  0.00     0.149 C 
ENDBRANCH  16  19
ENDBRANCH  12  13
ENDBRANCH   8  11
ENDBRANCH   5   7
BRANCH   1  22
HETATM   22  C   UNL     1      27.612  43.334  52.062  1.00  0.00     0.028 A 
HETATM   23  C   UNL     1      27.879  41.948  52.096  1.00  0.00     0.081 A 
HETATM   24  C   UNL     1      28.732  41.436  53.088  1.00  0.00     0.038 A 
HETATM   25  C   UNL     1      29.325  42.280  54.031  1.00  0.00     0.003 A 
HETATM   26  C   UNL     1      29.074  43.645  53.997  1.00  0.00     0.001 A 
HETATM   27  C   UNL     1      28.227  44.165  53.021  1.00  0.00     0.017 A 
BRANCH  23  28
HETATM   28  O   UNL     1      27.284  41.164  51.138  1.00  0.00    -0.350 OA
BRANCH  28  29
HETATM   29  C   UNL     1      28.061  40.792  50.000  1.00  0.00     0.175 C 
BRANCH  29  30
HETATM   30  C   UNL     1      27.938  39.280  49.829  1.00  0.00     0.022 C 
HETATM   31  C   UNL     1      29.204  38.559  50.254  1.00  0.00     0.007 C 
ENDBRANCH  29  30
ENDBRANCH  28  29
ENDBRANCH  23  28
ENDBRANCH   1  22
TORSDOF 8
ENDMDL
MODEL 7
REMARK VINA RESULT:      -7.4      7.220     11.444
REMARK  8 active torsions:
REMARK  status: ('A' for Active; 'I' for Inactive)
REMARK    1  A    between atoms: C_2  and  C_3 
REMARK    2  A    between atoms: C_3  and  O_4 
REMARK    3  A    between atoms: O_4  and  C_5 
REMARK    4  A    between atoms: C_6  and  C_7 
REMARK    5  A    between atoms: C_11  and  C_12 
REMARK       I    between atoms: C_12  and  N_13 
REMARK    6  A    between atoms: N_13  and  N_14 
REMARK    7  A    between atoms: C_15  and  C_16 
REMARK    8  A    between atoms: C_19  and  N_20 
ROOT
HETATM    1  C   UNL     1      27.612  43.746  53.645  1.00  0.00     0.092 A 
HETATM    2  N   UNL     1      27.148  42.690  54.338  1.00  0.00    -0.174 NA
HETATM    3  N   UNL     1      27.456  41.627  53.584  1.00  0.00    -0.272 N 
HETATM    4  H   UNL     1      27.194  40.700  53.906  1.00  0.00     0.189 HD
HETATM    5  C   UNL     1      28.127  41.927  52.432  1.00  0.00     0.121 A 
HETATM    6  C   UNL     1      28.246  43.302  52.450  1.00  0.00     0.071 A 
ENDROOT
BRANCH   5   7
HETATM    7  C   UNL     1      28.542  40.887  51.524  1.00  0.00     0.289 C 
HETATM    8  N   UNL     1      28.252  41.130  50.189  1.00  0.00    -0.242 N 
HETATM    9  H   UNL     1      27.781  41.980  49.913  1.00  0.00     0.192 HD
HETATM   10  O   UNL     1      29.112  39.880  51.937  1.00  0.00    -0.264 OA
BRANCH   8  11
HETATM   11  N   UNL     1      28.638  40.233  49.236  1.00  0.00    -0.184 NA
HETATM   12  C   UNL     1      27.779  40.004  48.294  1.00  0.00     0.150 C 
BRANCH  12  13
HETATM   13  C   UNL     1      28.079  39.073  47.189  1.00  0.00    -0.017 A 
HETATM   14  C   UNL     1      28.518  37.775  47.443  1.00  0.00     0.015 A 
HETATM   15  C   UNL     1      28.824  36.917  46.378  1.00  0.00     0.030 A 
HETATM   16  C   UNL     1      28.687  37.321  45.040  1.00  0.00     0.029 A 
HETATM   17  C   UNL     1      28.246  38.640  44.819  1.00  0.00     0.030 A 
HETATM   18  C   UNL     1      27.942  39.510  45.873  1.00  0.00     0.015 A 
BRANCH  16  19
HETATM   19  N   UNL     1      29.011  36.495  43.952  1.00  0.00    -0.390 N 
HETATM   20  C   UNL     1      28.402  36.887  42.677  1.00  0.00     0.149 C 
HETATM   21  C   UNL     1      29.069  35.049  44.173  1.00  0.00     0.149 C 
ENDBRANCH  16  19
ENDBRANCH  12  13
ENDBRANCH   8  11
ENDBRANCH   5   7
BRANCH   1  22
HETATM   22  C   UNL     1      27.466  45.117  54.163  1.00  0.00     0.028 A 
HETATM   23  C   UNL     1      28.327  45.673  55.133  1.00  0.00     0.081 A 
HETATM   24  C   UNL     1      28.106  46.989  55.574  1.00  0.00     0.038 A 
HETATM   25  C   UNL     1      27.056  47.753  55.059  1.00  0.00     0.003 A 
HETATM   26  C   UNL     1      26.212  47.214  54.097  1.00  0.00     0.001 A 
HETATM   27  C   UNL     1      26.416  45.909  53.654  1.00  0.00     0.017 A 
BRANCH  23  28
HETATM   28  O   UNL     1      29.353  44.887  55.596  1.00  0.00    -0.350 OA
BRANCH  28  29
HETATM   29  C   UNL     1      30.423  45.524  56.293  1.00  0.00     0.175 C 
BRANCH  29  30
HETATM   30  C   UNL     1      30.866  44.590  57.416  1.00  0.00     0.022 C 
HETATM   31  C   UNL     1      31.554  43.348  56.880  1.00  0.00     0.007 C 
ENDBRANCH  29  30
ENDBRANCH  28  29
ENDBRANCH  23  28
ENDBRANCH   1  22
TORSDOF 8
ENDMDL
MODEL 8
REMARK VINA RESULT:      -7.2      7.496      9.769
REMARK  8 active torsions:
REMARK  status: ('A' for Active; 'I' for Inactive)
REMARK    1  A    between atoms: C_2  and  C_3 
REMARK    2  A    between atoms: C_3  and  O_4 
REMARK    3  A    between atoms: O_4  and  C_5 
REMARK    4  A    between atoms: C_6  and  C_7 
REMARK    5  A    between atoms: C_11  and  C_12 
REMARK       I    between atoms: C_12  and  N_13 
REMARK    6  A    between atoms: N_13  and  N_14 
REMARK    7  A    between atoms: C_15  and  C_16 
REMARK    8  A    between atoms: C_19  and  N_20 
ROOT
HETATM    1  C   UNL     1      27.310  40.287  46.686  1.00  0.00     0.092 A 
HETATM    2  N   UNL     1      26.032  40.703  46.737  1.00  0.00    -0.174 NA
HETATM    3  N   UNL     1      25.974  41.491  47.819  1.00  0.00    -0.272 N 
HETATM    4  H   UNL     1      25.089  41.923  48.069  1.00  0.00     0.189 HD
HETATM    5  C   UNL     1      27.164  41.637  48.475  1.00  0.00     0.121 A 
HETATM    6  C   UNL     1      28.053  40.866  47.754  1.00  0.00     0.071 A 
ENDROOT
BRANCH   5   7
HETATM    7  C   UNL     1      27.265  42.468  49.648  1.00  0.00     0.289 C 
HETATM    8  N   UNL     1      27.593  41.792  50.815  1.00  0.00    -0.242 N 
HETATM    9  H   UNL     1      27.738  40.792  50.804  1.00  0.00     0.192 HD
HETATM   10  O   UNL     1      27.074  43.680  49.582  1.00  0.00    -0.264 OA
BRANCH   8  11
HETATM   11  N   UNL     1      27.758  42.484  51.979  1.00  0.00    -0.184 NA
HETATM   12  C   UNL     1      28.979  42.622  52.387  1.00  0.00     0.150 C 
BRANCH  12  13
HETATM   13  C   UNL     1      29.298  43.369  53.620  1.00  0.00    -0.017 A 
HETATM   14  C   UNL     1      30.419  43.049  54.383  1.00  0.00     0.015 A 
HETATM   15  C   UNL     1      30.688  43.753  55.564  1.00  0.00     0.030 A 
HETATM   16  C   UNL     1      29.861  44.798  56.007  1.00  0.00     0.029 A 
HETATM   17  C   UNL     1      28.734  45.092  55.215  1.00  0.00     0.030 A 
HETATM   18  C   UNL     1      28.450  44.394  54.035  1.00  0.00     0.015 A 
BRANCH  16  19
HETATM   19  N   UNL     1      30.088  45.505  57.199  1.00  0.00    -0.390 N 
HETATM   20  C   UNL     1      31.039  44.873  58.119  1.00  0.00     0.149 C 
HETATM   21  C   UNL     1      28.944  46.139  57.856  1.00  0.00     0.149 C 
ENDBRANCH  16  19
ENDBRANCH  12  13
ENDBRANCH   8  11
ENDBRANCH   5   7
BRANCH   1  22
HETATM   22  C   UNL     1      27.775  39.392  45.612  1.00  0.00     0.028 A 
HETATM   23  C   UNL     1      28.137  38.046  45.830  1.00  0.00     0.081 A 
HETATM   24  C   UNL     1      28.577  37.269  44.745  1.00  0.00     0.038 A 
HETATM   25  C   UNL     1      28.649  37.807  43.458  1.00  0.00     0.003 A 
HETATM   26  C   UNL     1      28.285  39.128  43.236  1.00  0.00     0.001 A 
HETATM   27  C   UNL     1      27.851  39.912  44.304  1.00  0.00     0.017 A 
BRANCH  23  28
HETATM   28  O   UNL     1      28.033  37.560  47.110  1.00  0.00    -0.350 OA
BRANCH  28  29
HETATM   29  C   UNL     1      26.943  36.688  47.409  1.00  0.00     0.175 C 
BRANCH  29  30
HETATM   30  C   UNL     1      26.517  36.956  48.850  1.00  0.00     0.022 C 
HETATM   31  C   UNL     1      27.705  37.266  49.742  1.00  0.00     0.007 C 
ENDBRANCH  29  30
ENDBRANCH  28  29
ENDBRANCH  23  28
ENDBRANCH   1  22
TORSDOF 8
ENDMDL
MODEL 9
REMARK VINA RESULT:      -7.2      5.077     11.213
REMARK  8 active torsions:
REMARK  status: ('A' for Active; 'I' for Inactive)
REMARK    1  A    between atoms: C_2  and  C_3 
REMARK    2  A    between atoms: C_3  and  O_4 
REMARK    3  A    between atoms: O_4  and  C_5 
REMARK    4  A    between atoms: C_6  and  C_7 
REMARK    5  A    between atoms: C_11  and  C_12 
REMARK       I    between atoms: C_12  and  N_13 
REMARK    6  A    between atoms: N_13  and  N_14 
REMARK    7  A    between atoms: C_15  and  C_16 
REMARK    8  A    between atoms: C_19  and  N_20 
ROOT
HETATM    1  C   UNL     1      28.174  43.649  53.747  1.00  0.00     0.092 A 
HETATM    2  N   UNL     1      27.327  42.635  53.995  1.00  0.00    -0.174 NA
HETATM    3  N   UNL     1      26.687  42.433  52.836  1.00  0.00    -0.272 N 
HETATM    4  H   UNL     1      25.979  41.706  52.781  1.00  0.00     0.189 HD
HETATM    5  C   UNL     1      27.089  43.253  51.820  1.00  0.00     0.121 A 
HETATM    6  C   UNL     1      28.062  44.053  52.385  1.00  0.00     0.071 A 
ENDROOT
BRANCH   5   7
HETATM    7  C   UNL     1      26.506  43.146  50.506  1.00  0.00     0.289 C 
HETATM    8  N   UNL     1      25.256  42.544  50.472  1.00  0.00    -0.242 N 
HETATM    9  H   UNL     1      24.821  42.215  51.323  1.00  0.00     0.192 HD
HETATM   10  O   UNL     1      27.097  43.570  49.516  1.00  0.00    -0.264 OA
BRANCH   8  11
HETATM   11  N   UNL     1      24.590  42.427  49.286  1.00  0.00    -0.184 NA
HETATM   12  C   UNL     1      23.430  43.001  49.230  1.00  0.00     0.150 C 
BRANCH  12  13
HETATM   13  C   UNL     1      22.616  42.970  47.999  1.00  0.00    -0.017 A 
HETATM   14  C   UNL     1      22.701  41.902  47.108  1.00  0.00     0.015 A 
HETATM   15  C   UNL     1      21.940  41.907  45.933  1.00  0.00     0.030 A 
HETATM   16  C   UNL     1      21.067  42.962  45.621  1.00  0.00     0.029 A 
HETATM   17  C   UNL     1      21.009  44.027  46.539  1.00  0.00     0.030 A 
HETATM   18  C   UNL     1      21.768  44.039  47.717  1.00  0.00     0.015 A 
BRANCH  16  19
HETATM   19  N   UNL     1      20.311  43.009  44.439  1.00  0.00    -0.390 N 
HETATM   20  C   UNL     1      19.331  41.929  44.289  1.00  0.00     0.149 C 
HETATM   21  C   UNL     1      20.989  43.384  43.197  1.00  0.00     0.149 C 
ENDBRANCH  16  19
ENDBRANCH  12  13
ENDBRANCH   8  11
ENDBRANCH   5   7
BRANCH   1  22
HETATM   22  C   UNL     1      29.071  44.163  54.795  1.00  0.00     0.028 A 
HETATM   23  C   UNL     1      28.788  45.316  55.558  1.00  0.00     0.081 A 
HETATM   24  C   UNL     1      29.708  45.738  56.533  1.00  0.00     0.038 A 
HETATM   25  C   UNL     1      30.888  45.027  56.762  1.00  0.00     0.003 A 
HETATM   26  C   UNL     1      31.168  43.886  56.021  1.00  0.00     0.001 A 
HETATM   27  C   UNL     1      30.266  43.459  55.048  1.00  0.00     0.017 A 
BRANCH  23  28
HETATM   28  O   UNL     1      27.608  45.970  55.305  1.00  0.00    -0.350 OA
BRANCH  28  29
HETATM   29  C   UNL     1      27.654  47.383  55.105  1.00  0.00     0.175 C 
BRANCH  29  30
HETATM   30  C   UNL     1      26.314  47.811  54.512  1.00  0.00     0.022 C 
HETATM   31  C   UNL     1      25.855  46.867  53.416  1.00  0.00     0.007 C 
ENDBRANCH  29  30
ENDBRANCH  28  29
ENDBRANCH  23  28
ENDBRANCH   1  22
TORSDOF 8
ENDMDL
MODEL 10
REMARK VINA RESULT:      -7.2      2.370     10.955
REMARK  8 active torsions:
REMARK  status: ('A' for Active; 'I' for Inactive)
REMARK    1  A    between atoms: C_2  and  C_3 
REMARK    2  A    between atoms: C_3  and  O_4 
REMARK    3  A    between atoms: O_4  and  C_5 
REMARK    4  A    between atoms: C_6  and  C_7 
REMARK    5  A    between atoms: C_11  and  C_12 
REMARK       I    between atoms: C_12  and  N_13 
REMARK    6  A    between atoms: N_13  and  N_14 
REMARK    7  A    between atoms: C_15  and  C_16 
REMARK    8  A    between atoms: C_19  and  N_20 
ROOT
HETATM    1  C   UNL     1      26.194  46.035  52.835  1.00  0.00     0.092 A 
HETATM    2  N   UNL     1      25.311  45.062  52.547  1.00  0.00    -0.174 NA
HETATM    3  N   UNL     1      24.576  45.557  51.542  1.00  0.00    -0.272 N 
HETATM    4  H   UNL     1      23.825  44.992  51.154  1.00  0.00     0.189 HD
HETATM    5  C   UNL     1      24.948  46.806  51.133  1.00  0.00     0.121 A 
HETATM    6  C   UNL     1      26.004  47.139  51.956  1.00  0.00     0.071 A 
ENDROOT
BRANCH   5   7
HETATM    7  C   UNL     1      24.263  47.465  50.050  1.00  0.00     0.289 C 
HETATM    8  N   UNL     1      23.241  46.725  49.471  1.00  0.00    -0.242 N 
HETATM    9  H   UNL     1      23.026  45.797  49.807  1.00  0.00     0.192 HD
HETATM   10  O   UNL     1      24.583  48.598  49.697  1.00  0.00    -0.264 OA
BRANCH   8  11
HETATM   11  N   UNL     1      22.496  47.266  48.464  1.00  0.00    -0.184 NA
HETATM   12  C   UNL     1      21.233  47.412  48.710  1.00  0.00     0.150 C 
BRANCH  12  13
HETATM   13  C   UNL     1      20.319  48.006  47.715  1.00  0.00    -0.017 A 
HETATM   14  C   UNL     1      19.514  47.202  46.909  1.00  0.00     0.015 A 
HETATM   15  C   UNL     1      18.674  47.786  45.953  1.00  0.00     0.030 A 
HETATM   16  C   UNL     1      18.602  49.178  45.782  1.00  0.00     0.029 A 
HETATM   17  C   UNL     1      19.432  49.960  46.608  1.00  0.00     0.030 A 
HETATM   18  C   UNL     1      20.280  49.390  47.566  1.00  0.00     0.015 A 
BRANCH  16  19
HETATM   19  N   UNL     1      17.792  49.792  44.814  1.00  0.00    -0.390 N 
HETATM   20  C   UNL     1      18.461  50.819  44.009  1.00  0.00     0.149 C 
HETATM   21  C   UNL     1      16.409  50.113  45.171  1.00  0.00     0.149 C 
ENDBRANCH  16  19
ENDBRANCH  12  13
ENDBRANCH   8  11
ENDBRANCH   5   7
BRANCH   1  22
HETATM   22  C   UNL     1      27.195  45.859  53.901  1.00  0.00     0.028 A 
HETATM   23  C   UNL     1      28.075  44.756  53.962  1.00  0.00     0.081 A 
HETATM   24  C   UNL     1      28.993  44.668  55.021  1.00  0.00     0.038 A 
HETATM   25  C   UNL     1      29.054  45.659  56.004  1.00  0.00     0.003 A 
HETATM   26  C   UNL     1      28.199  46.751  55.943  1.00  0.00     0.001 A 
HETATM   27  C   UNL     1      27.279  46.849  54.901  1.00  0.00     0.017 A 
BRANCH  23  28
HETATM   28  O   UNL     1      27.986  43.818  52.963  1.00  0.00    -0.350 OA
BRANCH  28  29
HETATM   29  C   UNL     1      29.196  43.377  52.349  1.00  0.00     0.175 C 
BRANCH  29  30
HETATM   30  C   UNL     1      29.445  41.939  52.796  1.00  0.00     0.022 C 
HETATM   31  C   UNL     1      28.166  41.260  53.251  1.00  0.00     0.007 C 
ENDBRANCH  29  30
ENDBRANCH  28  29
ENDBRANCH  23  28
ENDBRANCH   1  22
TORSDOF 8
ENDMDL
