MODEL 1
REMARK VINA RESULT:      -7.4      0.000      0.000
REMARK  4 active torsions:
REMARK  status: ('A' for Active; 'I' for Inactive)
REMARK    1  A    between atoms: C_5  and  N_6 
REMARK    2  A    between atoms: N_10  and  C_11 
REMARK    3  A    between atoms: C_11  and  C_12 
REMARK    4  A    between atoms: C_13  and  O_14 
ROOT
HETATM    1  N   UNL     1      25.832  43.751  51.689  1.00  0.00    -0.312 N 
HETATM    2  C   UNL     1      25.726  43.850  53.087  1.00  0.00     0.253 C 
HETATM    3  O   UNL     1      24.830  44.457  53.681  1.00  0.00    -0.271 OA
HETATM    4  C   UNL     1      26.717  43.026  53.921  1.00  0.00     0.375 C 
HETATM    5  N   UNL     1      28.069  42.883  53.342  1.00  0.00     0.103 N 
HETATM    6  C   UNL     1      27.927  42.363  51.980  1.00  0.00     0.293 C 
HETATM    7  C   UNL     1      27.067  43.247  51.075  1.00  0.00     0.162 C 
ENDROOT
BRANCH   5   8
HETATM    8  C   UNL     1      28.838  44.139  53.392  1.00  0.00     0.314 C 
BRANCH   8   9
HETATM    9  C   UNL     1      29.358  44.447  54.780  1.00  0.00     0.006 A 
HETATM   10  C   UNL     1      28.755  45.408  55.600  1.00  0.00     0.095 A 
HETATM   11  C   UNL     1      29.238  45.652  56.892  1.00  0.00     0.069 A 
HETATM   12 CL   UNL     1      28.479  46.832  57.896  1.00  0.00    -0.081 Cl
HETATM   13  C   UNL     1      30.333  44.946  57.382  1.00  0.00     0.050 A 
HETATM   14  C   UNL     1      30.944  43.994  56.571  1.00  0.00     0.036 A 
HETATM   15 CL   UNL     1      32.295  43.110  57.167  1.00  0.00    -0.084 Cl
HETATM   16  C   UNL     1      30.468  43.744  55.283  1.00  0.00     0.035 A 
BRANCH  10  17
HETATM   17  O   UNL     1      27.675  46.097  55.114  1.00  0.00    -0.358 OA
HETATM   18  H   UNL     1      26.937  45.466  55.023  1.00  0.00     0.218 HD
ENDBRANCH  10  17
ENDBRANCH   8   9
ENDBRANCH   5   8
BRANCH   1  19
HETATM   19  C   UNL     1      24.822  44.304  50.874  1.00  0.00     0.073 A 
HETATM   20  C   UNL     1      23.669  43.715  50.290  1.00  0.00     0.169 A 
HETATM   21  N   UNL     1      22.961  44.573  49.548  1.00  0.00    -0.183 NA
HETATM   22  N   UNL     1      23.652  45.717  49.651  1.00  0.00    -0.283 N 
HETATM   23  C   UNL     1      23.203  46.895  48.950  1.00  0.00     0.179 C 
HETATM   24  C   UNL     1      24.762  45.613  50.437  1.00  0.00     0.143 A 
ENDBRANCH   1  19
TORSDOF 4
ENDMDL
MODEL 2
REMARK VINA RESULT:      -7.3      3.965      7.777
REMARK  4 active torsions:
REMARK  status: ('A' for Active; 'I' for Inactive)
REMARK    1  A    between atoms: C_5  and  N_6 
REMARK    2  A    between atoms: N_10  and  C_11 
REMARK    3  A    between atoms: C_11  and  C_12 
REMARK    4  A    between atoms: C_13  and  O_14 
ROOT
HETATM    1  N   UNL     1      27.525  45.471  54.645  1.00  0.00    -0.312 N 
HETATM    2  C   UNL     1      26.818  44.346  54.186  1.00  0.00     0.253 C 
HETATM    3  O   UNL     1      27.167  43.176  54.367  1.00  0.00    -0.271 OA
HETATM    4  C   UNL     1      25.450  44.601  53.537  1.00  0.00     0.375 C 
HETATM    5  N   UNL     1      25.340  45.850  52.755  1.00  0.00     0.103 N 
HETATM    6  C   UNL     1      25.761  46.961  53.612  1.00  0.00     0.293 C 
HETATM    7  C   UNL     1      27.184  46.811  54.152  1.00  0.00     0.162 C 
ENDROOT
BRANCH   5   8
HETATM    8  C   UNL     1      26.097  45.791  51.492  1.00  0.00     0.314 C 
BRANCH   8   9
HETATM    9  C   UNL     1      25.663  46.854  50.505  1.00  0.00     0.006 A 
HETATM   10  C   UNL     1      24.369  46.884  49.972  1.00  0.00     0.095 A 
HETATM   11  C   UNL     1      23.985  47.897  49.083  1.00  0.00     0.069 A 
HETATM   12 CL   UNL     1      22.384  47.929  48.441  1.00  0.00    -0.081 Cl
HETATM   13  C   UNL     1      24.887  48.890  48.709  1.00  0.00     0.050 A 
HETATM   14  C   UNL     1      26.178  48.863  49.229  1.00  0.00     0.036 A 
HETATM   15 CL   UNL     1      27.301  50.087  48.779  1.00  0.00    -0.084 Cl
HETATM   16  C   UNL     1      26.569  47.858  50.115  1.00  0.00     0.035 A 
BRANCH  10  17
HETATM   17  O   UNL     1      23.485  45.908  50.346  1.00  0.00    -0.358 OA
HETATM   18  H   UNL     1      22.604  46.163  50.014  1.00  0.00     0.218 HD
ENDBRANCH  10  17
ENDBRANCH   8   9
ENDBRANCH   5   8
BRANCH   1  19
HETATM   19  C   UNL     1      28.677  45.290  55.440  1.00  0.00     0.073 A 
HETATM   20  C   UNL     1      29.821  44.471  55.251  1.00  0.00     0.169 A 
HETATM   21  N   UNL     1      30.698  44.555  56.257  1.00  0.00    -0.183 NA
HETATM   22  N   UNL     1      30.124  45.426  57.098  1.00  0.00    -0.283 N 
HETATM   23  C   UNL     1      30.772  45.762  58.342  1.00  0.00     0.179 C 
HETATM   24  C   UNL     1      28.924  45.901  56.653  1.00  0.00     0.143 A 
ENDBRANCH   1  19
TORSDOF 4
ENDMDL
MODEL 3
REMARK VINA RESULT:      -7.2      4.317      7.812
REMARK  4 active torsions:
REMARK  status: ('A' for Active; 'I' for Inactive)
REMARK    1  A    between atoms: C_5  and  N_6 
REMARK    2  A    between atoms: N_10  and  C_11 
REMARK    3  A    between atoms: C_11  and  C_12 
REMARK    4  A    between atoms: C_13  and  O_14 
ROOT
HETATM    1  N   UNL     1      28.433  43.848  53.666  1.00  0.00    -0.312 N 
HETATM    2  C   UNL     1      27.052  43.695  53.875  1.00  0.00     0.253 C 
HETATM    3  O   UNL     1      26.505  43.703  54.982  1.00  0.00    -0.271 OA
HETATM    4  C   UNL     1      26.159  43.652  52.627  1.00  0.00     0.375 C 
HETATM    5  N   UNL     1      26.752  42.999  51.442  1.00  0.00     0.103 N 
HETATM    6  C   UNL     1      28.046  43.631  51.175  1.00  0.00     0.293 C 
HETATM    7  C   UNL     1      29.020  43.554  52.353  1.00  0.00     0.162 C 
ENDROOT
BRANCH   5   8
HETATM    8  C   UNL     1      26.859  41.537  51.601  1.00  0.00     0.314 C 
BRANCH   8   9
HETATM    9  C   UNL     1      27.344  40.850  50.342  1.00  0.00     0.006 A 
HETATM   10  C   UNL     1      28.427  39.964  50.353  1.00  0.00     0.095 A 
HETATM   11  C   UNL     1      28.837  39.320  49.178  1.00  0.00     0.069 A 
HETATM   12 CL   UNL     1      30.167  38.221  49.207  1.00  0.00    -0.081 Cl
HETATM   13  C   UNL     1      28.176  39.554  47.975  1.00  0.00     0.050 A 
HETATM   14  C   UNL     1      27.102  40.440  47.954  1.00  0.00     0.036 A 
HETATM   15 CL   UNL     1      26.273  40.736  46.475  1.00  0.00    -0.084 Cl
HETATM   16  C   UNL     1      26.687  41.086  49.120  1.00  0.00     0.035 A 
BRANCH  10  17
HETATM   17  O   UNL     1      29.071  39.733  51.539  1.00  0.00    -0.358 OA
HETATM   18  H   UNL     1      30.017  39.598  51.342  1.00  0.00     0.218 HD
ENDBRANCH  10  17
ENDBRANCH   8   9
ENDBRANCH   5   8
BRANCH   1  19
HETATM   19  C   UNL     1      29.278  44.113  54.765  1.00  0.00     0.073 A 
HETATM   20  C   UNL     1      29.405  45.265  55.586  1.00  0.00     0.169 A 
HETATM   21  N   UNL     1      30.353  45.139  56.521  1.00  0.00    -0.183 NA
HETATM   22  N   UNL     1      30.839  43.909  56.308  1.00  0.00    -0.283 N 
HETATM   23  C   UNL     1      31.920  43.410  57.123  1.00  0.00     0.179 C 
HETATM   24  C   UNL     1      30.226  43.252  55.280  1.00  0.00     0.143 A 
ENDBRANCH   1  19
TORSDOF 4
ENDMDL
MODEL 4
REMARK VINA RESULT:      -7.2      2.335      2.994
REMARK  4 active torsions:
REMARK  status: ('A' for Active; 'I' for Inactive)
REMARK    1  A    between atoms: C_5  and  N_6 
REMARK    2  A    between atoms: N_10  and  C_11 
REMARK    3  A    between atoms: C_11  and  C_12 
REMARK    4  A    between atoms: C_13  and  O_14 
ROOT
HETATM    1  N   UNL     1      25.832  42.257  50.237  1.00  0.00    -0.312 N 
HETATM    2  C   UNL     1      26.509  41.171  50.817  1.00  0.00     0.253 C 
HETATM    3  O   UNL     1      26.087  40.011  50.836  1.00  0.00    -0.271 OA
HETATM    4  C   UNL     1      27.930  41.432  51.335  1.00  0.00     0.375 C 
HETATM    5  N   UNL     1      28.160  42.773  51.911  1.00  0.00     0.103 N 
HETATM    6  C   UNL     1      27.740  43.770  50.924  1.00  0.00     0.293 C 
HETATM    7  C   UNL     1      26.277  43.631  50.499  1.00  0.00     0.162 C 
ENDROOT
BRANCH   5   8
HETATM    8  C   UNL     1      27.491  42.948  53.212  1.00  0.00     0.314 C 
BRANCH   8   9
HETATM    9  C   UNL     1      28.179  43.977  54.085  1.00  0.00     0.006 A 
HETATM   10  C   UNL     1      27.675  45.274  54.237  1.00  0.00     0.095 A 
HETATM   11  C   UNL     1      28.315  46.197  55.073  1.00  0.00     0.069 A 
HETATM   12 CL   UNL     1      27.677  47.790  55.260  1.00  0.00    -0.081 Cl
HETATM   13  C   UNL     1      29.469  45.842  55.766  1.00  0.00     0.050 A 
HETATM   14  C   UNL     1      29.981  44.557  55.615  1.00  0.00     0.036 A 
HETATM   15 CL   UNL     1      31.405  44.103  56.469  1.00  0.00    -0.084 Cl
HETATM   16  C   UNL     1      29.350  43.631  54.784  1.00  0.00     0.035 A 
BRANCH  10  17
HETATM   17  O   UNL     1      26.536  45.617  53.557  1.00  0.00    -0.358 OA
HETATM   18  H   UNL     1      26.459  45.021  52.788  1.00  0.00     0.218 HD
ENDBRANCH  10  17
ENDBRANCH   8   9
ENDBRANCH   5   8
BRANCH   1  19
HETATM   19  C   UNL     1      24.620  42.035  49.549  1.00  0.00     0.073 A 
HETATM   20  C   UNL     1      23.322  42.574  49.750  1.00  0.00     0.169 A 
HETATM   21  N   UNL     1      22.414  42.086  48.898  1.00  0.00    -0.183 NA
HETATM   22  N   UNL     1      23.121  41.233  48.145  1.00  0.00    -0.283 N 
HETATM   23  C   UNL     1      22.468  40.476  47.105  1.00  0.00     0.179 C 
HETATM   24  C   UNL     1      24.442  41.173  48.485  1.00  0.00     0.143 A 
ENDBRANCH   1  19
TORSDOF 4
ENDMDL
MODEL 5
REMARK VINA RESULT:      -7.1      2.519      3.651
REMARK  4 active torsions:
REMARK  status: ('A' for Active; 'I' for Inactive)
REMARK    1  A    between atoms: C_5  and  N_6 
REMARK    2  A    between atoms: N_10  and  C_11 
REMARK    3  A    between atoms: C_11  and  C_12 
REMARK    4  A    between atoms: C_13  and  O_14 
ROOT
HETATM    1  N   UNL     1      25.752  42.323  50.171  1.00  0.00    -0.312 N 
HETATM    2  C   UNL     1      26.494  41.304  50.792  1.00  0.00     0.253 C 
HETATM    3  O   UNL     1      26.154  40.118  50.841  1.00  0.00    -0.271 OA
HETATM    4  C   UNL     1      27.885  41.680  51.321  1.00  0.00     0.375 C 
HETATM    5  N   UNL     1      28.012  43.050  51.859  1.00  0.00     0.103 N 
HETATM    6  C   UNL     1      27.539  43.985  50.837  1.00  0.00     0.293 C 
HETATM    7  C   UNL     1      26.095  43.732  50.398  1.00  0.00     0.162 C 
ENDROOT
BRANCH   5   8
HETATM    8  C   UNL     1      27.312  43.215  53.146  1.00  0.00     0.314 C 
BRANCH   8   9
HETATM    9  C   UNL     1      28.018  44.185  54.070  1.00  0.00     0.006 A 
HETATM   10  C   UNL     1      29.159  43.819  54.795  1.00  0.00     0.095 A 
HETATM   11  C   UNL     1      29.810  44.745  55.620  1.00  0.00     0.069 A 
HETATM   12 CL   UNL     1      31.221  44.284  56.500  1.00  0.00    -0.081 Cl
HETATM   13  C   UNL     1      29.330  46.046  55.739  1.00  0.00     0.050 A 
HETATM   14  C   UNL     1      28.192  46.416  55.028  1.00  0.00     0.036 A 
HETATM   15 CL   UNL     1      27.591  48.023  55.161  1.00  0.00    -0.084 Cl
HETATM   16  C   UNL     1      27.538  45.501  54.203  1.00  0.00     0.035 A 
BRANCH  10  17
HETATM   17  O   UNL     1      29.629  42.538  54.671  1.00  0.00    -0.358 OA
HETATM   18  H   UNL     1      28.886  41.976  54.383  1.00  0.00     0.218 HD
ENDBRANCH  10  17
ENDBRANCH   8   9
ENDBRANCH   5   8
BRANCH   1  19
HETATM   19  C   UNL     1      24.569  41.995  49.475  1.00  0.00     0.073 A 
HETATM   20  C   UNL     1      23.228  42.426  49.660  1.00  0.00     0.169 A 
HETATM   21  N   UNL     1      22.372  41.859  48.803  1.00  0.00    -0.183 NA
HETATM   22  N   UNL     1      23.155  41.061  48.064  1.00  0.00    -0.283 N 
HETATM   23  C   UNL     1      22.576  40.245  47.025  1.00  0.00     0.179 C 
HETATM   24  C   UNL     1      24.473  41.113  48.417  1.00  0.00     0.143 A 
ENDBRANCH   1  19
TORSDOF 4
ENDMDL
MODEL 6
REMARK VINA RESULT:      -7.1      4.024      5.958
REMARK  4 active torsions:
REMARK  status: ('A' for Active; 'I' for Inactive)
REMARK    1  A    between atoms: C_5  and  N_6 
REMARK    2  A    between atoms: N_10  and  C_11 
REMARK    3  A    between atoms: C_11  and  C_12 
REMARK    4  A    between atoms: C_13  and  O_14 
ROOT
HETATM    1  N   UNL     1      24.220  46.886  49.937  1.00  0.00    -0.312 N 
HETATM    2  C   UNL     1      25.044  46.745  51.066  1.00  0.00     0.253 C 
HETATM    3  O   UNL     1      25.632  47.675  51.626  1.00  0.00    -0.271 OA
HETATM    4  C   UNL     1      25.099  45.357  51.719  1.00  0.00     0.375 C 
HETATM    5  N   UNL     1      25.003  44.212  50.791  1.00  0.00     0.103 N 
HETATM    6  C   UNL     1      23.801  44.391  49.973  1.00  0.00     0.293 C 
HETATM    7  C   UNL     1      23.788  45.702  49.184  1.00  0.00     0.162 C 
ENDROOT
BRANCH   5   8
HETATM    8  C   UNL     1      26.221  44.044  49.978  1.00  0.00     0.314 C 
BRANCH   8   9
HETATM    9  C   UNL     1      26.946  42.750  50.281  1.00  0.00     0.006 A 
HETATM   10  C   UNL     1      27.300  41.846  49.272  1.00  0.00     0.095 A 
HETATM   11  C   UNL     1      27.997  40.670  49.577  1.00  0.00     0.069 A 
HETATM   12 CL   UNL     1      28.437  39.570  48.322  1.00  0.00    -0.081 Cl
HETATM   13  C   UNL     1      28.346  40.375  50.892  1.00  0.00     0.050 A 
HETATM   14  C   UNL     1      27.991  41.264  51.903  1.00  0.00     0.036 A 
HETATM   15 CL   UNL     1      28.420  40.914  53.532  1.00  0.00    -0.084 Cl
HETATM   16  C   UNL     1      27.297  42.438  51.608  1.00  0.00     0.035 A 
BRANCH  10  17
HETATM   17  O   UNL     1      26.959  42.144  47.979  1.00  0.00    -0.358 OA
HETATM   18  H   UNL     1      27.421  41.512  47.398  1.00  0.00     0.218 HD
ENDBRANCH  10  17
ENDBRANCH   8   9
ENDBRANCH   5   8
BRANCH   1  19
HETATM   19  C   UNL     1      23.956  48.174  49.425  1.00  0.00     0.073 A 
HETATM   20  C   UNL     1      24.825  49.154  48.875  1.00  0.00     0.169 A 
HETATM   21  N   UNL     1      24.190  50.278  48.523  1.00  0.00    -0.183 NA
HETATM   22  N   UNL     1      22.913  50.028  48.844  1.00  0.00    -0.283 N 
HETATM   23  C   UNL     1      21.906  51.038  48.631  1.00  0.00     0.179 C 
HETATM   24  C   UNL     1      22.719  48.785  49.375  1.00  0.00     0.143 A 
ENDBRANCH   1  19
TORSDOF 4
ENDMDL
MODEL 7
REMARK VINA RESULT:      -7.1      3.174      4.251
REMARK  4 active torsions:
REMARK  status: ('A' for Active; 'I' for Inactive)
REMARK    1  A    between atoms: C_5  and  N_6 
REMARK    2  A    between atoms: N_10  and  C_11 
REMARK    3  A    between atoms: C_11  and  C_12 
REMARK    4  A    between atoms: C_13  and  O_14 
ROOT
HETATM    1  N   UNL     1      27.749  40.888  50.675  1.00  0.00    -0.312 N 
HETATM    2  C   UNL     1      27.029  42.093  50.742  1.00  0.00     0.253 C 
HETATM    3  O   UNL     1      26.561  42.686  49.766  1.00  0.00    -0.271 OA
HETATM    4  C   UNL     1      26.690  42.625  52.142  1.00  0.00     0.375 C 
HETATM    5  N   UNL     1      27.708  42.373  53.182  1.00  0.00     0.103 N 
HETATM    6  C   UNL     1      28.002  40.938  53.192  1.00  0.00     0.293 C 
HETATM    7  C   UNL     1      28.493  40.405  51.845  1.00  0.00     0.162 C 
ENDROOT
BRANCH   5   8
HETATM    8  C   UNL     1      28.916  43.197  52.997  1.00  0.00     0.314 C 
BRANCH   8   9
HETATM    9  C   UNL     1      29.356  43.878  54.276  1.00  0.00     0.006 A 
HETATM   10  C   UNL     1      28.672  44.982  54.799  1.00  0.00     0.095 A 
HETATM   11  C   UNL     1      29.083  45.575  55.999  1.00  0.00     0.069 A 
HETATM   12 CL   UNL     1      28.224  46.928  56.639  1.00  0.00    -0.081 Cl
HETATM   13  C   UNL     1      30.184  45.079  56.693  1.00  0.00     0.050 A 
HETATM   14  C   UNL     1      30.875  43.987  56.176  1.00  0.00     0.036 A 
HETATM   15 CL   UNL     1      32.235  43.362  57.024  1.00  0.00    -0.084 Cl
HETATM   16  C   UNL     1      30.472  43.390  54.980  1.00  0.00     0.035 A 
BRANCH  10  17
HETATM   17  O   UNL     1      27.586  45.462  54.115  1.00  0.00    -0.358 OA
HETATM   18  H   UNL     1      26.860  45.577  54.756  1.00  0.00     0.218 HD
ENDBRANCH  10  17
ENDBRANCH   8   9
ENDBRANCH   5   8
BRANCH   1  19
HETATM   19  C   UNL     1      27.901  40.237  49.433  1.00  0.00     0.073 A 
HETATM   20  C   UNL     1      28.804  40.472  48.362  1.00  0.00     0.169 A 
HETATM   21  N   UNL     1      28.612  39.649  47.325  1.00  0.00    -0.183 NA
HETATM   22  N   UNL     1      27.587  38.882  47.722  1.00  0.00    -0.283 N 
HETATM   23  C   UNL     1      27.064  37.867  46.841  1.00  0.00     0.179 C 
HETATM   24  C   UNL     1      27.134  39.185  48.973  1.00  0.00     0.143 A 
ENDBRANCH   1  19
TORSDOF 4
ENDMDL
MODEL 8
REMARK VINA RESULT:      -6.9      2.244      2.931
REMARK  4 active torsions:
REMARK  status: ('A' for Active; 'I' for Inactive)
REMARK    1  A    between atoms: C_5  and  N_6 
REMARK    2  A    between atoms: N_10  and  C_11 
REMARK    3  A    between atoms: C_11  and  C_12 
REMARK    4  A    between atoms: C_13  and  O_14 
ROOT
HETATM    1  N   UNL     1      24.883  43.764  49.432  1.00  0.00    -0.312 N 
HETATM    2  C   UNL     1      25.372  42.475  49.703  1.00  0.00     0.253 C 
HETATM    3  O   UNL     1      24.757  41.429  49.477  1.00  0.00    -0.271 OA
HETATM    4  C   UNL     1      26.826  42.370  50.185  1.00  0.00     0.375 C 
HETATM    5  N   UNL     1      27.294  43.478  51.042  1.00  0.00     0.103 N 
HETATM    6  C   UNL     1      27.035  44.736  50.340  1.00  0.00     0.293 C 
HETATM    7  C   UNL     1      25.562  44.944  49.981  1.00  0.00     0.162 C 
ENDROOT
BRANCH   5   8
HETATM    8  C   UNL     1      26.688  43.444  52.386  1.00  0.00     0.314 C 
BRANCH   8   9
HETATM    9  C   UNL     1      27.517  44.182  53.415  1.00  0.00     0.006 A 
HETATM   10  C   UNL     1      27.158  45.452  53.883  1.00  0.00     0.095 A 
HETATM   11  C   UNL     1      27.927  46.100  54.858  1.00  0.00     0.069 A 
HETATM   12 CL   UNL     1      27.467  47.660  55.433  1.00  0.00    -0.081 Cl
HETATM   13  C   UNL     1      29.069  45.493  55.376  1.00  0.00     0.050 A 
HETATM   14  C   UNL     1      29.437  44.234  54.911  1.00  0.00     0.036 A 
HETATM   15 CL   UNL     1      30.843  43.471  55.547  1.00  0.00    -0.084 Cl
HETATM   16  C   UNL     1      28.676  43.582  53.941  1.00  0.00     0.035 A 
BRANCH  10  17
HETATM   17  O   UNL     1      26.032  46.041  53.373  1.00  0.00    -0.358 OA
HETATM   18  H   UNL     1      25.415  46.192  54.113  1.00  0.00     0.218 HD
ENDBRANCH  10  17
ENDBRANCH   8   9
ENDBRANCH   5   8
BRANCH   1  19
HETATM   19  C   UNL     1      23.638  43.913  48.783  1.00  0.00     0.073 A 
HETATM   20  C   UNL     1      22.325  44.050  49.306  1.00  0.00     0.169 A 
HETATM   21  N   UNL     1      21.389  44.139  48.355  1.00  0.00    -0.183 NA
HETATM   22  N   UNL     1      22.093  44.059  47.218  1.00  0.00    -0.283 N 
HETATM   23  C   UNL     1      21.414  44.093  45.946  1.00  0.00     0.179 C 
HETATM   24  C   UNL     1      23.438  43.934  47.418  1.00  0.00     0.143 A 
ENDBRANCH   1  19
TORSDOF 4
ENDMDL
MODEL 9
REMARK VINA RESULT:      -6.9      2.995      4.655
REMARK  4 active torsions:
REMARK  status: ('A' for Active; 'I' for Inactive)
REMARK    1  A    between atoms: C_5  and  N_6 
REMARK    2  A    between atoms: N_10  and  C_11 
REMARK    3  A    between atoms: C_11  and  C_12 
REMARK    4  A    between atoms: C_13  and  O_14 
ROOT
HETATM    1  N   UNL     1      24.392  47.611  49.241  1.00  0.00    -0.312 N 
HETATM    2  C   UNL     1      23.708  46.386  49.155  1.00  0.00     0.253 C 
HETATM    3  O   UNL     1      22.519  46.267  48.846  1.00  0.00    -0.271 OA
HETATM    4  C   UNL     1      24.543  45.109  49.324  1.00  0.00     0.375 C 
HETATM    5  N   UNL     1      25.665  45.204  50.279  1.00  0.00     0.103 N 
HETATM    6  C   UNL     1      26.487  46.356  49.901  1.00  0.00     0.293 C 
HETATM    7  C   UNL     1      25.715  47.676  49.874  1.00  0.00     0.162 C 
ENDROOT
BRANCH   5   8
HETATM    8  C   UNL     1      25.208  45.271  51.679  1.00  0.00     0.314 C 
BRANCH   8   9
HETATM    9  C   UNL     1      26.287  44.870  52.662  1.00  0.00     0.006 A 
HETATM   10  C   UNL     1      26.854  45.789  53.553  1.00  0.00     0.095 A 
HETATM   11  C   UNL     1      27.831  45.385  54.473  1.00  0.00     0.069 A 
HETATM   12 CL   UNL     1      28.514  46.525  55.573  1.00  0.00    -0.081 Cl
HETATM   13  C   UNL     1      28.260  44.061  54.513  1.00  0.00     0.050 A 
HETATM   14  C   UNL     1      27.707  43.142  53.625  1.00  0.00     0.036 A 
HETATM   15 CL   UNL     1      28.225  41.502  53.667  1.00  0.00    -0.084 Cl
HETATM   16  C   UNL     1      26.734  43.536  52.706  1.00  0.00     0.035 A 
BRANCH  10  17
HETATM   17  O   UNL     1      26.425  47.089  53.513  1.00  0.00    -0.358 OA
HETATM   18  H   UNL     1      26.665  47.453  52.640  1.00  0.00     0.218 HD
ENDBRANCH  10  17
ENDBRANCH   8   9
ENDBRANCH   5   8
BRANCH   1  19
HETATM   19  C   UNL     1      23.730  48.803  48.880  1.00  0.00     0.073 A 
HETATM   20  C   UNL     1      24.143  49.887  48.060  1.00  0.00     0.169 A 
HETATM   21  N   UNL     1      23.231  50.862  47.983  1.00  0.00    -0.183 NA
HETATM   22  N   UNL     1      22.229  50.413  48.751  1.00  0.00    -0.283 N 
HETATM   23  C   UNL     1      21.049  51.220  48.940  1.00  0.00     0.179 C 
HETATM   24  C   UNL     1      22.472  49.188  49.301  1.00  0.00     0.143 A 
ENDBRANCH   1  19
TORSDOF 4
ENDMDL
MODEL 10
REMARK VINA RESULT:      -6.9      8.580     12.627
REMARK  4 active torsions:
REMARK  status: ('A' for Active; 'I' for Inactive)
REMARK    1  A    between atoms: C_5  and  N_6 
REMARK    2  A    between atoms: N_10  and  C_11 
REMARK    3  A    between atoms: C_11  and  C_12 
REMARK    4  A    between atoms: C_13  and  O_14 
ROOT
HETATM    1  N   UNL     1      22.846  49.794  48.930  1.00  0.00    -0.312 N 
HETATM    2  C   UNL     1      21.951  48.932  48.274  1.00  0.00     0.253 C 
HETATM    3  O   UNL     1      22.270  48.123  47.397  1.00  0.00    -0.271 OA
HETATM    4  C   UNL     1      20.505  48.908  48.788  1.00  0.00     0.375 C 
HETATM    5  N   UNL     1      19.982  50.200  49.278  1.00  0.00     0.103 N 
HETATM    6  C   UNL     1      20.917  50.716  50.281  1.00  0.00     0.293 C 
HETATM    7  C   UNL     1      22.341  50.899  49.752  1.00  0.00     0.162 C 
ENDROOT
BRANCH   5   8
HETATM    8  C   UNL     1      19.737  51.158  48.186  1.00  0.00     0.314 C 
BRANCH   8   9
HETATM    9  C   UNL     1      18.295  51.618  48.129  1.00  0.00     0.006 A 
HETATM   10  C   UNL     1      17.468  51.326  47.038  1.00  0.00     0.095 A 
HETATM   11  C   UNL     1      16.130  51.738  47.024  1.00  0.00     0.069 A 
HETATM   12 CL   UNL     1      15.118  51.363  45.678  1.00  0.00    -0.081 Cl
HETATM   13  C   UNL     1      15.598  52.451  48.096  1.00  0.00     0.050 A 
HETATM   14  C   UNL     1      16.415  52.752  49.181  1.00  0.00     0.036 A 
HETATM   15 CL   UNL     1      15.770  53.628  50.514  1.00  0.00    -0.084 Cl
HETATM   16  C   UNL     1      17.750  52.345  49.203  1.00  0.00     0.035 A 
BRANCH  10  17
HETATM   17  O   UNL     1      17.995  50.620  45.989  1.00  0.00    -0.358 OA
HETATM   18  H   UNL     1      18.914  50.386  46.220  1.00  0.00     0.218 HD
ENDBRANCH  10  17
ENDBRANCH   8   9
ENDBRANCH   5   8
BRANCH   1  19
HETATM   19  C   UNL     1      24.227  49.703  48.653  1.00  0.00     0.073 A 
HETATM   20  C   UNL     1      25.033  50.381  47.700  1.00  0.00     0.169 A 
HETATM   21  N   UNL     1      26.313  49.994  47.725  1.00  0.00    -0.183 NA
HETATM   22  N   UNL     1      26.338  49.067  48.693  1.00  0.00    -0.283 N 
HETATM   23  C   UNL     1      27.569  48.384  49.005  1.00  0.00     0.179 C 
HETATM   24  C   UNL     1      25.124  48.864  49.283  1.00  0.00     0.143 A 
ENDBRANCH   1  19
TORSDOF 4
ENDMDL
