MODEL 1
REMARK VINA RESULT:      -8.2      0.000      0.000
REMARK  10 active torsions:
REMARK  status: ('A' for Active; 'I' for Inactive)
REMARK    1  A    between atoms: C_2  and  O_3 
REMARK    2  A    between atoms: O_3  and  C_4 
REMARK    3  A    between atoms: C_4  and  C_5 
REMARK    4  A    between atoms: C_10  and  N_11 
REMARK       I    between atoms: N_11  and  C_12 
REMARK    5  A    between atoms: C_12  and  C_13 
REMARK    6  A    between atoms: C_13  and  C_14 
REMARK    7  A    between atoms: C_14  and  N_15 
REMARK    8  A    between atoms: C_19  and  C_20 
REMARK    9  A    between atoms: C_20  and  O_21 
REMARK   10  A    between atoms: O_21  and  C_22 
ROOT
HETATM    1  N   UNL     1      25.728  42.722  51.865  1.00  0.00    -0.324 N 
HETATM    2  C   UNL     1      25.004  43.630  51.170  1.00  0.00     0.223 C 
HETATM    3  O   UNL     1      23.797  43.419  51.008  1.00  0.00    -0.273 OA
HETATM    4  H   UNL     1      25.118  41.953  52.159  1.00  0.00     0.169 HD
ENDROOT
BRANCH   1   5
HETATM    5  C   UNL     1      27.060  42.554  52.242  1.00  0.00     0.080 A 
HETATM    6  C   UNL     1      27.784  41.540  51.613  1.00  0.00     0.137 A 
HETATM    7  N   UNL     1      29.069  41.584  52.081  1.00  0.00    -0.349 N 
HETATM    8  H   UNL     1      29.805  40.959  51.776  1.00  0.00     0.166 HD
HETATM    9  C   UNL     1      29.209  42.560  53.031  1.00  0.00     0.045 A 
HETATM   10  C   UNL     1      27.961  43.182  53.184  1.00  0.00     0.021 A 
HETATM   11  C   UNL     1      30.357  42.907  53.757  1.00  0.00     0.032 A 
HETATM   12  C   UNL     1      27.905  44.195  54.169  1.00  0.00     0.035 A 
HETATM   13  C   UNL     1      29.040  44.548  54.912  1.00  0.00     0.012 A 
HETATM   14  C   UNL     1      30.256  43.920  54.707  1.00  0.00     0.021 A 
HETATM   15 BR   UNL     1      28.890  45.908  56.223  1.00  0.00    -0.051 Br
BRANCH   6  16
HETATM   16  C   UNL     1      27.337  40.573  50.633  1.00  0.00     0.312 C 
HETATM   17  O   UNL     1      26.166  40.267  50.455  1.00  0.00    -0.258 OA
BRANCH  16  18
HETATM   18  O   UNL     1      28.406  40.053  49.971  1.00  0.00    -0.317 OA
BRANCH  18  19
HETATM   19  C   UNL     1      28.390  38.629  49.784  1.00  0.00     0.175 C 
HETATM   20  C   UNL     1      29.797  38.071  49.884  1.00  0.00     0.034 C 
ENDBRANCH  18  19
ENDBRANCH  16  18
ENDBRANCH   6  16
ENDBRANCH   1   5
BRANCH   2  21
HETATM   21  C   UNL     1      25.609  44.876  50.599  1.00  0.00     0.131 C 
BRANCH  21  22
HETATM   22  C   UNL     1      24.667  46.050  50.845  1.00  0.00     0.244 C 
BRANCH  22  23
HETATM   23  N   UNL     1      24.226  46.746  49.551  1.00  0.00    -0.071 N 
HETATM   24  H   UNL     1      24.923  46.512  48.830  1.00  0.00     0.279 HD
HETATM   25  C   UNL     1      22.903  46.139  49.111  1.00  0.00     0.235 C 
HETATM   26  C   UNL     1      22.405  46.798  47.835  1.00  0.00     0.042 C 
HETATM   27  C   UNL     1      22.269  48.313  47.997  1.00  0.00     0.088 C 
HETATM   28  C   UNL     1      23.636  48.883  48.391  1.00  0.00     0.042 C 
HETATM   29  C   UNL     1      24.179  48.255  49.672  1.00  0.00     0.235 C 
BRANCH  27  30
HETATM   30  C   UNL     1      21.218  48.693  49.033  1.00  0.00     0.263 C 
HETATM   31  O   UNL     1      20.268  47.979  49.323  1.00  0.00    -0.265 OA
BRANCH  30  32
HETATM   32  O   UNL     1      21.446  49.934  49.529  1.00  0.00    -0.322 OA
BRANCH  32  33
HETATM   33  C   UNL     1      20.274  50.708  49.843  1.00  0.00     0.174 C 
HETATM   34  C   UNL     1      20.022  51.734  48.753  1.00  0.00     0.034 C 
ENDBRANCH  32  33
ENDBRANCH  30  32
ENDBRANCH  27  30
ENDBRANCH  22  23
ENDBRANCH  21  22
ENDBRANCH   2  21
TORSDOF 10
ENDMDL
MODEL 2
REMARK VINA RESULT:      -7.9      2.441      3.346
REMARK  10 active torsions:
REMARK  status: ('A' for Active; 'I' for Inactive)
REMARK    1  A    between atoms: C_2  and  O_3 
REMARK    2  A    between atoms: O_3  and  C_4 
REMARK    3  A    between atoms: C_4  and  C_5 
REMARK    4  A    between atoms: C_10  and  N_11 
REMARK       I    between atoms: N_11  and  C_12 
REMARK    5  A    between atoms: C_12  and  C_13 
REMARK    6  A    between atoms: C_13  and  C_14 
REMARK    7  A    between atoms: C_14  and  N_15 
REMARK    8  A    between atoms: C_19  and  C_20 
REMARK    9  A    between atoms: C_20  and  O_21 
REMARK   10  A    between atoms: O_21  and  C_22 
ROOT
HETATM    1  N   UNL     1      25.702  42.331  51.750  1.00  0.00    -0.324 N 
HETATM    2  C   UNL     1      24.954  42.595  50.652  1.00  0.00     0.223 C 
HETATM    3  O   UNL     1      23.725  42.607  50.769  1.00  0.00    -0.273 OA
HETATM    4  H   UNL     1      25.084  42.168  52.552  1.00  0.00     0.169 HD
ENDROOT
BRANCH   1   5
HETATM    5  C   UNL     1      27.056  42.194  52.052  1.00  0.00     0.080 A 
HETATM    6  C   UNL     1      27.763  41.184  51.396  1.00  0.00     0.137 A 
HETATM    7  N   UNL     1      29.072  41.260  51.789  1.00  0.00    -0.349 N 
HETATM    8  H   UNL     1      29.802  40.644  51.451  1.00  0.00     0.166 HD
HETATM    9  C   UNL     1      29.246  42.252  52.715  1.00  0.00     0.045 A 
HETATM   10  C   UNL     1      27.997  42.853  52.931  1.00  0.00     0.021 A 
HETATM   11  C   UNL     1      30.428  42.633  53.369  1.00  0.00     0.032 A 
HETATM   12  C   UNL     1      27.978  43.880  53.904  1.00  0.00     0.035 A 
HETATM   13  C   UNL     1      29.147  44.266  54.575  1.00  0.00     0.012 A 
HETATM   14  C   UNL     1      30.361  43.658  54.309  1.00  0.00     0.021 A 
HETATM   15 BR   UNL     1      29.045  45.642  55.872  1.00  0.00    -0.051 Br
BRANCH   6  16
HETATM   16  C   UNL     1      27.280  40.194  50.458  1.00  0.00     0.312 C 
HETATM   17  O   UNL     1      26.204  39.621  50.558  1.00  0.00    -0.258 OA
BRANCH  16  18
HETATM   18  O   UNL     1      28.203  39.991  49.479  1.00  0.00    -0.317 OA
BRANCH  18  19
HETATM   19  C   UNL     1      28.499  38.618  49.178  1.00  0.00     0.175 C 
HETATM   20  C   UNL     1      29.512  38.071  50.165  1.00  0.00     0.034 C 
ENDBRANCH  18  19
ENDBRANCH  16  18
ENDBRANCH   6  16
ENDBRANCH   1   5
BRANCH   2  21
HETATM   21  C   UNL     1      25.563  42.875  49.313  1.00  0.00     0.131 C 
BRANCH  21  22
HETATM   22  C   UNL     1      24.698  43.888  48.571  1.00  0.00     0.244 C 
BRANCH  22  23
HETATM   23  N   UNL     1      25.065  45.342  48.893  1.00  0.00    -0.071 N 
HETATM   24  H   UNL     1      25.141  45.840  47.995  1.00  0.00     0.279 HD
HETATM   25  C   UNL     1      23.909  45.967  49.656  1.00  0.00     0.235 C 
HETATM   26  C   UNL     1      24.217  47.411  50.017  1.00  0.00     0.042 C 
HETATM   27  C   UNL     1      25.512  47.528  50.822  1.00  0.00     0.088 C 
HETATM   28  C   UNL     1      26.654  46.931  49.992  1.00  0.00     0.042 C 
HETATM   29  C   UNL     1      26.393  45.478  49.608  1.00  0.00     0.235 C 
BRANCH  27  30
HETATM   30  C   UNL     1      25.419  46.831  52.174  1.00  0.00     0.263 C 
HETATM   31  O   UNL     1      25.246  45.627  52.301  1.00  0.00    -0.265 OA
BRANCH  30  32
HETATM   32  O   UNL     1      25.489  47.725  53.191  1.00  0.00    -0.322 OA
BRANCH  32  33
HETATM   33  C   UNL     1      26.148  47.264  54.385  1.00  0.00     0.174 C 
HETATM   34  C   UNL     1      26.283  48.406  55.376  1.00  0.00     0.034 C 
ENDBRANCH  32  33
ENDBRANCH  30  32
ENDBRANCH  27  30
ENDBRANCH  22  23
ENDBRANCH  21  22
ENDBRANCH   2  21
TORSDOF 10
ENDMDL
MODEL 3
REMARK VINA RESULT:      -7.9      3.308      5.230
REMARK  10 active torsions:
REMARK  status: ('A' for Active; 'I' for Inactive)
REMARK    1  A    between atoms: C_2  and  O_3 
REMARK    2  A    between atoms: O_3  and  C_4 
REMARK    3  A    between atoms: C_4  and  C_5 
REMARK    4  A    between atoms: C_10  and  N_11 
REMARK       I    between atoms: N_11  and  C_12 
REMARK    5  A    between atoms: C_12  and  C_13 
REMARK    6  A    between atoms: C_13  and  C_14 
REMARK    7  A    between atoms: C_14  and  N_15 
REMARK    8  A    between atoms: C_19  and  C_20 
REMARK    9  A    between atoms: C_20  and  O_21 
REMARK   10  A    between atoms: O_21  and  C_22 
ROOT
HETATM    1  N   UNL     1      25.332  41.609  51.017  1.00  0.00    -0.324 N 
HETATM    2  C   UNL     1      24.409  42.284  50.291  1.00  0.00     0.223 C 
HETATM    3  O   UNL     1      23.376  42.656  50.856  1.00  0.00    -0.273 OA
HETATM    4  H   UNL     1      24.998  41.505  51.980  1.00  0.00     0.169 HD
ENDROOT
BRANCH   1   5
HETATM    5  C   UNL     1      26.568  41.008  50.787  1.00  0.00     0.080 A 
HETATM    6  C   UNL     1      27.675  41.534  51.456  1.00  0.00     0.137 A 
HETATM    7  N   UNL     1      28.765  40.770  51.138  1.00  0.00    -0.349 N 
HETATM    8  H   UNL     1      29.697  40.932  51.501  1.00  0.00     0.166 HD
HETATM    9  C   UNL     1      28.428  39.786  50.248  1.00  0.00     0.045 A 
HETATM   10  C   UNL     1      27.057  39.913  49.978  1.00  0.00     0.021 A 
HETATM   11  C   UNL     1      29.259  38.815  49.670  1.00  0.00     0.032 A 
HETATM   12  C   UNL     1      26.539  38.998  49.032  1.00  0.00     0.035 A 
HETATM   13  C   UNL     1      27.357  38.027  48.436  1.00  0.00     0.012 A 
HETATM   14  C   UNL     1      28.700  37.928  48.754  1.00  0.00     0.021 A 
HETATM   15 BR   UNL     1      26.597  36.841  47.170  1.00  0.00    -0.051 Br
BRANCH   6  16
HETATM   16  C   UNL     1      27.747  42.677  52.341  1.00  0.00     0.312 C 
HETATM   17  O   UNL     1      26.771  43.268  52.780  1.00  0.00    -0.258 OA
BRANCH  16  18
HETATM   18  O   UNL     1      29.048  42.996  52.584  1.00  0.00    -0.317 OA
BRANCH  18  19
HETATM   19  C   UNL     1      29.286  43.782  53.763  1.00  0.00     0.175 C 
HETATM   20  C   UNL     1      30.366  43.140  54.612  1.00  0.00     0.034 C 
ENDBRANCH  18  19
ENDBRANCH  16  18
ENDBRANCH   6  16
ENDBRANCH   1   5
BRANCH   2  21
HETATM   21  C   UNL     1      24.601  42.598  48.839  1.00  0.00     0.131 C 
BRANCH  21  22
HETATM   22  C   UNL     1      24.379  44.090  48.615  1.00  0.00     0.244 C 
BRANCH  22  23
HETATM   23  N   UNL     1      24.918  44.956  49.761  1.00  0.00    -0.071 N 
HETATM   24  H   UNL     1      24.823  44.405  50.626  1.00  0.00     0.279 HD
HETATM   25  C   UNL     1      26.404  45.177  49.531  1.00  0.00     0.235 C 
HETATM   26  C   UNL     1      26.998  46.042  50.631  1.00  0.00     0.042 C 
HETATM   27  C   UNL     1      26.271  47.382  50.751  1.00  0.00     0.088 C 
HETATM   28  C   UNL     1      24.790  47.107  51.031  1.00  0.00     0.042 C 
HETATM   29  C   UNL     1      24.146  46.244  49.950  1.00  0.00     0.235 C 
BRANCH  27  30
HETATM   30  C   UNL     1      26.423  48.237  49.498  1.00  0.00     0.263 C 
HETATM   31  O   UNL     1      27.431  48.245  48.805  1.00  0.00    -0.265 OA
BRANCH  30  32
HETATM   32  O   UNL     1      25.332  49.018  49.304  1.00  0.00    -0.322 OA
BRANCH  32  33
HETATM   33  C   UNL     1      25.365  49.859  48.136  1.00  0.00     0.174 C 
HETATM   34  C   UNL     1      23.978  50.412  47.856  1.00  0.00     0.034 C 
ENDBRANCH  32  33
ENDBRANCH  30  32
ENDBRANCH  27  30
ENDBRANCH  22  23
ENDBRANCH  21  22
ENDBRANCH   2  21
TORSDOF 10
ENDMDL
MODEL 4
REMARK VINA RESULT:      -7.8      3.754      9.488
REMARK  10 active torsions:
REMARK  status: ('A' for Active; 'I' for Inactive)
REMARK    1  A    between atoms: C_2  and  O_3 
REMARK    2  A    between atoms: O_3  and  C_4 
REMARK    3  A    between atoms: C_4  and  C_5 
REMARK    4  A    between atoms: C_10  and  N_11 
REMARK       I    between atoms: N_11  and  C_12 
REMARK    5  A    between atoms: C_12  and  C_13 
REMARK    6  A    between atoms: C_13  and  C_14 
REMARK    7  A    between atoms: C_14  and  N_15 
REMARK    8  A    between atoms: C_19  and  C_20 
REMARK    9  A    between atoms: C_20  and  O_21 
REMARK   10  A    between atoms: O_21  and  C_22 
ROOT
HETATM    1  N   UNL     1      22.414  46.501  47.834  1.00  0.00    -0.324 N 
HETATM    2  C   UNL     1      22.573  45.172  48.039  1.00  0.00     0.223 C 
HETATM    3  O   UNL     1      23.160  44.512  47.175  1.00  0.00    -0.273 OA
HETATM    4  H   UNL     1      22.828  46.760  46.933  1.00  0.00     0.169 HD
ENDROOT
BRANCH   1   5
HETATM    5  C   UNL     1      21.816  47.570  48.500  1.00  0.00     0.080 A 
HETATM    6  C   UNL     1      22.656  48.463  49.169  1.00  0.00     0.137 A 
HETATM    7  N   UNL     1      21.880  49.457  49.700  1.00  0.00    -0.349 N 
HETATM    8  H   UNL     1      22.246  50.241  50.228  1.00  0.00     0.166 HD
HETATM    9  C   UNL     1      20.555  49.230  49.446  1.00  0.00     0.045 A 
HETATM   10  C   UNL     1      20.464  48.038  48.713  1.00  0.00     0.021 A 
HETATM   11  C   UNL     1      19.451  50.004  49.833  1.00  0.00     0.032 A 
HETATM   12  C   UNL     1      19.150  47.618  48.399  1.00  0.00     0.035 A 
HETATM   13  C   UNL     1      18.034  48.373  48.787  1.00  0.00     0.012 A 
HETATM   14  C   UNL     1      18.178  49.556  49.489  1.00  0.00     0.021 A 
HETATM   15 BR   UNL     1      16.304  47.745  48.340  1.00  0.00    -0.051 Br
BRANCH   6  16
HETATM   16  C   UNL     1      24.094  48.420  49.325  1.00  0.00     0.312 C 
HETATM   17  O   UNL     1      24.731  47.400  49.547  1.00  0.00    -0.258 OA
BRANCH  16  18
HETATM   18  O   UNL     1      24.612  49.673  49.208  1.00  0.00    -0.317 OA
BRANCH  18  19
HETATM   19  C   UNL     1      25.473  49.888  48.078  1.00  0.00     0.175 C 
HETATM   20  C   UNL     1      26.924  49.898  48.517  1.00  0.00     0.034 C 
ENDBRANCH  18  19
ENDBRANCH  16  18
ENDBRANCH   6  16
ENDBRANCH   1   5
BRANCH   2  21
HETATM   21  C   UNL     1      22.073  44.482  49.269  1.00  0.00     0.131 C 
BRANCH  21  22
HETATM   22  C   UNL     1      23.186  43.615  49.847  1.00  0.00     0.244 C 
BRANCH  22  23
HETATM   23  N   UNL     1      24.467  44.405  50.149  1.00  0.00    -0.071 N 
HETATM   24  H   UNL     1      24.315  45.366  49.811  1.00  0.00     0.279 HD
HETATM   25  C   UNL     1      24.634  44.481  51.657  1.00  0.00     0.235 C 
HETATM   26  C   UNL     1      25.897  45.245  52.023  1.00  0.00     0.042 C 
HETATM   27  C   UNL     1      27.138  44.626  51.379  1.00  0.00     0.088 C 
HETATM   28  C   UNL     1      26.942  44.617  49.859  1.00  0.00     0.042 C 
HETATM   29  C   UNL     1      25.687  43.857  49.440  1.00  0.00     0.235 C 
BRANCH  27  30
HETATM   30  C   UNL     1      27.411  43.214  51.886  1.00  0.00     0.263 C 
HETATM   31  O   UNL     1      27.632  42.264  51.149  1.00  0.00    -0.265 OA
BRANCH  30  32
HETATM   32  O   UNL     1      27.310  43.153  53.237  1.00  0.00    -0.322 OA
BRANCH  32  33
HETATM   33  C   UNL     1      28.208  42.236  53.890  1.00  0.00     0.174 C 
HETATM   34  C   UNL     1      29.555  42.899  54.112  1.00  0.00     0.034 C 
ENDBRANCH  32  33
ENDBRANCH  30  32
ENDBRANCH  27  30
ENDBRANCH  22  23
ENDBRANCH  21  22
ENDBRANCH   2  21
TORSDOF 10
ENDMDL
MODEL 5
REMARK VINA RESULT:      -7.5      4.012     10.280
REMARK  10 active torsions:
REMARK  status: ('A' for Active; 'I' for Inactive)
REMARK    1  A    between atoms: C_2  and  O_3 
REMARK    2  A    between atoms: O_3  and  C_4 
REMARK    3  A    between atoms: C_4  and  C_5 
REMARK    4  A    between atoms: C_10  and  N_11 
REMARK       I    between atoms: N_11  and  C_12 
REMARK    5  A    between atoms: C_12  and  C_13 
REMARK    6  A    between atoms: C_13  and  C_14 
REMARK    7  A    between atoms: C_14  and  N_15 
REMARK    8  A    between atoms: C_19  and  C_20 
REMARK    9  A    between atoms: C_20  and  O_21 
REMARK   10  A    between atoms: O_21  and  C_22 
ROOT
HETATM    1  N   UNL     1      21.352  48.773  49.283  1.00  0.00    -0.324 N 
HETATM    2  C   UNL     1      22.690  48.570  49.331  1.00  0.00     0.223 C 
HETATM    3  O   UNL     1      23.423  49.541  49.546  1.00  0.00    -0.273 OA
HETATM    4  H   UNL     1      21.152  49.766  49.437  1.00  0.00     0.169 HD
ENDROOT
BRANCH   1   5
HETATM    5  C   UNL     1      20.213  48.004  49.050  1.00  0.00     0.080 A 
HETATM    6  C   UNL     1      19.078  48.286  49.813  1.00  0.00     0.137 A 
HETATM    7  N   UNL     1      18.068  47.465  49.389  1.00  0.00    -0.349 N 
HETATM    8  H   UNL     1      17.131  47.474  49.773  1.00  0.00     0.166 HD
HETATM    9  C   UNL     1      18.507  46.620  48.406  1.00  0.00     0.045 A 
HETATM   10  C   UNL     1      19.860  46.906  48.176  1.00  0.00     0.021 A 
HETATM   11  C   UNL     1      17.785  45.625  47.730  1.00  0.00     0.032 A 
HETATM   12  C   UNL     1      20.498  46.088  47.214  1.00  0.00     0.035 A 
HETATM   13  C   UNL     1      19.795  45.082  46.536  1.00  0.00     0.012 A 
HETATM   14  C   UNL     1      18.454  44.854  46.782  1.00  0.00     0.021 A 
HETATM   15 BR   UNL     1      20.716  44.018  45.268  1.00  0.00    -0.051 Br
BRANCH   6  16
HETATM   16  C   UNL     1      18.911  49.251  50.878  1.00  0.00     0.312 C 
HETATM   17  O   UNL     1      18.495  48.976  51.994  1.00  0.00    -0.258 OA
BRANCH  16  18
HETATM   18  O   UNL     1      19.263  50.491  50.441  1.00  0.00    -0.317 OA
BRANCH  18  19
HETATM   19  C   UNL     1      18.471  51.020  49.366  1.00  0.00     0.175 C 
HETATM   20  C   UNL     1      17.273  51.769  49.915  1.00  0.00     0.034 C 
ENDBRANCH  18  19
ENDBRANCH  16  18
ENDBRANCH   6  16
ENDBRANCH   1   5
BRANCH   2  21
HETATM   21  C   UNL     1      23.306  47.219  49.141  1.00  0.00     0.131 C 
BRANCH  21  22
HETATM   22  C   UNL     1      24.570  47.120  49.988  1.00  0.00     0.244 C 
BRANCH  22  23
HETATM   23  N   UNL     1      25.072  45.679  50.152  1.00  0.00    -0.071 N 
HETATM   24  H   UNL     1      25.151  45.278  49.207  1.00  0.00     0.279 HD
HETATM   25  C   UNL     1      26.474  45.728  50.738  1.00  0.00     0.235 C 
HETATM   26  C   UNL     1      27.025  44.325  50.936  1.00  0.00     0.042 C 
HETATM   27  C   UNL     1      26.107  43.476  51.818  1.00  0.00     0.088 C 
HETATM   28  C   UNL     1      24.723  43.417  51.162  1.00  0.00     0.042 C 
HETATM   29  C   UNL     1      24.124  44.804  50.945  1.00  0.00     0.235 C 
BRANCH  27  30
HETATM   30  C   UNL     1      25.998  44.025  53.236  1.00  0.00     0.263 C 
HETATM   31  O   UNL     1      24.941  44.112  53.846  1.00  0.00    -0.265 OA
BRANCH  30  32
HETATM   32  O   UNL     1      27.202  44.452  53.688  1.00  0.00    -0.322 OA
BRANCH  32  33
HETATM   33  C   UNL     1      27.163  45.392  54.778  1.00  0.00     0.174 C 
HETATM   34  C   UNL     1      27.097  46.810  54.238  1.00  0.00     0.034 C 
ENDBRANCH  32  33
ENDBRANCH  30  32
ENDBRANCH  27  30
ENDBRANCH  22  23
ENDBRANCH  21  22
ENDBRANCH   2  21
TORSDOF 10
ENDMDL
MODEL 6
REMARK VINA RESULT:      -7.5      3.173      7.787
REMARK  10 active torsions:
REMARK  status: ('A' for Active; 'I' for Inactive)
REMARK    1  A    between atoms: C_2  and  O_3 
REMARK    2  A    between atoms: O_3  and  C_4 
REMARK    3  A    between atoms: C_4  and  C_5 
REMARK    4  A    between atoms: C_10  and  N_11 
REMARK       I    between atoms: N_11  and  C_12 
REMARK    5  A    between atoms: C_12  and  C_13 
REMARK    6  A    between atoms: C_13  and  C_14 
REMARK    7  A    between atoms: C_14  and  N_15 
REMARK    8  A    between atoms: C_19  and  C_20 
REMARK    9  A    between atoms: C_20  and  O_21 
REMARK   10  A    between atoms: O_21  and  C_22 
ROOT
HETATM    1  N   UNL     1      27.030  43.708  49.968  1.00  0.00    -0.324 N 
HETATM    2  C   UNL     1      26.965  42.413  49.579  1.00  0.00     0.223 C 
HETATM    3  O   UNL     1      27.161  42.147  48.389  1.00  0.00    -0.273 OA
HETATM    4  H   UNL     1      27.240  44.297  49.156  1.00  0.00     0.169 HD
ENDROOT
BRANCH   1   5
HETATM    5  C   UNL     1      26.855  44.428  51.149  1.00  0.00     0.080 A 
HETATM    6  C   UNL     1      25.825  45.369  51.183  1.00  0.00     0.137 A 
HETATM    7  N   UNL     1      25.790  45.914  52.438  1.00  0.00    -0.349 N 
HETATM    8  H   UNL     1      25.125  46.619  52.732  1.00  0.00     0.166 HD
HETATM    9  C   UNL     1      26.789  45.401  53.220  1.00  0.00     0.045 A 
HETATM   10  C   UNL     1      27.502  44.477  52.442  1.00  0.00     0.021 A 
HETATM   11  C   UNL     1      27.097  45.714  54.552  1.00  0.00     0.032 A 
HETATM   12  C   UNL     1      28.613  43.877  53.080  1.00  0.00     0.035 A 
HETATM   13  C   UNL     1      28.941  44.185  54.408  1.00  0.00     0.012 A 
HETATM   14  C   UNL     1      28.191  45.086  55.141  1.00  0.00     0.021 A 
HETATM   15 BR   UNL     1      30.448  43.349  55.195  1.00  0.00    -0.051 Br
BRANCH   6  16
HETATM   16  C   UNL     1      24.912  45.761  50.130  1.00  0.00     0.312 C 
HETATM   17  O   UNL     1      24.640  46.922  49.855  1.00  0.00    -0.258 OA
BRANCH  16  18
HETATM   18  O   UNL     1      24.399  44.657  49.523  1.00  0.00    -0.317 OA
BRANCH  18  19
HETATM   19  C   UNL     1      23.257  44.068  50.165  1.00  0.00     0.175 C 
HETATM   20  C   UNL     1      23.093  42.626  49.726  1.00  0.00     0.034 C 
ENDBRANCH  18  19
ENDBRANCH  16  18
ENDBRANCH   6  16
ENDBRANCH   1   5
BRANCH   2  21
HETATM   21  C   UNL     1      26.671  41.299  50.536  1.00  0.00     0.131 C 
BRANCH  21  22
HETATM   22  C   UNL     1      27.976  40.609  50.919  1.00  0.00     0.244 C 
BRANCH  22  23
HETATM   23  N   UNL     1      28.155  39.245  50.240  1.00  0.00    -0.071 N 
HETATM   24  H   UNL     1      28.527  38.600  50.953  1.00  0.00     0.279 HD
HETATM   25  C   UNL     1      26.782  38.729  49.841  1.00  0.00     0.235 C 
HETATM   26  C   UNL     1      26.892  37.379  49.150  1.00  0.00     0.042 C 
HETATM   27  C   UNL     1      27.814  37.442  47.931  1.00  0.00     0.088 C 
HETATM   28  C   UNL     1      29.196  37.919  48.392  1.00  0.00     0.042 C 
HETATM   29  C   UNL     1      29.138  39.275  49.090  1.00  0.00     0.235 C 
BRANCH  27  30
HETATM   30  C   UNL     1      27.272  38.362  46.843  1.00  0.00     0.263 C 
HETATM   31  O   UNL     1      27.961  39.175  46.242  1.00  0.00    -0.265 OA
BRANCH  30  32
HETATM   32  O   UNL     1      25.936  38.198  46.685  1.00  0.00    -0.322 OA
BRANCH  32  33
HETATM   33  C   UNL     1      25.229  39.321  46.126  1.00  0.00     0.174 C 
HETATM   34  C   UNL     1      24.535  40.099  47.229  1.00  0.00     0.034 C 
ENDBRANCH  32  33
ENDBRANCH  30  32
ENDBRANCH  27  30
ENDBRANCH  22  23
ENDBRANCH  21  22
ENDBRANCH   2  21
TORSDOF 10
ENDMDL
MODEL 7
REMARK VINA RESULT:      -7.4      4.046      9.557
REMARK  10 active torsions:
REMARK  status: ('A' for Active; 'I' for Inactive)
REMARK    1  A    between atoms: C_2  and  O_3 
REMARK    2  A    between atoms: O_3  and  C_4 
REMARK    3  A    between atoms: C_4  and  C_5 
REMARK    4  A    between atoms: C_10  and  N_11 
REMARK       I    between atoms: N_11  and  C_12 
REMARK    5  A    between atoms: C_12  and  C_13 
REMARK    6  A    between atoms: C_13  and  C_14 
REMARK    7  A    between atoms: C_14  and  N_15 
REMARK    8  A    between atoms: C_19  and  C_20 
REMARK    9  A    between atoms: C_20  and  O_21 
REMARK   10  A    between atoms: O_21  and  C_22 
ROOT
HETATM    1  N   UNL     1      24.138  47.311  48.675  1.00  0.00    -0.324 N 
HETATM    2  C   UNL     1      24.508  46.351  49.555  1.00  0.00     0.223 C 
HETATM    3  O   UNL     1      25.089  45.351  49.122  1.00  0.00    -0.273 OA
HETATM    4  H   UNL     1      24.413  47.030  47.728  1.00  0.00     0.169 HD
ENDROOT
BRANCH   1   5
HETATM    5  C   UNL     1      23.466  48.532  48.721  1.00  0.00     0.080 A 
HETATM    6  C   UNL     1      24.222  49.690  48.530  1.00  0.00     0.137 A 
HETATM    7  N   UNL     1      23.369  50.761  48.555  1.00  0.00    -0.349 N 
HETATM    8  H   UNL     1      23.662  51.722  48.429  1.00  0.00     0.166 HD
HETATM    9  C   UNL     1      22.086  50.356  48.803  1.00  0.00     0.045 A 
HETATM   10  C   UNL     1      22.102  48.960  48.940  1.00  0.00     0.021 A 
HETATM   11  C   UNL     1      20.933  51.147  48.923  1.00  0.00     0.032 A 
HETATM   12  C   UNL     1      20.856  48.367  49.249  1.00  0.00     0.035 A 
HETATM   13  C   UNL     1      19.695  49.143  49.383  1.00  0.00     0.012 A 
HETATM   14  C   UNL     1      19.727  50.515  49.215  1.00  0.00     0.021 A 
HETATM   15 BR   UNL     1      18.062  48.282  49.808  1.00  0.00    -0.051 Br
BRANCH   6  16
HETATM   16  C   UNL     1      25.649  49.827  48.333  1.00  0.00     0.312 C 
HETATM   17  O   UNL     1      26.161  50.299  47.328  1.00  0.00    -0.258 OA
BRANCH  16  18
HETATM   18  O   UNL     1      26.317  49.335  49.412  1.00  0.00    -0.317 OA
BRANCH  18  19
HETATM   19  C   UNL     1      27.706  49.037  49.201  1.00  0.00     0.175 C 
HETATM   20  C   UNL     1      27.895  47.548  48.983  1.00  0.00     0.034 C 
ENDBRANCH  18  19
ENDBRANCH  16  18
ENDBRANCH   6  16
ENDBRANCH   1   5
BRANCH   2  21
HETATM   21  C   UNL     1      24.245  46.463  51.025  1.00  0.00     0.131 C 
BRANCH  21  22
HETATM   22  C   UNL     1      25.493  46.999  51.719  1.00  0.00     0.244 C 
BRANCH  22  23
HETATM   23  N   UNL     1      25.736  46.360  53.093  1.00  0.00    -0.071 N 
HETATM   24  H   UNL     1      24.979  46.681  53.713  1.00  0.00     0.279 HD
HETATM   25  C   UNL     1      25.591  44.854  52.949  1.00  0.00     0.235 C 
HETATM   26  C   UNL     1      25.833  44.159  54.280  1.00  0.00     0.042 C 
HETATM   27  C   UNL     1      27.204  44.510  54.859  1.00  0.00     0.088 C 
HETATM   28  C   UNL     1      27.283  46.031  55.031  1.00  0.00     0.042 C 
HETATM   29  C   UNL     1      27.050  46.776  53.719  1.00  0.00     0.235 C 
BRANCH  27  30
HETATM   30  C   UNL     1      28.347  44.016  53.981  1.00  0.00     0.263 C 
HETATM   31  O   UNL     1      28.370  44.150  52.765  1.00  0.00    -0.265 OA
BRANCH  30  32
HETATM   32  O   UNL     1      29.283  43.366  54.716  1.00  0.00    -0.322 OA
BRANCH  32  33
HETATM   33  C   UNL     1      30.125  44.198  55.535  1.00  0.00     0.174 C 
HETATM   34  C   UNL     1      31.121  43.339  56.294  1.00  0.00     0.034 C 
ENDBRANCH  32  33
ENDBRANCH  30  32
ENDBRANCH  27  30
ENDBRANCH  22  23
ENDBRANCH  21  22
ENDBRANCH   2  21
TORSDOF 10
ENDMDL
MODEL 8
REMARK VINA RESULT:      -7.4      3.349      8.677
REMARK  10 active torsions:
REMARK  status: ('A' for Active; 'I' for Inactive)
REMARK    1  A    between atoms: C_2  and  O_3 
REMARK    2  A    between atoms: O_3  and  C_4 
REMARK    3  A    between atoms: C_4  and  C_5 
REMARK    4  A    between atoms: C_10  and  N_11 
REMARK       I    between atoms: N_11  and  C_12 
REMARK    5  A    between atoms: C_12  and  C_13 
REMARK    6  A    between atoms: C_13  and  C_14 
REMARK    7  A    between atoms: C_14  and  N_15 
REMARK    8  A    between atoms: C_19  and  C_20 
REMARK    9  A    between atoms: C_20  and  O_21 
REMARK   10  A    between atoms: O_21  and  C_22 
ROOT
HETATM    1  N   UNL     1      23.648  45.094  50.513  1.00  0.00    -0.324 N 
HETATM    2  C   UNL     1      23.353  43.858  50.046  1.00  0.00     0.223 C 
HETATM    3  O   UNL     1      22.643  43.123  50.739  1.00  0.00    -0.273 OA
HETATM    4  H   UNL     1      23.210  45.225  51.430  1.00  0.00     0.169 HD
ENDROOT
BRANCH   1   5
HETATM    5  C   UNL     1      24.403  46.189  50.093  1.00  0.00     0.080 A 
HETATM    6  C   UNL     1      25.793  46.072  50.149  1.00  0.00     0.137 A 
HETATM    7  N   UNL     1      26.335  47.222  49.644  1.00  0.00    -0.349 N 
HETATM    8  H   UNL     1      27.331  47.391  49.561  1.00  0.00     0.166 HD
HETATM    9  C   UNL     1      25.355  48.113  49.299  1.00  0.00     0.045 A 
HETATM   10  C   UNL     1      24.120  47.514  49.588  1.00  0.00     0.021 A 
HETATM   11  C   UNL     1      25.501  49.402  48.765  1.00  0.00     0.032 A 
HETATM   12  C   UNL     1      22.983  48.317  49.336  1.00  0.00     0.035 A 
HETATM   13  C   UNL     1      23.111  49.612  48.813  1.00  0.00     0.012 A 
HETATM   14  C   UNL     1      24.351  50.149  48.522  1.00  0.00     0.021 A 
HETATM   15 BR   UNL     1      21.545  50.635  48.510  1.00  0.00    -0.051 Br
BRANCH   6  16
HETATM   16  C   UNL     1      26.597  44.973  50.638  1.00  0.00     0.312 C 
HETATM   17  O   UNL     1      27.502  44.449  50.003  1.00  0.00    -0.258 OA
BRANCH  16  18
HETATM   18  O   UNL     1      26.181  44.607  51.881  1.00  0.00    -0.317 OA
BRANCH  18  19
HETATM   19  C   UNL     1      26.800  45.304  52.974  1.00  0.00     0.175 C 
HETATM   20  C   UNL     1      27.916  44.465  53.566  1.00  0.00     0.034 C 
ENDBRANCH  18  19
ENDBRANCH  16  18
ENDBRANCH   6  16
ENDBRANCH   1   5
BRANCH   2  21
HETATM   21  C   UNL     1      23.850  43.357  48.725  1.00  0.00     0.131 C 
BRANCH  21  22
HETATM   22  C   UNL     1      24.375  41.936  48.891  1.00  0.00     0.244 C 
BRANCH  22  23
HETATM   23  N   UNL     1      25.906  41.850  48.829  1.00  0.00    -0.071 N 
HETATM   24  H   UNL     1      26.264  42.814  48.884  1.00  0.00     0.279 HD
HETATM   25  C   UNL     1      26.392  41.119  50.069  1.00  0.00     0.235 C 
HETATM   26  C   UNL     1      27.907  40.990  50.061  1.00  0.00     0.042 C 
HETATM   27  C   UNL     1      28.408  40.289  48.798  1.00  0.00     0.088 C 
HETATM   28  C   UNL     1      27.935  41.089  47.579  1.00  0.00     0.042 C 
HETATM   29  C   UNL     1      26.417  41.243  47.540  1.00  0.00     0.235 C 
BRANCH  27  30
HETATM   30  C   UNL     1      27.923  38.847  48.705  1.00  0.00     0.263 C 
HETATM   31  O   UNL     1      27.551  38.326  47.663  1.00  0.00    -0.265 OA
BRANCH  30  32
HETATM   32  O   UNL     1      27.902  38.259  49.927  1.00  0.00    -0.322 OA
BRANCH  32  33
HETATM   33  C   UNL     1      28.911  37.258  50.157  1.00  0.00     0.174 C 
HETATM   34  C   UNL     1      29.999  37.816  51.058  1.00  0.00     0.034 C 
ENDBRANCH  32  33
ENDBRANCH  30  32
ENDBRANCH  27  30
ENDBRANCH  22  23
ENDBRANCH  21  22
ENDBRANCH   2  21
TORSDOF 10
ENDMDL
MODEL 9
REMARK VINA RESULT:      -7.4      3.101      7.775
REMARK  10 active torsions:
REMARK  status: ('A' for Active; 'I' for Inactive)
REMARK    1  A    between atoms: C_2  and  O_3 
REMARK    2  A    between atoms: O_3  and  C_4 
REMARK    3  A    between atoms: C_4  and  C_5 
REMARK    4  A    between atoms: C_10  and  N_11 
REMARK       I    between atoms: N_11  and  C_12 
REMARK    5  A    between atoms: C_12  and  C_13 
REMARK    6  A    between atoms: C_13  and  C_14 
REMARK    7  A    between atoms: C_14  and  N_15 
REMARK    8  A    between atoms: C_19  and  C_20 
REMARK    9  A    between atoms: C_20  and  O_21 
REMARK   10  A    between atoms: O_21  and  C_22 
ROOT
HETATM    1  N   UNL     1      27.135  42.343  52.985  1.00  0.00    -0.324 N 
HETATM    2  C   UNL     1      27.203  41.781  51.756  1.00  0.00     0.223 C 
HETATM    3  O   UNL     1      26.771  40.633  51.611  1.00  0.00    -0.273 OA
HETATM    4  H   UNL     1      26.712  41.679  53.641  1.00  0.00     0.169 HD
ENDROOT
BRANCH   1   5
HETATM    5  C   UNL     1      27.513  43.548  53.577  1.00  0.00     0.080 A 
HETATM    6  C   UNL     1      26.764  44.683  53.262  1.00  0.00     0.137 A 
HETATM    7  N   UNL     1      27.262  45.732  53.986  1.00  0.00    -0.349 N 
HETATM    8  H   UNL     1      26.889  46.674  53.951  1.00  0.00     0.166 HD
HETATM    9  C   UNL     1      28.340  45.342  54.733  1.00  0.00     0.045 A 
HETATM   10  C   UNL     1      28.551  43.977  54.488  1.00  0.00     0.021 A 
HETATM   11  C   UNL     1      29.132  46.122  55.589  1.00  0.00     0.032 A 
HETATM   12  C   UNL     1      29.667  43.409  55.146  1.00  0.00     0.035 A 
HETATM   13  C   UNL     1      30.476  44.175  55.998  1.00  0.00     0.012 A 
HETATM   14  C   UNL     1      30.211  45.513  56.226  1.00  0.00     0.021 A 
HETATM   15 BR   UNL     1      31.958  43.349  56.839  1.00  0.00    -0.051 Br
BRANCH   6  16
HETATM   16  C   UNL     1      25.651  44.817  52.348  1.00  0.00     0.312 C 
HETATM   17  O   UNL     1      24.607  44.187  52.441  1.00  0.00    -0.258 OA
BRANCH  16  18
HETATM   18  O   UNL     1      25.952  45.721  51.376  1.00  0.00    -0.317 OA
BRANCH  18  19
HETATM   19  C   UNL     1      25.094  46.871  51.308  1.00  0.00     0.175 C 
HETATM   20  C   UNL     1      24.311  46.866  50.009  1.00  0.00     0.034 C 
ENDBRANCH  18  19
ENDBRANCH  16  18
ENDBRANCH   6  16
ENDBRANCH   1   5
BRANCH   2  21
HETATM   21  C   UNL     1      27.775  42.499  50.573  1.00  0.00     0.131 C 
BRANCH  21  22
HETATM   22  C   UNL     1      26.667  42.753  49.556  1.00  0.00     0.244 C 
BRANCH  22  23
HETATM   23  N   UNL     1      26.662  41.735  48.407  1.00  0.00    -0.071 N 
HETATM   24  H   UNL     1      26.528  42.266  47.535  1.00  0.00     0.279 HD
HETATM   25  C   UNL     1      28.038  41.094  48.335  1.00  0.00     0.235 C 
HETATM   26  C   UNL     1      28.095  40.063  47.219  1.00  0.00     0.042 C 
HETATM   27  C   UNL     1      27.015  38.992  47.383  1.00  0.00     0.088 C 
HETATM   28  C   UNL     1      25.647  39.682  47.401  1.00  0.00     0.042 C 
HETATM   29  C   UNL     1      25.538  40.726  48.509  1.00  0.00     0.235 C 
BRANCH  27  30
HETATM   30  C   UNL     1      27.208  38.165  48.648  1.00  0.00     0.263 C 
HETATM   31  O   UNL     1      28.143  38.322  49.421  1.00  0.00    -0.265 OA
BRANCH  30  32
HETATM   32  O   UNL     1      26.251  37.210  48.758  1.00  0.00    -0.322 OA
BRANCH  32  33
HETATM   33  C   UNL     1      26.358  36.109  47.837  1.00  0.00     0.174 C 
HETATM   34  C   UNL     1      25.002  35.815  47.220  1.00  0.00     0.034 C 
ENDBRANCH  32  33
ENDBRANCH  30  32
ENDBRANCH  27  30
ENDBRANCH  22  23
ENDBRANCH  21  22
ENDBRANCH   2  21
TORSDOF 10
ENDMDL
MODEL 10
REMARK VINA RESULT:      -7.3      3.278      5.199
REMARK  10 active torsions:
REMARK  status: ('A' for Active; 'I' for Inactive)
REMARK    1  A    between atoms: C_2  and  O_3 
REMARK    2  A    between atoms: O_3  and  C_4 
REMARK    3  A    between atoms: C_4  and  C_5 
REMARK    4  A    between atoms: C_10  and  N_11 
REMARK       I    between atoms: N_11  and  C_12 
REMARK    5  A    between atoms: C_12  and  C_13 
REMARK    6  A    between atoms: C_13  and  C_14 
REMARK    7  A    between atoms: C_14  and  N_15 
REMARK    8  A    between atoms: C_19  and  C_20 
REMARK    9  A    between atoms: C_20  and  O_21 
REMARK   10  A    between atoms: O_21  and  C_22 
ROOT
HETATM    1  N   UNL     1      24.304  44.897  50.356  1.00  0.00    -0.324 N 
HETATM    2  C   UNL     1      23.185  44.352  49.823  1.00  0.00     0.223 C 
HETATM    3  O   UNL     1      22.606  43.464  50.457  1.00  0.00    -0.273 OA
HETATM    4  H   UNL     1      24.505  44.451  51.256  1.00  0.00     0.169 HD
ENDROOT
BRANCH   1   5
HETATM    5  C   UNL     1      25.244  45.859  49.986  1.00  0.00     0.080 A 
HETATM    6  C   UNL     1      26.589  45.486  50.013  1.00  0.00     0.137 A 
HETATM    7  N   UNL     1      27.330  46.546  49.564  1.00  0.00    -0.349 N 
HETATM    8  H   UNL     1      28.339  46.535  49.475  1.00  0.00     0.166 HD
HETATM    9  C   UNL     1      26.528  47.620  49.287  1.00  0.00     0.045 A 
HETATM   10  C   UNL     1      25.206  47.241  49.562  1.00  0.00     0.021 A 
HETATM   11  C   UNL     1      26.905  48.889  48.825  1.00  0.00     0.032 A 
HETATM   12  C   UNL     1      24.234  48.252  49.376  1.00  0.00     0.035 A 
HETATM   13  C   UNL     1      24.593  49.530  48.924  1.00  0.00     0.012 A 
HETATM   14  C   UNL     1      25.910  49.847  48.644  1.00  0.00     0.021 A 
HETATM   15 BR   UNL     1      23.240  50.837  48.706  1.00  0.00    -0.051 Br
BRANCH   6  16
HETATM   16  C   UNL     1      27.181  44.232  50.425  1.00  0.00     0.312 C 
HETATM   17  O   UNL     1      27.237  43.235  49.719  1.00  0.00    -0.258 OA
BRANCH  16  18
HETATM   18  O   UNL     1      27.636  44.330  51.704  1.00  0.00    -0.317 OA
BRANCH  18  19
HETATM   19  C   UNL     1      26.882  43.607  52.689  1.00  0.00     0.175 C 
HETATM   20  C   UNL     1      27.816  42.939  53.679  1.00  0.00     0.034 C 
ENDBRANCH  18  19
ENDBRANCH  16  18
ENDBRANCH   6  16
ENDBRANCH   1   5
BRANCH   2  21
HETATM   21  C   UNL     1      22.626  44.788  48.504  1.00  0.00     0.131 C 
BRANCH  21  22
HETATM   22  C   UNL     1      21.103  44.787  48.579  1.00  0.00     0.244 C 
BRANCH  22  23
HETATM   23  N   UNL     1      20.465  45.981  47.855  1.00  0.00    -0.071 N 
HETATM   24  H   UNL     1      20.491  45.770  46.848  1.00  0.00     0.279 HD
HETATM   25  C   UNL     1      19.003  46.056  48.262  1.00  0.00     0.235 C 
HETATM   26  C   UNL     1      18.315  47.231  47.584  1.00  0.00     0.042 C 
HETATM   27  C   UNL     1      19.022  48.552  47.888  1.00  0.00     0.088 C 
HETATM   28  C   UNL     1      20.476  48.443  47.417  1.00  0.00     0.042 C 
HETATM   29  C   UNL     1      21.213  47.279  48.073  1.00  0.00     0.235 C 
BRANCH  27  30
HETATM   30  C   UNL     1      18.970  48.909  49.369  1.00  0.00     0.263 C 
HETATM   31  O   UNL     1      18.261  48.328  50.178  1.00  0.00    -0.265 OA
BRANCH  30  32
HETATM   32  O   UNL     1      19.757  49.980  49.641  1.00  0.00    -0.322 OA
BRANCH  32  33
HETATM   33  C   UNL     1      19.076  51.243  49.752  1.00  0.00     0.174 C 
HETATM   34  C   UNL     1      19.521  52.171  48.635  1.00  0.00     0.034 C 
ENDBRANCH  32  33
ENDBRANCH  30  32
ENDBRANCH  27  30
ENDBRANCH  22  23
ENDBRANCH  21  22
ENDBRANCH   2  21
TORSDOF 10
ENDMDL
