MODEL 1
REMARK VINA RESULT:      -9.7      0.000      0.000
REMARK  3 active torsions:
REMARK  status: ('A' for Active; 'I' for Inactive)
REMARK    1  A    between atoms: C_7  and  C_8 
REMARK    2  A    between atoms: N_9  and  C_11 
REMARK    3  A    between atoms: C_11  and  C_12 
ROOT
HETATM    1  C   UNL     1      25.173  45.702  51.838  1.00  0.00     0.238 C 
HETATM    2  N   UNL     1      25.639  46.265  50.503  1.00  0.00    -0.056 N 
HETATM    3  H   UNL     1      24.780  46.571  50.033  1.00  0.00     0.281 HD
HETATM    4  C   UNL     1      26.271  45.257  49.577  1.00  0.00     0.236 C 
HETATM    5  C   UNL     1      25.334  44.082  49.356  1.00  0.00     0.028 C 
HETATM    6  C   UNL     1      24.917  43.434  50.667  1.00  0.00     0.004 C 
HETATM    7  C   UNL     1      24.300  44.461  51.608  1.00  0.00     0.040 C 
ENDROOT
BRANCH   2   8
HETATM    8  C   UNL     1      26.498  47.510  50.617  1.00  0.00     0.295 C 
BRANCH   8   9
HETATM    9  C   UNL     1      26.211  48.501  49.563  1.00  0.00     0.077 A 
HETATM   10  N   UNL     1      24.947  48.859  49.126  1.00  0.00    -0.155 N 
HETATM   11  C   UNL     1      25.119  49.762  48.073  1.00  0.00     0.732 A 
HETATM   12  C   UNL     1      23.680  48.459  49.540  1.00  0.00     0.117 A 
HETATM   13  N   UNL     1      24.050  50.258  47.389  1.00  0.00    -0.074 NA
HETATM   14  N   UNL     1      26.397  50.009  47.889  1.00  0.00    -0.072 NA
HETATM   15  C   UNL     1      22.877  49.881  47.793  1.00  0.00     0.138 A 
HETATM   16  C   UNL     1      22.597  48.941  48.913  1.00  0.00     0.038 A 
HETATM   17  C   UNL     1      27.071  49.288  48.824  1.00  0.00     0.164 A 
ENDBRANCH   8   9
ENDBRANCH   2   8
BRANCH   1  18
HETATM   18  C   UNL     1      26.269  45.478  52.833  1.00  0.00     0.041 A 
HETATM   19  N   UNL     1      26.423  46.327  53.913  1.00  0.00    -0.357 N 
HETATM   20  C   UNL     1      27.536  45.987  54.644  1.00  0.00     0.042 A 
HETATM   21  H   UNL     1      25.828  47.116  54.143  1.00  0.00     0.166 HD
HETATM   22  C   UNL     1      28.069  44.836  54.071  1.00  0.00    -0.008 A 
HETATM   23  C   UNL     1      28.095  46.597  55.772  1.00  0.00     0.030 A 
HETATM   24  C   UNL     1      29.212  44.255  54.648  1.00  0.00     0.014 A 
HETATM   25  C   UNL     1      27.251  44.511  52.955  1.00  0.00     0.040 A 
HETATM   26  C   UNL     1      29.788  44.853  55.774  1.00  0.00     0.001 A 
HETATM   27  C   UNL     1      29.236  46.008  56.325  1.00  0.00     0.002 A 
ENDBRANCH   1  18
TORSDOF 3
ENDMDL
MODEL 2
REMARK VINA RESULT:      -9.2      1.490      2.565
REMARK  3 active torsions:
REMARK  status: ('A' for Active; 'I' for Inactive)
REMARK    1  A    between atoms: C_7  and  C_8 
REMARK    2  A    between atoms: N_9  and  C_11 
REMARK    3  A    between atoms: C_11  and  C_12 
ROOT
HETATM    1  C   UNL     1      26.014  43.931  52.210  1.00  0.00     0.238 C 
HETATM    2  N   UNL     1      25.907  44.900  51.041  1.00  0.00    -0.056 N 
HETATM    3  H   UNL     1      24.990  44.707  50.623  1.00  0.00     0.281 HD
HETATM    4  C   UNL     1      26.911  44.674  49.939  1.00  0.00     0.236 C 
HETATM    5  C   UNL     1      26.839  43.240  49.444  1.00  0.00     0.028 C 
HETATM    6  C   UNL     1      27.033  42.240  50.573  1.00  0.00     0.004 C 
HETATM    7  C   UNL     1      26.032  42.486  51.694  1.00  0.00     0.040 C 
ENDROOT
BRANCH   2   8
HETATM    8  C   UNL     1      25.863  46.362  51.444  1.00  0.00     0.295 C 
BRANCH   8   9
HETATM    9  C   UNL     1      25.217  47.216  50.431  1.00  0.00     0.077 A 
HETATM   10  N   UNL     1      25.857  48.190  49.682  1.00  0.00    -0.155 N 
HETATM   11  C   UNL     1      24.879  48.814  48.903  1.00  0.00     0.732 A 
HETATM   12  C   UNL     1      27.189  48.590  49.634  1.00  0.00     0.117 A 
HETATM   13  N   UNL     1      25.189  49.864  48.093  1.00  0.00    -0.074 NA
HETATM   14  N   UNL     1      23.711  48.244  49.095  1.00  0.00    -0.072 NA
HETATM   15  C   UNL     1      26.436  50.219  48.055  1.00  0.00     0.138 A 
HETATM   16  C   UNL     1      27.546  49.604  48.832  1.00  0.00     0.038 A 
HETATM   17  C   UNL     1      23.912  47.235  49.984  1.00  0.00     0.164 A 
ENDBRANCH   8   9
ENDBRANCH   2   8
BRANCH   1  18
HETATM   18  C   UNL     1      27.127  44.232  53.165  1.00  0.00     0.041 A 
HETATM   19  N   UNL     1      28.229  43.402  53.246  1.00  0.00    -0.357 N 
HETATM   20  C   UNL     1      29.080  43.819  54.242  1.00  0.00     0.042 A 
HETATM   21  H   UNL     1      28.400  42.578  52.680  1.00  0.00     0.166 HD
HETATM   22  C   UNL     1      28.557  44.998  54.763  1.00  0.00    -0.008 A 
HETATM   23  C   UNL     1      30.274  43.254  54.703  1.00  0.00     0.030 A 
HETATM   24  C   UNL     1      29.255  45.657  55.791  1.00  0.00     0.014 A 
HETATM   25  C   UNL     1      27.349  45.263  54.062  1.00  0.00     0.040 A 
HETATM   26  C   UNL     1      30.449  45.105  56.268  1.00  0.00     0.001 A 
HETATM   27  C   UNL     1      30.948  43.920  55.730  1.00  0.00     0.002 A 
ENDBRANCH   1  18
TORSDOF 3
ENDMDL
MODEL 3
REMARK VINA RESULT:      -8.9      1.675      2.743
REMARK  3 active torsions:
REMARK  status: ('A' for Active; 'I' for Inactive)
REMARK    1  A    between atoms: C_7  and  C_8 
REMARK    2  A    between atoms: N_9  and  C_11 
REMARK    3  A    between atoms: C_11  and  C_12 
ROOT
HETATM    1  C   UNL     1      24.341  43.581  51.191  1.00  0.00     0.238 C 
HETATM    2  N   UNL     1      24.200  44.795  50.283  1.00  0.00    -0.056 N 
HETATM    3  H   UNL     1      23.189  44.909  50.151  1.00  0.00     0.281 HD
HETATM    4  C   UNL     1      24.773  44.620  48.899  1.00  0.00     0.236 C 
HETATM    5  C   UNL     1      24.178  43.390  48.233  1.00  0.00     0.028 C 
HETATM    6  C   UNL     1      24.380  42.138  49.071  1.00  0.00     0.004 C 
HETATM    7  C   UNL     1      23.821  42.327  50.475  1.00  0.00     0.040 C 
ENDROOT
BRANCH   2   8
HETATM    8  C   UNL     1      24.671  46.096  50.904  1.00  0.00     0.295 C 
BRANCH   8   9
HETATM    9  C   UNL     1      24.463  47.260  50.022  1.00  0.00     0.077 A 
HETATM   10  N   UNL     1      25.466  48.078  49.529  1.00  0.00    -0.155 N 
HETATM   11  C   UNL     1      24.842  49.098  48.806  1.00  0.00     0.732 A 
HETATM   12  C   UNL     1      26.850  48.029  49.670  1.00  0.00     0.117 A 
HETATM   13  N   UNL     1      25.566  50.104  48.239  1.00  0.00    -0.074 NA
HETATM   14  N   UNL     1      23.541  48.914  48.787  1.00  0.00    -0.072 NA
HETATM   15  C   UNL     1      26.854  50.038  48.374  1.00  0.00     0.138 A 
HETATM   16  C   UNL     1      27.605  48.984  49.108  1.00  0.00     0.038 A 
HETATM   17  C   UNL     1      23.300  47.769  49.480  1.00  0.00     0.164 A 
ENDBRANCH   8   9
ENDBRANCH   2   8
BRANCH   1  18
HETATM   18  C   UNL     1      25.705  43.403  51.780  1.00  0.00     0.041 A 
HETATM   19  N   UNL     1      25.945  43.711  53.106  1.00  0.00    -0.357 N 
HETATM   20  C   UNL     1      27.277  43.553  53.409  1.00  0.00     0.042 A 
HETATM   21  H   UNL     1      25.259  44.036  53.778  1.00  0.00     0.166 HD
HETATM   22  C   UNL     1      27.900  43.049  52.272  1.00  0.00    -0.008 A 
HETATM   23  C   UNL     1      27.966  43.800  54.601  1.00  0.00     0.030 A 
HETATM   24  C   UNL     1      29.278  42.768  52.319  1.00  0.00     0.014 A 
HETATM   25  C   UNL     1      26.902  42.932  51.267  1.00  0.00     0.040 A 
HETATM   26  C   UNL     1      29.984  43.012  53.501  1.00  0.00     0.001 A 
HETATM   27  C   UNL     1      29.335  43.521  54.624  1.00  0.00     0.002 A 
ENDBRANCH   1  18
TORSDOF 3
ENDMDL
MODEL 4
REMARK VINA RESULT:      -8.6      4.357      6.343
REMARK  3 active torsions:
REMARK  status: ('A' for Active; 'I' for Inactive)
REMARK    1  A    between atoms: C_7  and  C_8 
REMARK    2  A    between atoms: N_9  and  C_11 
REMARK    3  A    between atoms: C_11  and  C_12 
ROOT
HETATM    1  C   UNL     1      27.796  45.074  53.178  1.00  0.00     0.238 C 
HETATM    2  N   UNL     1      26.858  43.950  52.760  1.00  0.00    -0.056 N 
HETATM    3  H   UNL     1      26.446  44.266  51.875  1.00  0.00     0.281 HD
HETATM    4  C   UNL     1      25.694  43.719  53.690  1.00  0.00     0.236 C 
HETATM    5  C   UNL     1      24.916  45.008  53.892  1.00  0.00     0.028 C 
HETATM    6  C   UNL     1      25.803  46.134  54.397  1.00  0.00     0.004 C 
HETATM    7  C   UNL     1      26.991  46.348  53.467  1.00  0.00     0.040 C 
ENDROOT
BRANCH   2   8
HETATM    8  C   UNL     1      27.558  42.644  52.432  1.00  0.00     0.295 C 
BRANCH   8   9
HETATM    9  C   UNL     1      27.469  42.291  51.003  1.00  0.00     0.077 A 
HETATM   10  N   UNL     1      27.935  41.114  50.440  1.00  0.00    -0.155 N 
HETATM   11  C   UNL     1      27.728  41.210  49.062  1.00  0.00     0.732 A 
HETATM   12  C   UNL     1      28.533  39.993  51.008  1.00  0.00     0.117 A 
HETATM   13  N   UNL     1      28.137  40.223  48.218  1.00  0.00    -0.074 NA
HETATM   14  N   UNL     1      27.121  42.340  48.769  1.00  0.00    -0.072 NA
HETATM   15  C   UNL     1      28.686  39.183  48.765  1.00  0.00     0.138 A 
HETATM   16  C   UNL     1      28.930  38.985  50.219  1.00  0.00     0.038 A 
HETATM   17  C   UNL     1      26.911  42.984  49.948  1.00  0.00     0.164 A 
ENDBRANCH   8   9
ENDBRANCH   2   8
BRANCH   1  18
HETATM   18  C   UNL     1      28.747  44.713  54.275  1.00  0.00     0.041 A 
HETATM   19  N   UNL     1      28.836  45.491  55.414  1.00  0.00    -0.357 N 
HETATM   20  C   UNL     1      29.827  45.026  56.245  1.00  0.00     0.042 A 
HETATM   21  H   UNL     1      28.278  46.312  55.622  1.00  0.00     0.166 HD
HETATM   22  C   UNL     1      30.336  43.866  55.668  1.00  0.00    -0.008 A 
HETATM   23  C   UNL     1      30.293  45.531  57.463  1.00  0.00     0.030 A 
HETATM   24  C   UNL     1      31.357  43.166  56.336  1.00  0.00     0.014 A 
HETATM   25  C   UNL     1      29.634  43.664  54.450  1.00  0.00     0.040 A 
HETATM   26  C   UNL     1      31.840  43.658  57.554  1.00  0.00     0.001 A 
HETATM   27  C   UNL     1      31.314  44.824  58.106  1.00  0.00     0.002 A 
ENDBRANCH   1  18
TORSDOF 3
ENDMDL
MODEL 5
REMARK VINA RESULT:      -8.5      3.879      7.646
REMARK  3 active torsions:
REMARK  status: ('A' for Active; 'I' for Inactive)
REMARK    1  A    between atoms: C_7  and  C_8 
REMARK    2  A    between atoms: N_9  and  C_11 
REMARK    3  A    between atoms: C_11  and  C_12 
ROOT
HETATM    1  C   UNL     1      26.324  42.463  51.386  1.00  0.00     0.238 C 
HETATM    2  N   UNL     1      27.072  43.749  51.704  1.00  0.00    -0.056 N 
HETATM    3  H   UNL     1      26.428  44.291  52.291  1.00  0.00     0.281 HD
HETATM    4  C   UNL     1      27.366  44.623  50.511  1.00  0.00     0.236 C 
HETATM    5  C   UNL     1      26.085  44.930  49.754  1.00  0.00     0.028 C 
HETATM    6  C   UNL     1      25.353  43.665  49.338  1.00  0.00     0.004 C 
HETATM    7  C   UNL     1      25.079  42.775  50.544  1.00  0.00     0.040 C 
ENDROOT
BRANCH   2   8
HETATM    8  C   UNL     1      28.315  43.554  52.553  1.00  0.00     0.295 C 
BRANCH   8   9
HETATM    9  C   UNL     1      28.368  44.468  53.709  1.00  0.00     0.077 A 
HETATM   10  N   UNL     1      29.298  44.407  54.734  1.00  0.00    -0.155 N 
HETATM   11  C   UNL     1      28.951  45.393  55.660  1.00  0.00     0.732 A 
HETATM   12  C   UNL     1      30.389  43.568  54.941  1.00  0.00     0.117 A 
HETATM   13  N   UNL     1      29.649  45.547  56.820  1.00  0.00    -0.074 NA
HETATM   14  N   UNL     1      27.911  46.074  55.232  1.00  0.00    -0.072 NA
HETATM   15  C   UNL     1      30.667  44.763  56.992  1.00  0.00     0.138 A 
HETATM   16  C   UNL     1      31.122  43.698  56.056  1.00  0.00     0.038 A 
HETATM   17  C   UNL     1      27.578  45.555  54.021  1.00  0.00     0.164 A 
ENDBRANCH   8   9
ENDBRANCH   2   8
BRANCH   1  18
HETATM   18  C   UNL     1      27.175  41.378  50.805  1.00  0.00     0.041 A 
HETATM   19  N   UNL     1      27.816  40.469  51.626  1.00  0.00    -0.357 N 
HETATM   20  C   UNL     1      28.606  39.620  50.889  1.00  0.00     0.042 A 
HETATM   21  H   UNL     1      27.752  40.428  52.638  1.00  0.00     0.166 HD
HETATM   22  C   UNL     1      28.405  39.932  49.548  1.00  0.00    -0.008 A 
HETATM   23  C   UNL     1      29.461  38.594  51.305  1.00  0.00     0.030 A 
HETATM   24  C   UNL     1      29.083  39.186  48.566  1.00  0.00     0.014 A 
HETATM   25  C   UNL     1      27.487  41.016  49.506  1.00  0.00     0.040 A 
HETATM   26  C   UNL     1      29.946  38.159  48.964  1.00  0.00     0.001 A 
HETATM   27  C   UNL     1      30.131  37.871  50.314  1.00  0.00     0.002 A 
ENDBRANCH   1  18
TORSDOF 3
ENDMDL
MODEL 6
REMARK VINA RESULT:      -8.4      4.163      7.038
REMARK  3 active torsions:
REMARK  status: ('A' for Active; 'I' for Inactive)
REMARK    1  A    between atoms: C_7  and  C_8 
REMARK    2  A    between atoms: N_9  and  C_11 
REMARK    3  A    between atoms: C_11  and  C_12 
ROOT
HETATM    1  C   UNL     1      27.268  43.694  50.616  1.00  0.00     0.238 C 
HETATM    2  N   UNL     1      26.068  42.758  50.622  1.00  0.00    -0.056 N 
HETATM    3  H   UNL     1      25.775  42.700  49.640  1.00  0.00     0.281 HD
HETATM    4  C   UNL     1      24.867  43.273  51.374  1.00  0.00     0.236 C 
HETATM    5  C   UNL     1      24.466  44.643  50.854  1.00  0.00     0.028 C 
HETATM    6  C   UNL     1      25.617  45.634  50.918  1.00  0.00     0.004 C 
HETATM    7  C   UNL     1      26.836  45.099  50.176  1.00  0.00     0.040 C 
ENDROOT
BRANCH   2   8
HETATM    8  C   UNL     1      26.391  41.332  51.027  1.00  0.00     0.295 C 
BRANCH   8   9
HETATM    9  C   UNL     1      26.819  40.497  49.889  1.00  0.00     0.077 A 
HETATM   10  N   UNL     1      27.899  39.628  49.897  1.00  0.00    -0.155 N 
HETATM   11  C   UNL     1      28.005  39.097  48.609  1.00  0.00     0.732 A 
HETATM   12  C   UNL     1      28.797  39.282  50.902  1.00  0.00     0.117 A 
HETATM   13  N   UNL     1      29.014  38.244  48.280  1.00  0.00    -0.074 NA
HETATM   14  N   UNL     1      27.030  39.546  47.849  1.00  0.00    -0.072 NA
HETATM   15  C   UNL     1      29.837  37.926  49.231  1.00  0.00     0.138 A 
HETATM   16  C   UNL     1      29.793  38.426  50.632  1.00  0.00     0.038 A 
HETATM   17  C   UNL     1      26.271  40.359  48.630  1.00  0.00     0.164 A 
ENDBRANCH   8   9
ENDBRANCH   2   8
BRANCH   1  18
HETATM   18  C   UNL     1      28.064  43.690  51.884  1.00  0.00     0.041 A 
HETATM   19  N   UNL     1      27.765  44.572  52.906  1.00  0.00    -0.357 N 
HETATM   20  C   UNL     1      28.671  44.451  53.933  1.00  0.00     0.042 A 
HETATM   21  H   UNL     1      27.006  45.244  52.912  1.00  0.00     0.166 HD
HETATM   22  C   UNL     1      29.528  43.405  53.605  1.00  0.00    -0.008 A 
HETATM   23  C   UNL     1      28.781  45.172  55.126  1.00  0.00     0.030 A 
HETATM   24  C   UNL     1      30.545  43.050  54.509  1.00  0.00     0.014 A 
HETATM   25  C   UNL     1      29.121  42.918  52.333  1.00  0.00     0.040 A 
HETATM   26  C   UNL     1      30.674  43.763  55.706  1.00  0.00     0.001 A 
HETATM   27  C   UNL     1      29.804  44.808  56.007  1.00  0.00     0.002 A 
ENDBRANCH   1  18
TORSDOF 3
ENDMDL
MODEL 7
REMARK VINA RESULT:      -8.3      2.646      3.881
REMARK  3 active torsions:
REMARK  status: ('A' for Active; 'I' for Inactive)
REMARK    1  A    between atoms: C_7  and  C_8 
REMARK    2  A    between atoms: N_9  and  C_11 
REMARK    3  A    between atoms: C_11  and  C_12 
ROOT
HETATM    1  C   UNL     1      26.218  41.556  50.800  1.00  0.00     0.238 C 
HETATM    2  N   UNL     1      26.358  42.184  49.421  1.00  0.00    -0.056 N 
HETATM    3  H   UNL     1      25.465  41.994  48.953  1.00  0.00     0.281 HD
HETATM    4  C   UNL     1      27.416  41.561  48.546  1.00  0.00     0.236 C 
HETATM    5  C   UNL     1      27.185  40.065  48.423  1.00  0.00     0.028 C 
HETATM    6  C   UNL     1      27.130  39.385  49.782  1.00  0.00     0.004 C 
HETATM    7  C   UNL     1      26.075  40.033  50.671  1.00  0.00     0.040 C 
ENDROOT
BRANCH   2   8
HETATM    8  C   UNL     1      26.487  43.696  49.435  1.00  0.00     0.295 C 
BRANCH   8   9
HETATM    9  C   UNL     1      25.202  44.382  49.205  1.00  0.00     0.077 A 
HETATM   10  N   UNL     1      24.982  45.741  49.361  1.00  0.00    -0.155 N 
HETATM   11  C   UNL     1      23.624  45.966  49.123  1.00  0.00     0.732 A 
HETATM   12  C   UNL     1      25.840  46.780  49.708  1.00  0.00     0.117 A 
HETATM   13  N   UNL     1      23.082  47.208  49.255  1.00  0.00    -0.074 NA
HETATM   14  N   UNL     1      23.029  44.844  48.781  1.00  0.00    -0.072 NA
HETATM   15  C   UNL     1      23.897  48.166  49.572  1.00  0.00     0.138 A 
HETATM   16  C   UNL     1      25.357  48.025  49.827  1.00  0.00     0.038 A 
HETATM   17  C   UNL     1      23.989  43.881  48.777  1.00  0.00     0.164 A 
ENDBRANCH   8   9
ENDBRANCH   2   8
BRANCH   1  18
HETATM   18  C   UNL     1      27.270  41.971  51.780  1.00  0.00     0.041 A 
HETATM   19  N   UNL     1      26.963  42.825  52.823  1.00  0.00    -0.357 N 
HETATM   20  C   UNL     1      28.091  43.138  53.544  1.00  0.00     0.042 A 
HETATM   21  H   UNL     1      26.047  43.207  53.034  1.00  0.00     0.166 HD
HETATM   22  C   UNL     1      29.140  42.399  53.006  1.00  0.00    -0.008 A 
HETATM   23  C   UNL     1      28.254  43.998  54.635  1.00  0.00     0.030 A 
HETATM   24  C   UNL     1      30.418  42.513  53.583  1.00  0.00     0.014 A 
HETATM   25  C   UNL     1      28.609  41.651  51.921  1.00  0.00     0.040 A 
HETATM   26  C   UNL     1      30.602  43.371  54.672  1.00  0.00     0.001 A 
HETATM   27  C   UNL     1      29.534  44.102  55.188  1.00  0.00     0.002 A 
ENDBRANCH   1  18
TORSDOF 3
ENDMDL
MODEL 8
REMARK VINA RESULT:      -8.2      1.479      7.055
REMARK  3 active torsions:
REMARK  status: ('A' for Active; 'I' for Inactive)
REMARK    1  A    between atoms: C_7  and  C_8 
REMARK    2  A    between atoms: N_9  and  C_11 
REMARK    3  A    between atoms: C_11  and  C_12 
ROOT
HETATM    1  C   UNL     1      26.639  45.578  50.949  1.00  0.00     0.238 C 
HETATM    2  N   UNL     1      26.009  44.857  52.132  1.00  0.00    -0.056 N 
HETATM    3  H   UNL     1      26.788  44.369  52.588  1.00  0.00     0.281 HD
HETATM    4  C   UNL     1      25.016  43.784  51.764  1.00  0.00     0.236 C 
HETATM    5  C   UNL     1      25.649  42.783  50.813  1.00  0.00     0.028 C 
HETATM    6  C   UNL     1      26.211  43.456  49.571  1.00  0.00     0.004 C 
HETATM    7  C   UNL     1      27.196  44.556  49.949  1.00  0.00     0.040 C 
ENDROOT
BRANCH   2   8
HETATM    8  C   UNL     1      25.441  45.780  53.194  1.00  0.00     0.295 C 
BRANCH   8   9
HETATM    9  C   UNL     1      26.473  46.305  54.108  1.00  0.00     0.077 A 
HETATM   10  N   UNL     1      27.605  45.618  54.514  1.00  0.00    -0.155 N 
HETATM   11  C   UNL     1      28.271  46.434  55.431  1.00  0.00     0.732 A 
HETATM   12  C   UNL     1      28.088  44.356  54.179  1.00  0.00     0.117 A 
HETATM   13  N   UNL     1      29.403  46.010  56.059  1.00  0.00    -0.074 NA
HETATM   14  N   UNL     1      27.645  47.583  55.558  1.00  0.00    -0.072 NA
HETATM   15  C   UNL     1      29.843  44.835  55.729  1.00  0.00     0.138 A 
HETATM   16  C   UNL     1      29.212  43.905  54.753  1.00  0.00     0.038 A 
HETATM   17  C   UNL     1      26.576  47.538  54.719  1.00  0.00     0.164 A 
ENDBRANCH   8   9
ENDBRANCH   2   8
BRANCH   1  18
HETATM   18  C   UNL     1      25.762  46.610  50.313  1.00  0.00     0.041 A 
HETATM   19  N   UNL     1      26.313  47.675  49.624  1.00  0.00    -0.357 N 
HETATM   20  C   UNL     1      25.332  48.539  49.200  1.00  0.00     0.042 A 
HETATM   21  H   UNL     1      27.301  47.836  49.464  1.00  0.00     0.166 HD
HETATM   22  C   UNL     1      24.108  47.976  49.549  1.00  0.00    -0.008 A 
HETATM   23  C   UNL     1      25.437  49.758  48.522  1.00  0.00     0.030 A 
HETATM   24  C   UNL     1      22.925  48.653  49.202  1.00  0.00     0.014 A 
HETATM   25  C   UNL     1      24.388  46.755  50.220  1.00  0.00     0.040 A 
HETATM   26  C   UNL     1      23.009  49.875  48.528  1.00  0.00     0.001 A 
HETATM   27  C   UNL     1      24.248  50.418  48.195  1.00  0.00     0.002 A 
ENDBRANCH   1  18
TORSDOF 3
ENDMDL
MODEL 9
REMARK VINA RESULT:      -8.0     10.925     13.257
REMARK  3 active torsions:
REMARK  status: ('A' for Active; 'I' for Inactive)
REMARK    1  A    between atoms: C_7  and  C_8 
REMARK    2  A    between atoms: N_9  and  C_11 
REMARK    3  A    between atoms: C_11  and  C_12 
ROOT
HETATM    1  C   UNL     1      28.793  50.538  41.568  1.00  0.00     0.238 C 
HETATM    2  N   UNL     1      30.150  51.165  41.850  1.00  0.00    -0.056 N 
HETATM    3  H   UNL     1      29.972  51.860  42.584  1.00  0.00     0.281 HD
HETATM    4  C   UNL     1      30.743  51.936  40.697  1.00  0.00     0.236 C 
HETATM    5  C   UNL     1      29.764  52.992  40.210  1.00  0.00     0.028 C 
HETATM    6  C   UNL     1      28.421  52.389  39.831  1.00  0.00     0.004 C 
HETATM    7  C   UNL     1      27.837  51.592  40.991  1.00  0.00     0.040 C 
ENDROOT
BRANCH   2   8
HETATM    8  C   UNL     1      31.168  50.209  42.443  1.00  0.00     0.295 C 
BRANCH   8   9
HETATM    9  C   UNL     1      32.374  50.895  42.943  1.00  0.00     0.077 A 
HETATM   10  N   UNL     1      33.638  50.799  42.385  1.00  0.00    -0.155 N 
HETATM   11  C   UNL     1      34.502  51.532  43.201  1.00  0.00     0.732 A 
HETATM   12  C   UNL     1      34.100  50.122  41.260  1.00  0.00     0.117 A 
HETATM   13  N   UNL     1      35.839  51.584  42.944  1.00  0.00    -0.074 NA
HETATM   14  N   UNL     1      33.832  52.105  44.176  1.00  0.00    -0.072 NA
HETATM   15  C   UNL     1      36.251  50.955  41.888  1.00  0.00     0.138 A 
HETATM   16  C   UNL     1      35.404  50.164  40.953  1.00  0.00     0.038 A 
HETATM   17  C   UNL     1      32.526  51.767  44.002  1.00  0.00     0.164 A 
ENDBRANCH   8   9
ENDBRANCH   2   8
BRANCH   1  18
HETATM   18  C   UNL     1      28.846  49.281  40.758  1.00  0.00     0.041 A 
HETATM   19  N   UNL     1      28.206  48.135  41.192  1.00  0.00    -0.357 N 
HETATM   20  C   UNL     1      28.458  47.085  40.342  1.00  0.00     0.042 A 
HETATM   21  H   UNL     1      27.646  48.046  42.033  1.00  0.00     0.166 HD
HETATM   22  C   UNL     1      29.210  47.585  39.282  1.00  0.00    -0.008 A 
HETATM   23  C   UNL     1      28.062  45.746  40.420  1.00  0.00     0.030 A 
HETATM   24  C   UNL     1      29.585  46.714  38.243  1.00  0.00     0.014 A 
HETATM   25  C   UNL     1      29.423  48.967  39.539  1.00  0.00     0.040 A 
HETATM   26  C   UNL     1      29.202  45.370  38.307  1.00  0.00     0.001 A 
HETATM   27  C   UNL     1      28.453  44.896  39.382  1.00  0.00     0.002 A 
ENDBRANCH   1  18
TORSDOF 3
ENDMDL
MODEL 10
REMARK VINA RESULT:      -7.9      4.103      9.006
REMARK  3 active torsions:
REMARK  status: ('A' for Active; 'I' for Inactive)
REMARK    1  A    between atoms: C_7  and  C_8 
REMARK    2  A    between atoms: N_9  and  C_11 
REMARK    3  A    between atoms: C_11  and  C_12 
ROOT
HETATM    1  C   UNL     1      19.989  48.381  47.008  1.00  0.00     0.238 C 
HETATM    2  N   UNL     1      20.854  47.696  48.055  1.00  0.00    -0.056 N 
HETATM    3  H   UNL     1      21.631  47.284  47.527  1.00  0.00     0.281 HD
HETATM    4  C   UNL     1      20.192  46.545  48.769  1.00  0.00     0.236 C 
HETATM    5  C   UNL     1      19.675  45.529  47.765  1.00  0.00     0.028 C 
HETATM    6  C   UNL     1      18.732  46.159  46.753  1.00  0.00     0.004 C 
HETATM    7  C   UNL     1      19.398  47.337  46.051  1.00  0.00     0.040 C 
ENDROOT
BRANCH   2   8
HETATM    8  C   UNL     1      21.505  48.645  49.045  1.00  0.00     0.295 C 
BRANCH   8   9
HETATM    9  C   UNL     1      22.766  49.221  48.541  1.00  0.00     0.077 A 
HETATM   10  N   UNL     1      24.036  48.806  48.908  1.00  0.00    -0.155 N 
HETATM   11  C   UNL     1      24.943  49.655  48.270  1.00  0.00     0.732 A 
HETATM   12  C   UNL     1      24.465  47.786  49.752  1.00  0.00     0.117 A 
HETATM   13  N   UNL     1      26.284  49.536  48.478  1.00  0.00    -0.074 NA
HETATM   14  N   UNL     1      24.305  50.512  47.504  1.00  0.00    -0.072 NA
HETATM   15  C   UNL     1      26.667  48.576  49.261  1.00  0.00     0.138 A 
HETATM   16  C   UNL     1      25.777  47.615  49.968  1.00  0.00     0.038 A 
HETATM   17  C   UNL     1      22.980  50.225  47.620  1.00  0.00     0.164 A 
ENDBRANCH   8   9
ENDBRANCH   2   8
BRANCH   1  18
HETATM   18  C   UNL     1      18.965  49.319  47.566  1.00  0.00     0.041 A 
HETATM   19  N   UNL     1      19.347  50.510  48.155  1.00  0.00    -0.357 N 
HETATM   20  C   UNL     1      18.257  51.169  48.672  1.00  0.00     0.042 A 
HETATM   21  H   UNL     1      20.295  50.860  48.234  1.00  0.00     0.166 HD
HETATM   22  C   UNL     1      17.129  50.427  48.333  1.00  0.00    -0.008 A 
HETATM   23  C   UNL     1      18.185  52.367  49.390  1.00  0.00     0.030 A 
HETATM   24  C   UNL     1      15.862  50.899  48.722  1.00  0.00     0.014 A 
HETATM   25  C   UNL     1      17.582  49.286  47.617  1.00  0.00     0.040 A 
HETATM   26  C   UNL     1      15.771  52.093  49.445  1.00  0.00     0.001 A 
HETATM   27  C   UNL     1      16.917  52.813  49.774  1.00  0.00     0.002 A 
ENDBRANCH   1  18
TORSDOF 3
ENDMDL
