MODEL 1
REMARK VINA RESULT:      -9.2      0.000      0.000
REMARK  5 active torsions:
REMARK  status: ('A' for Active; 'I' for Inactive)
REMARK    1  A    between atoms: N_2  and  C_4 
REMARK    2  A    between atoms: C_4  and  C_5 
REMARK    3  A    between atoms: C_5  and  N_6 
REMARK    4  A    between atoms: C_11  and  C_12 
REMARK    5  A    between atoms: C_15  and  O_16 
ROOT
HETATM    1  N   UNL     1      24.389  45.002  50.067  1.00  0.00    -0.332 N 
HETATM    2  C   UNL     1      25.225  43.981  50.511  1.00  0.00     0.279 C 
HETATM    3  O   UNL     1      25.360  42.891  49.985  1.00  0.00    -0.265 OA
HETATM    4  C   UNL     1      25.904  44.475  51.720  1.00  0.00     0.156 C 
HETATM    5  C   UNL     1      25.506  45.735  51.881  1.00  0.00     0.060 C 
HETATM    6  C   UNL     1      24.615  46.241  50.810  1.00  0.00     0.161 C 
HETATM    7  O   UNL     1      26.798  43.780  52.484  1.00  0.00    -0.303 OA
HETATM    8  C   UNL     1      27.428  44.508  53.474  1.00  0.00     0.090 A 
HETATM    9  C   UNL     1      27.081  45.835  53.784  1.00  0.00     0.051 A 
HETATM   10  C   UNL     1      26.004  46.497  53.017  1.00  0.00     0.196 C 
HETATM   11  O   UNL     1      25.555  47.596  53.299  1.00  0.00    -0.287 OA
HETATM   12  C   UNL     1      28.461  43.879  54.167  1.00  0.00     0.041 A 
HETATM   13  C   UNL     1      29.147  44.581  55.162  1.00  0.00     0.045 A 
HETATM   14  C   UNL     1      28.791  45.896  55.458  1.00  0.00     0.117 A 
HETATM   15  F   UNL     1      29.463  46.558  56.407  1.00  0.00    -0.206 F 
HETATM   16  C   UNL     1      27.758  46.533  54.784  1.00  0.00     0.060 A 
ENDROOT
BRANCH   6  17
HETATM   17  C   UNL     1      25.277  47.332  49.986  1.00  0.00    -0.030 A 
HETATM   18  C   UNL     1      26.673  47.385  49.796  1.00  0.00     0.012 A 
HETATM   19  C   UNL     1      27.264  48.457  49.121  1.00  0.00     0.037 A 
HETATM   20  C   UNL     1      26.462  49.479  48.631  1.00  0.00     0.065 A 
HETATM   21  C   UNL     1      25.084  49.443  48.794  1.00  0.00     0.037 A 
HETATM   22  C   UNL     1      24.492  48.377  49.474  1.00  0.00     0.012 A 
BRANCH  20  23
HETATM   23  O   UNL     1      26.996  50.556  47.988  1.00  0.00    -0.361 OA
HETATM   24  H   UNL     1      27.469  50.252  47.196  1.00  0.00     0.217 HD
ENDBRANCH  20  23
ENDBRANCH   6  17
BRANCH   1  25
HETATM   25  C   UNL     1      23.685  44.952  48.795  1.00  0.00     0.155 C 
BRANCH  25  26
HETATM   26  C   UNL     1      22.199  44.556  48.930  1.00  0.00     0.254 C 
BRANCH  26  27
HETATM   27  N   UNL     1      21.272  45.753  48.773  1.00  0.00    -0.077 N 
HETATM   28  C   UNL     1      19.849  45.384  48.462  1.00  0.00     0.269 C 
HETATM   29  H   UNL     1      21.277  46.257  49.670  1.00  0.00     0.279 HD
HETATM   30  C   UNL     1      21.816  46.725  47.756  1.00  0.00     0.269 C 
ENDBRANCH  26  27
ENDBRANCH  25  26
ENDBRANCH   1  25
TORSDOF 5
ENDMDL
MODEL 2
REMARK VINA RESULT:      -8.9      2.021      2.709
REMARK  5 active torsions:
REMARK  status: ('A' for Active; 'I' for Inactive)
REMARK    1  A    between atoms: N_2  and  C_4 
REMARK    2  A    between atoms: C_4  and  C_5 
REMARK    3  A    between atoms: C_5  and  N_6 
REMARK    4  A    between atoms: C_11  and  C_12 
REMARK    5  A    between atoms: C_15  and  O_16 
ROOT
HETATM    1  N   UNL     1      25.904  42.613  51.374  1.00  0.00    -0.332 N 
HETATM    2  C   UNL     1      27.110  42.005  51.712  1.00  0.00     0.279 C 
HETATM    3  O   UNL     1      27.599  41.035  51.161  1.00  0.00    -0.265 OA
HETATM    4  C   UNL     1      27.669  42.759  52.846  1.00  0.00     0.156 C 
HETATM    5  C   UNL     1      26.836  43.774  53.064  1.00  0.00     0.060 C 
HETATM    6  C   UNL     1      25.713  43.866  52.102  1.00  0.00     0.161 C 
HETATM    7  O   UNL     1      28.836  42.485  53.499  1.00  0.00    -0.303 OA
HETATM    8  C   UNL     1      29.238  43.429  54.424  1.00  0.00     0.090 A 
HETATM    9  C   UNL     1      28.441  44.530  54.786  1.00  0.00     0.051 A 
HETATM   10  C   UNL     1      27.118  44.703  54.148  1.00  0.00     0.196 C 
HETATM   11  O   UNL     1      26.313  45.553  54.491  1.00  0.00    -0.287 OA
HETATM   12  C   UNL     1      30.500  43.266  54.994  1.00  0.00     0.041 A 
HETATM   13  C   UNL     1      30.963  44.208  55.916  1.00  0.00     0.045 A 
HETATM   14  C   UNL     1      30.162  45.294  56.265  1.00  0.00     0.117 A 
HETATM   15  F   UNL     1      30.622  46.193  57.143  1.00  0.00    -0.206 F 
HETATM   16  C   UNL     1      28.898  45.464  55.714  1.00  0.00     0.060 A 
ENDROOT
BRANCH   6  17
HETATM   17  C   UNL     1      25.813  45.101  51.224  1.00  0.00    -0.030 A 
HETATM   18  C   UNL     1      26.874  45.291  50.316  1.00  0.00     0.012 A 
HETATM   19  C   UNL     1      26.997  46.483  49.597  1.00  0.00     0.037 A 
HETATM   20  C   UNL     1      26.059  47.491  49.781  1.00  0.00     0.065 A 
HETATM   21  C   UNL     1      24.998  47.322  50.661  1.00  0.00     0.037 A 
HETATM   22  C   UNL     1      24.878  46.135  51.386  1.00  0.00     0.012 A 
BRANCH  20  23
HETATM   23  O   UNL     1      26.153  48.678  49.121  1.00  0.00    -0.361 OA
HETATM   24  H   UNL     1      25.294  49.131  49.153  1.00  0.00     0.217 HD
ENDBRANCH  20  23
ENDBRANCH   6  17
BRANCH   1  25
HETATM   25  C   UNL     1      25.145  42.257  50.185  1.00  0.00     0.155 C 
BRANCH  25  26
HETATM   26  C   UNL     1      23.640  42.583  50.296  1.00  0.00     0.254 C 
BRANCH  26  27
HETATM   27  N   UNL     1      23.023  42.904  48.942  1.00  0.00    -0.077 N 
HETATM   28  C   UNL     1      22.914  41.718  48.026  1.00  0.00     0.269 C 
HETATM   29  H   UNL     1      22.070  43.251  49.121  1.00  0.00     0.279 HD
HETATM   30  C   UNL     1      23.753  44.041  48.274  1.00  0.00     0.269 C 
ENDBRANCH  26  27
ENDBRANCH  25  26
ENDBRANCH   1  25
TORSDOF 5
ENDMDL
MODEL 3
REMARK VINA RESULT:      -7.8     11.524     14.205
REMARK  5 active torsions:
REMARK  status: ('A' for Active; 'I' for Inactive)
REMARK    1  A    between atoms: N_2  and  C_4 
REMARK    2  A    between atoms: C_4  and  C_5 
REMARK    3  A    between atoms: C_5  and  N_6 
REMARK    4  A    between atoms: C_11  and  C_12 
REMARK    5  A    between atoms: C_15  and  O_16 
ROOT
HETATM    1  N   UNL     1      28.689  51.639  40.298  1.00  0.00    -0.332 N 
HETATM    2  C   UNL     1      28.186  51.725  39.003  1.00  0.00     0.279 C 
HETATM    3  O   UNL     1      28.316  52.673  38.250  1.00  0.00    -0.265 OA
HETATM    4  C   UNL     1      27.481  50.463  38.730  1.00  0.00     0.156 C 
HETATM    5  C   UNL     1      27.657  49.699  39.806  1.00  0.00     0.060 C 
HETATM    6  C   UNL     1      28.525  50.294  40.849  1.00  0.00     0.161 C 
HETATM    7  O   UNL     1      26.823  50.139  37.578  1.00  0.00    -0.303 OA
HETATM    8  C   UNL     1      26.379  48.834  37.491  1.00  0.00     0.090 A 
HETATM    9  C   UNL     1      26.460  47.927  38.563  1.00  0.00     0.051 A 
HETATM   10  C   UNL     1      27.057  48.373  39.841  1.00  0.00     0.196 C 
HETATM   11  O   UNL     1      27.055  47.696  40.856  1.00  0.00    -0.287 OA
HETATM   12  C   UNL     1      25.846  48.422  36.271  1.00  0.00     0.041 A 
HETATM   13  C   UNL     1      25.407  47.105  36.123  1.00  0.00     0.045 A 
HETATM   14  C   UNL     1      25.494  46.217  37.195  1.00  0.00     0.117 A 
HETATM   15  F   UNL     1      25.077  44.955  37.036  1.00  0.00    -0.206 F 
HETATM   16  C   UNL     1      26.012  46.615  38.420  1.00  0.00     0.060 A 
ENDROOT
BRANCH   6  17
HETATM   17  C   UNL     1      29.832  49.537  41.005  1.00  0.00    -0.030 A 
HETATM   18  C   UNL     1      30.524  49.001  39.900  1.00  0.00     0.012 A 
HETATM   19  C   UNL     1      31.669  48.220  40.083  1.00  0.00     0.037 A 
HETATM   20  C   UNL     1      32.128  47.972  41.370  1.00  0.00     0.065 A 
HETATM   21  C   UNL     1      31.470  48.500  42.473  1.00  0.00     0.037 A 
HETATM   22  C   UNL     1      30.322  49.274  42.294  1.00  0.00     0.012 A 
BRANCH  20  23
HETATM   23  O   UNL     1      33.224  47.197  41.597  1.00  0.00    -0.361 OA
HETATM   24  H   UNL     1      33.108  46.341  41.152  1.00  0.00     0.217 HD
ENDBRANCH  20  23
ENDBRANCH   6  17
BRANCH   1  25
HETATM   25  C   UNL     1      29.598  52.626  40.861  1.00  0.00     0.155 C 
BRANCH  25  26
HETATM   26  C   UNL     1      30.990  52.630  40.195  1.00  0.00     0.254 C 
BRANCH  26  27
HETATM   27  N   UNL     1      32.115  52.585  41.220  1.00  0.00    -0.077 N 
HETATM   28  C   UNL     1      33.174  51.562  40.918  1.00  0.00     0.269 C 
HETATM   29  H   UNL     1      32.563  53.512  41.214  1.00  0.00     0.279 HD
HETATM   30  C   UNL     1      31.567  52.406  42.613  1.00  0.00     0.269 C 
ENDBRANCH  26  27
ENDBRANCH  25  26
ENDBRANCH   1  25
TORSDOF 5
ENDMDL
MODEL 4
REMARK VINA RESULT:      -7.5      4.528      7.195
REMARK  5 active torsions:
REMARK  status: ('A' for Active; 'I' for Inactive)
REMARK    1  A    between atoms: N_2  and  C_4 
REMARK    2  A    between atoms: C_4  and  C_5 
REMARK    3  A    between atoms: C_5  and  N_6 
REMARK    4  A    between atoms: C_11  and  C_12 
REMARK    5  A    between atoms: C_15  and  O_16 
ROOT
HETATM    1  N   UNL     1      21.419  50.514  48.556  1.00  0.00    -0.332 N 
HETATM    2  C   UNL     1      22.331  50.380  49.600  1.00  0.00     0.279 C 
HETATM    3  O   UNL     1      22.570  51.220  50.449  1.00  0.00    -0.265 OA
HETATM    4  C   UNL     1      22.932  49.043  49.478  1.00  0.00     0.156 C 
HETATM    5  C   UNL     1      22.320  48.452  48.454  1.00  0.00     0.060 C 
HETATM    6  C   UNL     1      21.232  49.251  47.843  1.00  0.00     0.161 C 
HETATM    7  O   UNL     1      23.893  48.514  50.291  1.00  0.00    -0.303 OA
HETATM    8  C   UNL     1      24.183  47.180  50.081  1.00  0.00     0.090 A 
HETATM    9  C   UNL     1      23.644  46.440  49.013  1.00  0.00     0.051 A 
HETATM   10  C   UNL     1      22.714  47.103  48.074  1.00  0.00     0.196 C 
HETATM   11  O   UNL     1      22.299  46.577  47.055  1.00  0.00    -0.287 OA
HETATM   12  C   UNL     1      25.039  46.563  50.992  1.00  0.00     0.041 A 
HETATM   13  C   UNL     1      25.344  45.208  50.839  1.00  0.00     0.045 A 
HETATM   14  C   UNL     1      24.802  44.488  49.775  1.00  0.00     0.117 A 
HETATM   15  F   UNL     1      25.097  43.189  49.645  1.00  0.00    -0.206 F 
HETATM   16  C   UNL     1      23.957  45.091  48.853  1.00  0.00     0.060 A 
ENDROOT
BRANCH   6  17
HETATM   17  C   UNL     1      19.868  48.622  48.067  1.00  0.00    -0.030 A 
HETATM   18  C   UNL     1      18.931  48.472  47.025  1.00  0.00     0.012 A 
HETATM   19  C   UNL     1      17.646  47.986  47.281  1.00  0.00     0.037 A 
HETATM   20  C   UNL     1      17.291  47.646  48.580  1.00  0.00     0.065 A 
HETATM   21  C   UNL     1      18.201  47.774  49.622  1.00  0.00     0.037 A 
HETATM   22  C   UNL     1      19.482  48.266  49.370  1.00  0.00     0.012 A 
BRANCH  20  23
HETATM   23  O   UNL     1      16.043  47.192  48.881  1.00  0.00    -0.361 OA
HETATM   24  H   UNL     1      16.115  46.433  49.482  1.00  0.00     0.217 HD
ENDBRANCH  20  23
ENDBRANCH   6  17
BRANCH   1  25
HETATM   25  C   UNL     1      20.498  51.635  48.449  1.00  0.00     0.155 C 
BRANCH  25  26
HETATM   26  C   UNL     1      19.444  51.675  49.576  1.00  0.00     0.254 C 
BRANCH  26  27
HETATM   27  N   UNL     1      18.024  51.594  49.035  1.00  0.00    -0.077 N 
HETATM   28  C   UNL     1      17.899  51.987  47.590  1.00  0.00     0.269 C 
HETATM   29  H   UNL     1      17.725  50.612  49.120  1.00  0.00     0.279 HD
HETATM   30  C   UNL     1      17.073  52.385  49.898  1.00  0.00     0.269 C 
ENDBRANCH  26  27
ENDBRANCH  25  26
ENDBRANCH   1  25
TORSDOF 5
ENDMDL
MODEL 5
REMARK VINA RESULT:      -7.4     11.456     12.910
REMARK  5 active torsions:
REMARK  status: ('A' for Active; 'I' for Inactive)
REMARK    1  A    between atoms: N_2  and  C_4 
REMARK    2  A    between atoms: C_4  and  C_5 
REMARK    3  A    between atoms: C_5  and  N_6 
REMARK    4  A    between atoms: C_11  and  C_12 
REMARK    5  A    between atoms: C_15  and  O_16 
ROOT
HETATM    1  N   UNL     1      28.443  46.913  40.595  1.00  0.00    -0.332 N 
HETATM    2  C   UNL     1      29.762  47.192  40.249  1.00  0.00     0.279 C 
HETATM    3  O   UNL     1      30.570  46.391  39.815  1.00  0.00    -0.265 OA
HETATM    4  C   UNL     1      29.981  48.625  40.504  1.00  0.00     0.156 C 
HETATM    5  C   UNL     1      28.809  49.114  40.902  1.00  0.00     0.060 C 
HETATM    6  C   UNL     1      27.697  48.135  40.890  1.00  0.00     0.161 C 
HETATM    7  O   UNL     1      31.148  49.309  40.316  1.00  0.00    -0.303 OA
HETATM    8  C   UNL     1      31.066  50.680  40.465  1.00  0.00     0.090 A 
HETATM    9  C   UNL     1      29.906  51.331  40.921  1.00  0.00     0.051 A 
HETATM   10  C   UNL     1      28.709  50.526  41.246  1.00  0.00     0.196 C 
HETATM   11  O   UNL     1      27.706  50.990  41.763  1.00  0.00    -0.287 OA
HETATM   12  C   UNL     1      32.194  51.426  40.126  1.00  0.00     0.041 A 
HETATM   13  C   UNL     1      32.155  52.818  40.235  1.00  0.00     0.045 A 
HETATM   14  C   UNL     1      30.997  53.449  40.688  1.00  0.00     0.117 A 
HETATM   15  F   UNL     1      30.971  54.784  40.779  1.00  0.00    -0.206 F 
HETATM   16  C   UNL     1      29.869  52.719  41.040  1.00  0.00     0.060 A 
ENDROOT
BRANCH   6  17
HETATM   17  C   UNL     1      26.649  48.475  39.845  1.00  0.00    -0.030 A 
HETATM   18  C   UNL     1      26.992  48.993  38.580  1.00  0.00     0.012 A 
HETATM   19  C   UNL     1      26.003  49.394  37.678  1.00  0.00     0.037 A 
HETATM   20  C   UNL     1      24.666  49.277  38.035  1.00  0.00     0.065 A 
HETATM   21  C   UNL     1      24.302  48.758  39.270  1.00  0.00     0.037 A 
HETATM   22  C   UNL     1      25.289  48.364  40.176  1.00  0.00     0.012 A 
BRANCH  20  23
HETATM   23  O   UNL     1      23.669  49.678  37.197  1.00  0.00    -0.361 OA
HETATM   24  H   UNL     1      23.495  50.623  37.337  1.00  0.00     0.217 HD
ENDBRANCH  20  23
ENDBRANCH   6  17
BRANCH   1  25
HETATM   25  C   UNL     1      27.805  45.636  40.316  1.00  0.00     0.155 C 
BRANCH  25  26
HETATM   26  C   UNL     1      27.901  45.213  38.834  1.00  0.00     0.254 C 
BRANCH  26  27
HETATM   27  N   UNL     1      28.966  44.149  38.611  1.00  0.00    -0.077 N 
HETATM   28  C   UNL     1      29.523  44.129  37.215  1.00  0.00     0.269 C 
HETATM   29  H   UNL     1      29.741  44.359  39.255  1.00  0.00     0.279 HD
HETATM   30  C   UNL     1      28.458  42.787  39.013  1.00  0.00     0.269 C 
ENDBRANCH  26  27
ENDBRANCH  25  26
ENDBRANCH   1  25
TORSDOF 5
ENDMDL
MODEL 6
REMARK VINA RESULT:      -7.3     11.035     12.505
REMARK  5 active torsions:
REMARK  status: ('A' for Active; 'I' for Inactive)
REMARK    1  A    between atoms: N_2  and  C_4 
REMARK    2  A    between atoms: C_4  and  C_5 
REMARK    3  A    between atoms: C_5  and  N_6 
REMARK    4  A    between atoms: C_11  and  C_12 
REMARK    5  A    between atoms: C_15  and  O_16 
ROOT
HETATM    1  N   UNL     1      30.242  48.252  40.909  1.00  0.00    -0.332 N 
HETATM    2  C   UNL     1      31.535  47.770  40.729  1.00  0.00     0.279 C 
HETATM    3  O   UNL     1      31.838  46.737  40.161  1.00  0.00    -0.265 OA
HETATM    4  C   UNL     1      32.448  48.745  41.348  1.00  0.00     0.156 C 
HETATM    5  C   UNL     1      31.684  49.746  41.780  1.00  0.00     0.060 C 
HETATM    6  C   UNL     1      30.246  49.610  41.452  1.00  0.00     0.161 C 
HETATM    7  O   UNL     1      33.808  48.648  41.413  1.00  0.00    -0.303 OA
HETATM    8  C   UNL     1      34.463  49.764  41.895  1.00  0.00     0.090 A 
HETATM    9  C   UNL     1      33.787  50.878  42.424  1.00  0.00     0.051 A 
HETATM   10  C   UNL     1      32.309  50.873  42.459  1.00  0.00     0.196 C 
HETATM   11  O   UNL     1      31.646  51.736  43.010  1.00  0.00    -0.287 OA
HETATM   12  C   UNL     1      35.856  49.764  41.828  1.00  0.00     0.041 A 
HETATM   13  C   UNL     1      36.565  50.880  42.279  1.00  0.00     0.045 A 
HETATM   14  C   UNL     1      35.880  51.977  42.800  1.00  0.00     0.117 A 
HETATM   15  F   UNL     1      36.572  53.042  43.221  1.00  0.00    -0.206 F 
HETATM   16  C   UNL     1      34.494  51.988  42.884  1.00  0.00     0.060 A 
ENDROOT
BRANCH   6  17
HETATM   17  C   UNL     1      29.785  50.663  40.459  1.00  0.00    -0.030 A 
HETATM   18  C   UNL     1      30.321  50.754  39.159  1.00  0.00     0.012 A 
HETATM   19  C   UNL     1      29.954  51.797  38.304  1.00  0.00     0.037 A 
HETATM   20  C   UNL     1      29.047  52.752  38.744  1.00  0.00     0.065 A 
HETATM   21  C   UNL     1      28.495  52.677  40.016  1.00  0.00     0.037 A 
HETATM   22  C   UNL     1      28.866  51.641  40.874  1.00  0.00     0.012 A 
BRANCH  20  23
HETATM   23  O   UNL     1      28.679  53.799  37.954  1.00  0.00    -0.361 OA
HETATM   24  H   UNL     1      29.448  54.101  37.444  1.00  0.00     0.217 HD
ENDBRANCH  20  23
ENDBRANCH   6  17
BRANCH   1  25
HETATM   25  C   UNL     1      29.078  47.649  40.277  1.00  0.00     0.155 C 
BRANCH  25  26
HETATM   26  C   UNL     1      27.918  47.378  41.258  1.00  0.00     0.254 C 
BRANCH  26  27
HETATM   27  N   UNL     1      26.652  48.128  40.869  1.00  0.00    -0.077 N 
HETATM   28  C   UNL     1      25.412  47.279  40.882  1.00  0.00     0.269 C 
HETATM   29  H   UNL     1      26.524  48.881  41.559  1.00  0.00     0.279 HD
HETATM   30  C   UNL     1      26.823  48.819  39.539  1.00  0.00     0.269 C 
ENDBRANCH  26  27
ENDBRANCH  25  26
ENDBRANCH   1  25
TORSDOF 5
ENDMDL
MODEL 7
REMARK VINA RESULT:      -7.2      8.827     12.742
REMARK  5 active torsions:
REMARK  status: ('A' for Active; 'I' for Inactive)
REMARK    1  A    between atoms: N_2  and  C_4 
REMARK    2  A    between atoms: C_4  and  C_5 
REMARK    3  A    between atoms: C_5  and  N_6 
REMARK    4  A    between atoms: C_11  and  C_12 
REMARK    5  A    between atoms: C_15  and  O_16 
ROOT
HETATM    1  N   UNL     1      15.608  51.772  48.150  1.00  0.00    -0.332 N 
HETATM    2  C   UNL     1      15.401  52.715  47.148  1.00  0.00     0.279 C 
HETATM    3  O   UNL     1      14.739  53.732  47.252  1.00  0.00    -0.265 OA
HETATM    4  C   UNL     1      16.133  52.249  45.959  1.00  0.00     0.156 C 
HETATM    5  C   UNL     1      16.767  51.137  46.326  1.00  0.00     0.060 C 
HETATM    6  C   UNL     1      16.608  50.781  47.756  1.00  0.00     0.161 C 
HETATM    7  O   UNL     1      16.180  52.871  44.745  1.00  0.00    -0.303 OA
HETATM    8  C   UNL     1      17.066  52.332  43.832  1.00  0.00     0.090 A 
HETATM    9  C   UNL     1      17.771  51.139  44.067  1.00  0.00     0.051 A 
HETATM   10  C   UNL     1      17.576  50.426  45.347  1.00  0.00     0.196 C 
HETATM   11  O   UNL     1      18.049  49.326  45.583  1.00  0.00    -0.287 OA
HETATM   12  C   UNL     1      17.260  53.033  42.643  1.00  0.00     0.041 A 
HETATM   13  C   UNL     1      18.164  52.543  41.697  1.00  0.00     0.045 A 
HETATM   14  C   UNL     1      18.857  51.358  41.944  1.00  0.00     0.117 A 
HETATM   15  F   UNL     1      19.726  50.906  41.033  1.00  0.00    -0.206 F 
HETATM   16  C   UNL     1      18.667  50.643  43.119  1.00  0.00     0.060 A 
ENDROOT
BRANCH   6  17
HETATM   17  C   UNL     1      17.915  50.899  48.521  1.00  0.00    -0.030 A 
HETATM   18  C   UNL     1      18.905  51.840  48.174  1.00  0.00     0.012 A 
HETATM   19  C   UNL     1      20.139  51.856  48.829  1.00  0.00     0.037 A 
HETATM   20  C   UNL     1      20.389  50.932  49.836  1.00  0.00     0.065 A 
HETATM   21  C   UNL     1      19.425  50.004  50.204  1.00  0.00     0.037 A 
HETATM   22  C   UNL     1      18.194  49.981  49.546  1.00  0.00     0.012 A 
BRANCH  20  23
HETATM   23  O   UNL     1      21.586  50.895  50.485  1.00  0.00    -0.361 OA
HETATM   24  H   UNL     1      22.007  50.034  50.329  1.00  0.00     0.217 HD
ENDBRANCH  20  23
ENDBRANCH   6  17
BRANCH   1  25
HETATM   25  C   UNL     1      15.186  51.975  49.527  1.00  0.00     0.155 C 
BRANCH  25  26
HETATM   26  C   UNL     1      15.803  53.231  50.180  1.00  0.00     0.254 C 
BRANCH  26  27
HETATM   27  N   UNL     1      14.785  54.351  50.342  1.00  0.00    -0.077 N 
HETATM   28  C   UNL     1      15.085  55.287  51.479  1.00  0.00     0.269 C 
HETATM   29  H   UNL     1      14.800  54.900  49.471  1.00  0.00     0.279 HD
HETATM   30  C   UNL     1      13.387  53.795  50.450  1.00  0.00     0.269 C 
ENDBRANCH  26  27
ENDBRANCH  25  26
ENDBRANCH   1  25
TORSDOF 5
ENDMDL
MODEL 8
REMARK VINA RESULT:      -7.1      6.246      9.041
REMARK  5 active torsions:
REMARK  status: ('A' for Active; 'I' for Inactive)
REMARK    1  A    between atoms: N_2  and  C_4 
REMARK    2  A    between atoms: C_4  and  C_5 
REMARK    3  A    between atoms: C_5  and  N_6 
REMARK    4  A    between atoms: C_11  and  C_12 
REMARK    5  A    between atoms: C_15  and  O_16 
ROOT
HETATM    1  N   UNL     1      16.912  49.326  48.383  1.00  0.00    -0.332 N 
HETATM    2  C   UNL     1      17.736  48.242  48.674  1.00  0.00     0.279 C 
HETATM    3  O   UNL     1      17.372  47.089  48.821  1.00  0.00    -0.265 OA
HETATM    4  C   UNL     1      19.111  48.758  48.763  1.00  0.00     0.156 C 
HETATM    5  C   UNL     1      19.042  50.053  48.462  1.00  0.00     0.060 C 
HETATM    6  C   UNL     1      17.691  50.525  48.077  1.00  0.00     0.161 C 
HETATM    7  O   UNL     1      20.229  48.029  49.051  1.00  0.00    -0.303 OA
HETATM    8  C   UNL     1      21.429  48.699  48.915  1.00  0.00     0.090 A 
HETATM    9  C   UNL     1      21.508  50.076  48.642  1.00  0.00     0.051 A 
HETATM   10  C   UNL     1      20.260  50.851  48.478  1.00  0.00     0.196 C 
HETATM   11  O   UNL     1      20.232  52.066  48.364  1.00  0.00    -0.287 OA
HETATM   12  C   UNL     1      22.597  47.948  49.044  1.00  0.00     0.041 A 
HETATM   13  C   UNL     1      23.836  48.573  48.890  1.00  0.00     0.045 A 
HETATM   14  C   UNL     1      23.898  49.939  48.619  1.00  0.00     0.117 A 
HETATM   15  F   UNL     1      25.092  50.523  48.465  1.00  0.00    -0.206 F 
HETATM   16  C   UNL     1      22.745  50.704  48.498  1.00  0.00     0.060 A 
ENDROOT
BRANCH   6  17
HETATM   17  C   UNL     1      17.625  50.937  46.617  1.00  0.00    -0.030 A 
HETATM   18  C   UNL     1      18.221  50.171  45.594  1.00  0.00     0.012 A 
HETATM   19  C   UNL     1      18.234  50.627  44.273  1.00  0.00     0.037 A 
HETATM   20  C   UNL     1      17.650  51.850  43.968  1.00  0.00     0.065 A 
HETATM   21  C   UNL     1      17.046  52.616  44.956  1.00  0.00     0.037 A 
HETATM   22  C   UNL     1      17.038  52.166  46.277  1.00  0.00     0.012 A 
BRANCH  20  23
HETATM   23  O   UNL     1      17.661  52.345  42.699  1.00  0.00    -0.361 OA
HETATM   24  H   UNL     1      17.157  51.751  42.119  1.00  0.00     0.217 HD
ENDBRANCH  20  23
ENDBRANCH   6  17
BRANCH   1  25
HETATM   25  C   UNL     1      15.504  49.181  48.045  1.00  0.00     0.155 C 
BRANCH  25  26
HETATM   26  C   UNL     1      15.262  48.347  46.770  1.00  0.00     0.254 C 
BRANCH  26  27
HETATM   27  N   UNL     1      14.007  48.786  46.029  1.00  0.00    -0.077 N 
HETATM   28  C   UNL     1      13.315  47.675  45.290  1.00  0.00     0.269 C 
HETATM   29  H   UNL     1      13.351  49.148  46.736  1.00  0.00     0.279 HD
HETATM   30  C   UNL     1      14.301  49.947  45.113  1.00  0.00     0.269 C 
ENDBRANCH  26  27
ENDBRANCH  25  26
ENDBRANCH   1  25
TORSDOF 5
ENDMDL
MODEL 9
REMARK VINA RESULT:      -7.0     18.217     20.539
REMARK  5 active torsions:
REMARK  status: ('A' for Active; 'I' for Inactive)
REMARK    1  A    between atoms: N_2  and  C_4 
REMARK    2  A    between atoms: C_4  and  C_5 
REMARK    3  A    between atoms: C_5  and  N_6 
REMARK    4  A    between atoms: C_11  and  C_12 
REMARK    5  A    between atoms: C_15  and  O_16 
ROOT
HETATM    1  N   UNL     1      38.521  45.816  64.900  1.00  0.00    -0.332 N 
HETATM    2  C   UNL     1      37.966  45.022  63.900  1.00  0.00     0.279 C 
HETATM    3  O   UNL     1      37.156  45.387  63.068  1.00  0.00    -0.265 OA
HETATM    4  C   UNL     1      38.547  43.678  64.047  1.00  0.00     0.156 C 
HETATM    5  C   UNL     1      39.432  43.761  65.037  1.00  0.00     0.060 C 
HETATM    6  C   UNL     1      39.602  45.122  65.598  1.00  0.00     0.161 C 
HETATM    7  O   UNL     1      38.258  42.586  63.278  1.00  0.00    -0.303 OA
HETATM    8  C   UNL     1      39.050  41.476  63.497  1.00  0.00     0.090 A 
HETATM    9  C   UNL     1      39.996  41.406  64.535  1.00  0.00     0.051 A 
HETATM   10  C   UNL     1      40.171  42.570  65.431  1.00  0.00     0.196 C 
HETATM   11  O   UNL     1      40.874  42.552  66.427  1.00  0.00    -0.287 OA
HETATM   12  C   UNL     1      38.893  40.400  62.625  1.00  0.00     0.041 A 
HETATM   13  C   UNL     1      39.688  39.263  62.789  1.00  0.00     0.045 A 
HETATM   14  C   UNL     1      40.622  39.209  63.822  1.00  0.00     0.117 A 
HETATM   15  F   UNL     1      41.383  38.116  63.961  1.00  0.00    -0.206 F 
HETATM   16  C   UNL     1      40.783  40.268  64.705  1.00  0.00     0.060 A 
ENDROOT
BRANCH   6  17
HETATM   17  C   UNL     1      40.979  45.691  65.307  1.00  0.00    -0.030 A 
HETATM   18  C   UNL     1      41.698  45.355  64.142  1.00  0.00     0.012 A 
HETATM   19  C   UNL     1      43.005  45.811  63.950  1.00  0.00     0.037 A 
HETATM   20  C   UNL     1      43.599  46.607  64.921  1.00  0.00     0.065 A 
HETATM   21  C   UNL     1      42.907  46.962  66.071  1.00  0.00     0.037 A 
HETATM   22  C   UNL     1      41.604  46.501  66.268  1.00  0.00     0.012 A 
BRANCH  20  23
HETATM   23  O   UNL     1      44.879  47.054  64.787  1.00  0.00    -0.361 OA
HETATM   24  H   UNL     1      44.866  47.977  64.486  1.00  0.00     0.217 HD
ENDBRANCH  20  23
ENDBRANCH   6  17
BRANCH   1  25
HETATM   25  C   UNL     1      38.324  47.256  64.967  1.00  0.00     0.155 C 
BRANCH  25  26
HETATM   26  C   UNL     1      38.141  47.785  66.406  1.00  0.00     0.254 C 
BRANCH  26  27
HETATM   27  N   UNL     1      38.760  49.163  66.592  1.00  0.00    -0.077 N 
HETATM   28  C   UNL     1      37.759  50.249  66.865  1.00  0.00     0.269 C 
HETATM   29  H   UNL     1      39.388  49.103  67.406  1.00  0.00     0.279 HD
HETATM   30  C   UNL     1      39.643  49.519  65.422  1.00  0.00     0.269 C 
ENDBRANCH  26  27
ENDBRANCH  25  26
ENDBRANCH   1  25
TORSDOF 5
ENDMDL
MODEL 10
REMARK VINA RESULT:      -7.0      5.259      9.056
REMARK  5 active torsions:
REMARK  status: ('A' for Active; 'I' for Inactive)
REMARK    1  A    between atoms: N_2  and  C_4 
REMARK    2  A    between atoms: C_4  and  C_5 
REMARK    3  A    between atoms: C_5  and  N_6 
REMARK    4  A    between atoms: C_11  and  C_12 
REMARK    5  A    between atoms: C_15  and  O_16 
ROOT
HETATM    1  N   UNL     1      22.000  46.628  48.613  1.00  0.00    -0.332 N 
HETATM    2  C   UNL     1      22.366  47.971  48.603  1.00  0.00     0.279 C 
HETATM    3  O   UNL     1      23.499  48.400  48.477  1.00  0.00    -0.265 OA
HETATM    4  C   UNL     1      21.132  48.756  48.769  1.00  0.00     0.156 C 
HETATM    5  C   UNL     1      20.134  47.876  48.795  1.00  0.00     0.060 C 
HETATM    6  C   UNL     1      20.547  46.469  48.582  1.00  0.00     0.161 C 
HETATM    7  O   UNL     1      21.044  50.117  48.833  1.00  0.00    -0.303 OA
HETATM    8  C   UNL     1      19.763  50.633  48.825  1.00  0.00     0.090 A 
HETATM    9  C   UNL     1      18.614  49.824  48.893  1.00  0.00     0.051 A 
HETATM   10  C   UNL     1      18.769  48.356  48.964  1.00  0.00     0.196 C 
HETATM   11  O   UNL     1      17.839  47.589  49.151  1.00  0.00    -0.287 OA
HETATM   12  C   UNL     1      19.634  52.017  48.727  1.00  0.00     0.041 A 
HETATM   13  C   UNL     1      18.359  52.587  48.689  1.00  0.00     0.045 A 
HETATM   14  C   UNL     1      17.230  51.773  48.757  1.00  0.00     0.117 A 
HETATM   15  F   UNL     1      16.015  52.332  48.711  1.00  0.00    -0.206 F 
HETATM   16  C   UNL     1      17.341  50.393  48.865  1.00  0.00     0.060 A 
ENDROOT
BRANCH   6  17
HETATM   17  C   UNL     1      20.023  45.913  47.269  1.00  0.00    -0.030 A 
HETATM   18  C   UNL     1      20.212  46.582  46.043  1.00  0.00     0.012 A 
HETATM   19  C   UNL     1      19.631  46.101  44.867  1.00  0.00     0.037 A 
HETATM   20  C   UNL     1      18.859  44.947  44.911  1.00  0.00     0.065 A 
HETATM   21  C   UNL     1      18.669  44.264  46.104  1.00  0.00     0.037 A 
HETATM   22  C   UNL     1      19.242  44.747  47.281  1.00  0.00     0.012 A 
BRANCH  20  23
HETATM   23  O   UNL     1      18.253  44.455  43.794  1.00  0.00    -0.361 OA
HETATM   24  H   UNL     1      18.600  44.916  43.013  1.00  0.00     0.217 HD
ENDBRANCH  20  23
ENDBRANCH   6  17
BRANCH   1  25
HETATM   25  C   UNL     1      22.927  45.553  48.297  1.00  0.00     0.155 C 
BRANCH  25  26
HETATM   26  C   UNL     1      23.719  45.045  49.520  1.00  0.00     0.254 C 
BRANCH  26  27
HETATM   27  N   UNL     1      24.994  45.845  49.749  1.00  0.00    -0.077 N 
HETATM   28  C   UNL     1      26.254  45.039  49.602  1.00  0.00     0.269 C 
HETATM   29  H   UNL     1      25.013  46.590  49.038  1.00  0.00     0.279 HD
HETATM   30  C   UNL     1      24.953  46.553  51.080  1.00  0.00     0.269 C 
ENDBRANCH  26  27
ENDBRANCH  25  26
ENDBRANCH   1  25
TORSDOF 5
ENDMDL
