MODEL 1
REMARK VINA RESULT:      -8.8      0.000      0.000
REMARK  7 active torsions:
REMARK  status: ('A' for Active; 'I' for Inactive)
REMARK    1  A    between atoms: C_2  and  O_3 
REMARK    2  A    between atoms: O_3  and  C_4 
REMARK    3  A    between atoms: C_4  and  C_5 
REMARK    4  A    between atoms: C_6  and  C_7 
REMARK    5  A    between atoms: C_18  and  S_19 
REMARK    6  A    between atoms: S_19  and  C_20 
REMARK    7  A    between atoms: C_20  and  C_21 
ROOT
HETATM    1  C   UNL     1      27.610  41.060  49.631  1.00  0.00     0.070 A 
HETATM    2  C   UNL     1      27.187  42.433  50.134  1.00  0.00     0.204 A 
HETATM    3  N   UNL     1      27.336  42.544  51.590  1.00  0.00    -0.082 N 
HETATM    4  C   UNL     1      27.826  41.548  52.390  1.00  0.00     0.726 A 
HETATM    5  N   UNL     1      28.195  40.379  51.833  1.00  0.00    -0.192 N 
HETATM    6  N   UNL     1      27.078  43.660  52.298  1.00  0.00    -0.128 NA
HETATM    7  C   UNL     1      27.349  43.236  53.538  1.00  0.00     0.226 A 
HETATM    8  N   UNL     1      27.842  41.957  53.632  1.00  0.00    -0.035 NA
HETATM    9  C   UNL     1      28.100  40.113  50.470  1.00  0.00     0.037 A 
HETATM   10  C   UNL     1      28.610  38.763  50.031  1.00  0.00     0.070 C 
HETATM   11  H   UNL     1      28.532  39.634  52.436  1.00  0.00     0.184 HD
ENDROOT
BRANCH   7  12
HETATM   12  S   UNL     1      27.080  44.277  54.906  1.00  0.00    -0.083 SA
BRANCH  12  13
HETATM   13  C   UNL     1      28.527  45.362  54.776  1.00  0.00     0.123 C 
BRANCH  13  14
HETATM   14  C   UNL     1      29.489  45.133  55.919  1.00  0.00    -0.027 A 
HETATM   15  C   UNL     1      30.504  44.164  55.878  1.00  0.00     0.041 A 
HETATM   16 CL   UNL     1      30.758  43.156  54.497  1.00  0.00    -0.084 Cl
HETATM   17  C   UNL     1      31.354  43.977  56.973  1.00  0.00     0.024 A 
HETATM   18  C   UNL     1      31.197  44.745  58.125  1.00  0.00     0.002 A 
HETATM   19  C   UNL     1      30.190  45.703  58.186  1.00  0.00     0.001 A 
HETATM   20  C   UNL     1      29.342  45.895  57.094  1.00  0.00     0.009 A 
ENDBRANCH  13  14
ENDBRANCH  12  13
ENDBRANCH   7  12
BRANCH   2  21
HETATM   21  C   UNL     1      25.791  42.873  49.698  1.00  0.00    -0.006 A 
HETATM   22  C   UNL     1      25.449  44.190  49.340  1.00  0.00     0.042 A 
HETATM   23 CL   UNL     1      26.578  45.495  49.389  1.00  0.00    -0.084 Cl
HETATM   24  C   UNL     1      24.146  44.502  48.934  1.00  0.00     0.024 A 
HETATM   25  C   UNL     1      23.165  43.514  48.878  1.00  0.00     0.002 A 
HETATM   26  C   UNL     1      23.481  42.208  49.235  1.00  0.00     0.001 A 
HETATM   27  C   UNL     1      24.778  41.891  49.641  1.00  0.00     0.011 A 
ENDBRANCH   2  21
BRANCH   1  28
HETATM   28  C   UNL     1      27.485  40.897  48.170  1.00  0.00     0.293 C 
HETATM   29  O   UNL     1      28.137  41.552  47.374  1.00  0.00    -0.259 OA
BRANCH  28  30
HETATM   30  O   UNL     1      26.499  40.014  47.878  1.00  0.00    -0.318 OA
BRANCH  30  31
HETATM   31  C   UNL     1      26.160  39.895  46.489  1.00  0.00     0.174 C 
HETATM   32  C   UNL     1      24.691  40.205  46.267  1.00  0.00     0.034 C 
ENDBRANCH  30  31
ENDBRANCH  28  30
ENDBRANCH   1  28
TORSDOF 7
ENDMDL
MODEL 2
REMARK VINA RESULT:      -8.5      7.063     10.007
REMARK  7 active torsions:
REMARK  status: ('A' for Active; 'I' for Inactive)
REMARK    1  A    between atoms: C_2  and  O_3 
REMARK    2  A    between atoms: O_3  and  C_4 
REMARK    3  A    between atoms: C_4  and  C_5 
REMARK    4  A    between atoms: C_6  and  C_7 
REMARK    5  A    between atoms: C_18  and  S_19 
REMARK    6  A    between atoms: S_19  and  C_20 
REMARK    7  A    between atoms: C_20  and  C_21 
ROOT
HETATM    1  C   UNL     1      18.703  48.491  47.210  1.00  0.00     0.070 A 
HETATM    2  C   UNL     1      20.185  48.180  47.364  1.00  0.00     0.204 A 
HETATM    3  N   UNL     1      20.400  46.847  47.939  1.00  0.00    -0.082 N 
HETATM    4  C   UNL     1      19.394  45.980  48.265  1.00  0.00     0.726 A 
HETATM    5  N   UNL     1      18.115  46.351  48.063  1.00  0.00    -0.192 N 
HETATM    6  N   UNL     1      21.610  46.294  48.145  1.00  0.00    -0.128 NA
HETATM    7  C   UNL     1      21.259  45.121  48.685  1.00  0.00     0.226 A 
HETATM    8  N   UNL     1      19.909  44.878  48.745  1.00  0.00    -0.035 NA
HETATM    9  C   UNL     1      17.747  47.588  47.540  1.00  0.00     0.037 A 
HETATM   10  C   UNL     1      16.267  47.798  47.342  1.00  0.00     0.070 C 
HETATM   11  H   UNL     1      17.371  45.713  48.333  1.00  0.00     0.184 HD
ENDROOT
BRANCH   7  12
HETATM   12  S   UNL     1      22.472  44.012  49.255  1.00  0.00    -0.083 SA
BRANCH  12  13
HETATM   13  C   UNL     1      23.955  45.043  49.093  1.00  0.00     0.123 C 
BRANCH  13  14
HETATM   14  C   UNL     1      24.515  45.415  50.447  1.00  0.00    -0.027 A 
HETATM   15  C   UNL     1      24.889  46.725  50.784  1.00  0.00     0.041 A 
HETATM   16 CL   UNL     1      24.719  48.043  49.679  1.00  0.00    -0.084 Cl
HETATM   17  C   UNL     1      25.425  47.011  52.045  1.00  0.00     0.024 A 
HETATM   18  C   UNL     1      25.603  45.994  52.981  1.00  0.00     0.002 A 
HETATM   19  C   UNL     1      25.247  44.688  52.660  1.00  0.00     0.001 A 
HETATM   20  C   UNL     1      24.708  44.399  51.404  1.00  0.00     0.009 A 
ENDBRANCH  13  14
ENDBRANCH  12  13
ENDBRANCH   7  12
BRANCH   2  21
HETATM   21  C   UNL     1      20.987  49.234  48.126  1.00  0.00    -0.006 A 
HETATM   22  C   UNL     1      20.705  49.650  49.440  1.00  0.00     0.042 A 
HETATM   23 CL   UNL     1      19.374  49.033  50.350  1.00  0.00    -0.084 Cl
HETATM   24  C   UNL     1      21.506  50.610  50.070  1.00  0.00     0.024 A 
HETATM   25  C   UNL     1      22.593  51.173  49.406  1.00  0.00     0.002 A 
HETATM   26  C   UNL     1      22.883  50.781  48.104  1.00  0.00     0.001 A 
HETATM   27  C   UNL     1      22.089  49.824  47.470  1.00  0.00     0.011 A 
ENDBRANCH   2  21
BRANCH   1  28
HETATM   28  C   UNL     1      18.431  49.820  46.629  1.00  0.00     0.293 C 
HETATM   29  O   UNL     1      18.727  50.114  45.483  1.00  0.00    -0.259 OA
BRANCH  28  30
HETATM   30  O   UNL     1      17.917  50.648  47.571  1.00  0.00    -0.318 OA
BRANCH  30  31
HETATM   31  C   UNL     1      18.485  51.966  47.621  1.00  0.00     0.174 C 
HETATM   32  C   UNL     1      18.406  52.531  49.026  1.00  0.00     0.034 C 
ENDBRANCH  30  31
ENDBRANCH  28  30
ENDBRANCH   1  28
TORSDOF 7
ENDMDL
MODEL 3
REMARK VINA RESULT:      -8.4     12.839     15.399
REMARK  7 active torsions:
REMARK  status: ('A' for Active; 'I' for Inactive)
REMARK    1  A    between atoms: C_2  and  O_3 
REMARK    2  A    between atoms: O_3  and  C_4 
REMARK    3  A    between atoms: C_4  and  C_5 
REMARK    4  A    between atoms: C_6  and  C_7 
REMARK    5  A    between atoms: C_18  and  S_19 
REMARK    6  A    between atoms: S_19  and  C_20 
REMARK    7  A    between atoms: C_20  and  C_21 
ROOT
HETATM    1  C   UNL     1      32.216  50.465  41.140  1.00  0.00     0.070 A 
HETATM    2  C   UNL     1      30.732  50.254  40.875  1.00  0.00     0.204 A 
HETATM    3  N   UNL     1      30.435  48.853  40.550  1.00  0.00    -0.082 N 
HETATM    4  C   UNL     1      31.372  47.857  40.522  1.00  0.00     0.726 A 
HETATM    5  N   UNL     1      32.656  48.153  40.798  1.00  0.00    -0.192 N 
HETATM    6  N   UNL     1      29.200  48.372  40.314  1.00  0.00    -0.128 NA
HETATM    7  C   UNL     1      29.477  47.088  40.059  1.00  0.00     0.226 A 
HETATM    8  N   UNL     1      30.794  46.726  40.209  1.00  0.00    -0.035 NA
HETATM    9  C   UNL     1      33.099  49.436  41.109  1.00  0.00     0.037 A 
HETATM   10  C   UNL     1      34.566  49.558  41.437  1.00  0.00     0.070 C 
HETATM   11  H   UNL     1      33.351  47.414  40.749  1.00  0.00     0.184 HD
ENDROOT
BRANCH   7  12
HETATM   12  S   UNL     1      28.216  45.991  39.577  1.00  0.00    -0.083 SA
BRANCH  12  13
HETATM   13  C   UNL     1      27.421  46.966  38.272  1.00  0.00     0.123 C 
BRANCH  13  14
HETATM   14  C   UNL     1      26.084  47.505  38.727  1.00  0.00    -0.027 A 
HETATM   15  C   UNL     1      25.744  48.865  38.649  1.00  0.00     0.041 A 
HETATM   16 CL   UNL     1      26.824  50.047  37.999  1.00  0.00    -0.084 Cl
HETATM   17  C   UNL     1      24.500  49.315  39.106  1.00  0.00     0.024 A 
HETATM   18  C   UNL     1      23.585  48.418  39.654  1.00  0.00     0.002 A 
HETATM   19  C   UNL     1      23.910  47.069  39.749  1.00  0.00     0.001 A 
HETATM   20  C   UNL     1      25.149  46.615  39.290  1.00  0.00     0.009 A 
ENDBRANCH  13  14
ENDBRANCH  12  13
ENDBRANCH   7  12
BRANCH   2  21
HETATM   21  C   UNL     1      30.127  51.191  39.832  1.00  0.00    -0.006 A 
HETATM   22  C   UNL     1      29.185  52.196  40.117  1.00  0.00     0.042 A 
HETATM   23 CL   UNL     1      28.562  52.469  41.704  1.00  0.00    -0.084 Cl
HETATM   24  C   UNL     1      28.696  53.024  39.099  1.00  0.00     0.024 A 
HETATM   25  C   UNL     1      29.133  52.866  37.786  1.00  0.00     0.002 A 
HETATM   26  C   UNL     1      30.058  51.874  37.482  1.00  0.00     0.001 A 
HETATM   27  C   UNL     1      30.549  51.045  38.492  1.00  0.00     0.011 A 
ENDBRANCH   2  21
BRANCH   1  28
HETATM   28  C   UNL     1      32.568  51.857  41.478  1.00  0.00     0.293 C 
HETATM   29  O   UNL     1      33.349  52.520  40.817  1.00  0.00    -0.259 OA
BRANCH  28  30
HETATM   30  O   UNL     1      31.985  52.219  42.647  1.00  0.00    -0.318 OA
BRANCH  30  31
HETATM   31  C   UNL     1      32.420  51.500  43.810  1.00  0.00     0.174 C 
HETATM   32  C   UNL     1      33.782  51.990  44.266  1.00  0.00     0.034 C 
ENDBRANCH  30  31
ENDBRANCH  28  30
ENDBRANCH   1  28
TORSDOF 7
ENDMDL
MODEL 4
REMARK VINA RESULT:      -8.3      2.829      4.644
REMARK  7 active torsions:
REMARK  status: ('A' for Active; 'I' for Inactive)
REMARK    1  A    between atoms: C_2  and  O_3 
REMARK    2  A    between atoms: O_3  and  C_4 
REMARK    3  A    between atoms: C_4  and  C_5 
REMARK    4  A    between atoms: C_6  and  C_7 
REMARK    5  A    between atoms: C_18  and  S_19 
REMARK    6  A    between atoms: S_19  and  C_20 
REMARK    7  A    between atoms: C_20  and  C_21 
ROOT
HETATM    1  C   UNL     1      23.265  45.799  49.397  1.00  0.00     0.070 A 
HETATM    2  C   UNL     1      23.504  44.560  50.248  1.00  0.00     0.204 A 
HETATM    3  N   UNL     1      24.462  44.824  51.328  1.00  0.00    -0.082 N 
HETATM    4  C   UNL     1      25.041  46.041  51.560  1.00  0.00     0.726 A 
HETATM    5  N   UNL     1      24.737  47.078  50.757  1.00  0.00    -0.192 N 
HETATM    6  N   UNL     1      24.826  43.922  52.259  1.00  0.00    -0.128 NA
HETATM    7  C   UNL     1      25.703  44.639  52.972  1.00  0.00     0.226 A 
HETATM    8  N   UNL     1      25.837  45.953  52.595  1.00  0.00    -0.035 NA
HETATM    9  C   UNL     1      23.859  46.985  49.681  1.00  0.00     0.037 A 
HETATM   10  C   UNL     1      23.608  48.269  48.930  1.00  0.00     0.070 C 
HETATM   11  H   UNL     1      25.192  47.973  50.918  1.00  0.00     0.184 HD
ENDROOT
BRANCH   7  12
HETATM   12  S   UNL     1      26.584  43.909  54.281  1.00  0.00    -0.083 SA
BRANCH  12  13
HETATM   13  C   UNL     1      28.283  44.118  53.684  1.00  0.00     0.123 C 
BRANCH  13  14
HETATM   14  C   UNL     1      29.257  44.242  54.833  1.00  0.00    -0.027 A 
HETATM   15  C   UNL     1      29.382  45.409  55.604  1.00  0.00     0.041 A 
HETATM   16 CL   UNL     1      28.408  46.808  55.319  1.00  0.00    -0.084 Cl
HETATM   17  C   UNL     1      30.317  45.479  56.643  1.00  0.00     0.024 A 
HETATM   18  C   UNL     1      31.145  44.393  56.919  1.00  0.00     0.002 A 
HETATM   19  C   UNL     1      31.042  43.233  56.158  1.00  0.00     0.001 A 
HETATM   20  C   UNL     1      30.107  43.157  55.123  1.00  0.00     0.009 A 
ENDBRANCH  13  14
ENDBRANCH  12  13
ENDBRANCH   7  12
BRANCH   2  21
HETATM   21  C   UNL     1      23.903  43.311  49.464  1.00  0.00    -0.006 A 
HETATM   22  C   UNL     1      25.212  43.025  49.038  1.00  0.00     0.042 A 
HETATM   23 CL   UNL     1      26.542  44.089  49.323  1.00  0.00    -0.084 Cl
HETATM   24  C   UNL     1      25.492  41.844  48.339  1.00  0.00     0.024 A 
HETATM   25  C   UNL     1      24.478  40.933  48.052  1.00  0.00     0.002 A 
HETATM   26  C   UNL     1      23.175  41.201  48.458  1.00  0.00     0.001 A 
HETATM   27  C   UNL     1      22.890  42.377  49.155  1.00  0.00     0.011 A 
ENDBRANCH   2  21
BRANCH   1  28
HETATM   28  C   UNL     1      22.303  45.590  48.298  1.00  0.00     0.293 C 
HETATM   29  O   UNL     1      21.099  45.519  48.477  1.00  0.00    -0.259 OA
BRANCH  28  30
HETATM   30  O   UNL     1      22.960  45.395  47.128  1.00  0.00    -0.318 OA
BRANCH  30  31
HETATM   31  C   UNL     1      22.303  44.545  46.177  1.00  0.00     0.174 C 
HETATM   32  C   UNL     1      23.296  43.597  45.529  1.00  0.00     0.034 C 
ENDBRANCH  30  31
ENDBRANCH  28  30
ENDBRANCH   1  28
TORSDOF 7
ENDMDL
MODEL 5
REMARK VINA RESULT:      -8.2      6.785      9.086
REMARK  7 active torsions:
REMARK  status: ('A' for Active; 'I' for Inactive)
REMARK    1  A    between atoms: C_2  and  O_3 
REMARK    2  A    between atoms: O_3  and  C_4 
REMARK    3  A    between atoms: C_4  and  C_5 
REMARK    4  A    between atoms: C_6  and  C_7 
REMARK    5  A    between atoms: C_18  and  S_19 
REMARK    6  A    between atoms: S_19  and  C_20 
REMARK    7  A    between atoms: C_20  and  C_21 
ROOT
HETATM    1  C   UNL     1      19.451  47.503  46.891  1.00  0.00     0.070 A 
HETATM    2  C   UNL     1      20.511  48.464  47.411  1.00  0.00     0.204 A 
HETATM    3  N   UNL     1      21.587  47.753  48.112  1.00  0.00    -0.082 N 
HETATM    4  C   UNL     1      21.645  46.394  48.251  1.00  0.00     0.726 A 
HETATM    5  N   UNL     1      20.662  45.636  47.728  1.00  0.00    -0.192 N 
HETATM    6  N   UNL     1      22.676  48.347  48.635  1.00  0.00    -0.128 NA
HETATM    7  C   UNL     1      23.309  47.290  49.158  1.00  0.00     0.226 A 
HETATM    8  N   UNL     1      22.725  46.071  48.915  1.00  0.00    -0.035 NA
HETATM    9  C   UNL     1      19.566  46.161  47.049  1.00  0.00     0.037 A 
HETATM   10  C   UNL     1      18.597  45.148  46.493  1.00  0.00     0.070 C 
HETATM   11  H   UNL     1      20.697  44.629  47.859  1.00  0.00     0.184 HD
ENDROOT
BRANCH   7  12
HETATM   12  S   UNL     1      24.773  47.501  50.073  1.00  0.00    -0.083 SA
BRANCH  12  13
HETATM   13  C   UNL     1      24.845  45.910  50.940  1.00  0.00     0.123 C 
BRANCH  13  14
HETATM   14  C   UNL     1      25.717  45.995  52.171  1.00  0.00    -0.027 A 
HETATM   15  C   UNL     1      26.539  44.940  52.597  1.00  0.00     0.041 A 
HETATM   16 CL   UNL     1      26.644  43.448  51.730  1.00  0.00    -0.084 Cl
HETATM   17  C   UNL     1      27.311  45.062  53.758  1.00  0.00     0.024 A 
HETATM   18  C   UNL     1      27.265  46.233  54.513  1.00  0.00     0.002 A 
HETATM   19  C   UNL     1      26.448  47.284  54.111  1.00  0.00     0.001 A 
HETATM   20  C   UNL     1      25.679  47.167  52.951  1.00  0.00     0.009 A 
ENDBRANCH  13  14
ENDBRANCH  12  13
ENDBRANCH   7  12
BRANCH   2  21
HETATM   21  C   UNL     1      19.974  49.611  48.265  1.00  0.00    -0.006 A 
HETATM   22  C   UNL     1      19.284  49.442  49.479  1.00  0.00     0.042 A 
HETATM   23 CL   UNL     1      18.923  47.889  50.141  1.00  0.00    -0.084 Cl
HETATM   24  C   UNL     1      18.842  50.553  50.208  1.00  0.00     0.024 A 
HETATM   25  C   UNL     1      19.076  51.845  49.742  1.00  0.00     0.002 A 
HETATM   26  C   UNL     1      19.750  52.033  48.541  1.00  0.00     0.001 A 
HETATM   27  C   UNL     1      20.193  50.930  47.809  1.00  0.00     0.011 A 
ENDBRANCH   2  21
BRANCH   1  28
HETATM   28  C   UNL     1      18.347  48.167  46.171  1.00  0.00     0.293 C 
HETATM   29  O   UNL     1      18.499  48.722  45.096  1.00  0.00    -0.259 OA
BRANCH  28  30
HETATM   30  O   UNL     1      17.218  48.146  46.920  1.00  0.00    -0.318 OA
BRANCH  30  31
HETATM   31  C   UNL     1      16.258  49.174  46.631  1.00  0.00     0.174 C 
HETATM   32  C   UNL     1      15.982  50.012  47.865  1.00  0.00     0.034 C 
ENDBRANCH  30  31
ENDBRANCH  28  30
ENDBRANCH   1  28
TORSDOF 7
ENDMDL
MODEL 6
REMARK VINA RESULT:      -8.1      3.933      7.877
REMARK  7 active torsions:
REMARK  status: ('A' for Active; 'I' for Inactive)
REMARK    1  A    between atoms: C_2  and  O_3 
REMARK    2  A    between atoms: O_3  and  C_4 
REMARK    3  A    between atoms: C_4  and  C_5 
REMARK    4  A    between atoms: C_6  and  C_7 
REMARK    5  A    between atoms: C_18  and  S_19 
REMARK    6  A    between atoms: S_19  and  C_20 
REMARK    7  A    between atoms: C_20  and  C_21 
ROOT
HETATM    1  C   UNL     1      26.485  42.545  50.638  1.00  0.00     0.070 A 
HETATM    2  C   UNL     1      25.276  43.319  51.144  1.00  0.00     0.204 A 
HETATM    3  N   UNL     1      24.339  43.629  50.057  1.00  0.00    -0.082 N 
HETATM    4  C   UNL     1      24.516  43.239  48.758  1.00  0.00     0.726 A 
HETATM    5  N   UNL     1      25.613  42.534  48.426  1.00  0.00    -0.192 N 
HETATM    6  N   UNL     1      23.165  44.265  50.223  1.00  0.00    -0.128 NA
HETATM    7  C   UNL     1      22.723  44.308  48.961  1.00  0.00     0.226 A 
HETATM    8  N   UNL     1      23.508  43.660  48.038  1.00  0.00    -0.035 NA
HETATM    9  C   UNL     1      26.602  42.176  49.339  1.00  0.00     0.037 A 
HETATM   10  C   UNL     1      27.730  41.343  48.784  1.00  0.00     0.070 C 
HETATM   11  H   UNL     1      25.752  42.272  47.454  1.00  0.00     0.184 HD
ENDROOT
BRANCH   7  12
HETATM   12  S   UNL     1      21.246  45.138  48.569  1.00  0.00    -0.083 SA
BRANCH  12  13
HETATM   13  C   UNL     1      21.875  46.393  47.421  1.00  0.00     0.123 C 
BRANCH  13  14
HETATM   14  C   UNL     1      21.540  47.788  47.895  1.00  0.00    -0.027 A 
HETATM   15  C   UNL     1      22.285  48.458  48.878  1.00  0.00     0.041 A 
HETATM   16 CL   UNL     1      23.676  47.751  49.619  1.00  0.00    -0.084 Cl
HETATM   17  C   UNL     1      21.917  49.742  49.297  1.00  0.00     0.024 A 
HETATM   18  C   UNL     1      20.799  50.368  48.751  1.00  0.00     0.002 A 
HETATM   19  C   UNL     1      20.043  49.713  47.784  1.00  0.00     0.001 A 
HETATM   20  C   UNL     1      20.408  48.434  47.359  1.00  0.00     0.009 A 
ENDBRANCH  13  14
ENDBRANCH  12  13
ENDBRANCH   7  12
BRANCH   2  21
HETATM   21  C   UNL     1      25.609  44.577  51.946  1.00  0.00    -0.006 A 
HETATM   22  C   UNL     1      26.196  45.733  51.402  1.00  0.00     0.042 A 
HETATM   23 CL   UNL     1      26.651  45.858  49.741  1.00  0.00    -0.084 Cl
HETATM   24  C   UNL     1      26.449  46.850  52.208  1.00  0.00     0.024 A 
HETATM   25  C   UNL     1      26.128  46.833  53.563  1.00  0.00     0.002 A 
HETATM   26  C   UNL     1      25.554  45.697  54.122  1.00  0.00     0.001 A 
HETATM   27  C   UNL     1      25.298  44.581  53.323  1.00  0.00     0.011 A 
ENDBRANCH   2  21
BRANCH   1  28
HETATM   28  C   UNL     1      27.457  42.203  51.694  1.00  0.00     0.293 C 
HETATM   29  O   UNL     1      27.312  41.250  52.442  1.00  0.00    -0.259 OA
BRANCH  28  30
HETATM   30  O   UNL     1      28.434  43.139  51.755  1.00  0.00    -0.318 OA
BRANCH  30  31
HETATM   31  C   UNL     1      29.327  43.038  52.874  1.00  0.00     0.174 C 
HETATM   32  C   UNL     1      28.935  44.020  53.963  1.00  0.00     0.034 C 
ENDBRANCH  30  31
ENDBRANCH  28  30
ENDBRANCH   1  28
TORSDOF 7
ENDMDL
MODEL 7
REMARK VINA RESULT:      -8.1      2.700      4.649
REMARK  7 active torsions:
REMARK  status: ('A' for Active; 'I' for Inactive)
REMARK    1  A    between atoms: C_2  and  O_3 
REMARK    2  A    between atoms: O_3  and  C_4 
REMARK    3  A    between atoms: C_4  and  C_5 
REMARK    4  A    between atoms: C_6  and  C_7 
REMARK    5  A    between atoms: C_18  and  S_19 
REMARK    6  A    between atoms: S_19  and  C_20 
REMARK    7  A    between atoms: C_20  and  C_21 
ROOT
HETATM    1  C   UNL     1      23.931  45.623  49.703  1.00  0.00     0.070 A 
HETATM    2  C   UNL     1      24.301  44.460  50.612  1.00  0.00     0.204 A 
HETATM    3  N   UNL     1      25.087  44.907  51.769  1.00  0.00    -0.082 N 
HETATM    4  C   UNL     1      25.415  46.211  52.015  1.00  0.00     0.726 A 
HETATM    5  N   UNL     1      25.013  47.165  51.154  1.00  0.00    -0.192 N 
HETATM    6  N   UNL     1      25.511  44.099  52.758  1.00  0.00    -0.128 NA
HETATM    7  C   UNL     1      26.173  44.972  53.527  1.00  0.00     0.226 A 
HETATM    8  N   UNL     1      26.109  46.283  53.122  1.00  0.00    -0.035 NA
HETATM    9  C   UNL     1      24.275  46.899  50.003  1.00  0.00     0.037 A 
HETATM   10  C   UNL     1      23.876  48.107  49.191  1.00  0.00     0.070 C 
HETATM   11  H   UNL     1      25.284  48.129  51.328  1.00  0.00     0.184 HD
ENDROOT
BRANCH   7  12
HETATM   12  S   UNL     1      27.037  44.431  54.936  1.00  0.00    -0.083 SA
BRANCH  12  13
HETATM   13  C   UNL     1      28.552  45.416  54.784  1.00  0.00     0.123 C 
BRANCH  13  14
HETATM   14  C   UNL     1      29.610  44.949  55.758  1.00  0.00    -0.027 A 
HETATM   15  C   UNL     1      30.457  43.860  55.498  1.00  0.00     0.041 A 
HETATM   16 CL   UNL     1      30.380  42.966  54.021  1.00  0.00    -0.084 Cl
HETATM   17  C   UNL     1      31.405  43.455  56.444  1.00  0.00     0.024 A 
HETATM   18  C   UNL     1      31.513  44.122  57.663  1.00  0.00     0.002 A 
HETATM   19  C   UNL     1      30.674  45.196  57.940  1.00  0.00     0.001 A 
HETATM   20  C   UNL     1      29.729  45.607  56.997  1.00  0.00     0.009 A 
ENDBRANCH  13  14
ENDBRANCH  12  13
ENDBRANCH   7  12
BRANCH   2  21
HETATM   21  C   UNL     1      24.989  43.290  49.910  1.00  0.00    -0.006 A 
HETATM   22  C   UNL     1      24.320  42.163  49.402  1.00  0.00     0.042 A 
HETATM   23 CL   UNL     1      22.613  41.946  49.547  1.00  0.00    -0.084 Cl
HETATM   24  C   UNL     1      25.029  41.144  48.754  1.00  0.00     0.024 A 
HETATM   25  C   UNL     1      26.412  41.229  48.605  1.00  0.00     0.002 A 
HETATM   26  C   UNL     1      27.094  42.332  49.107  1.00  0.00     0.001 A 
HETATM   27  C   UNL     1      26.391  43.350  49.753  1.00  0.00     0.011 A 
ENDBRANCH   2  21
BRANCH   1  28
HETATM   28  C   UNL     1      23.134  45.228  48.526  1.00  0.00     0.293 C 
HETATM   29  O   UNL     1      23.628  45.032  47.429  1.00  0.00    -0.259 OA
BRANCH  28  30
HETATM   30  O   UNL     1      21.814  45.221  48.832  1.00  0.00    -0.318 OA
BRANCH  30  31
HETATM   31  C   UNL     1      20.920  45.526  47.751  1.00  0.00     0.174 C 
HETATM   32  C   UNL     1      20.818  47.026  47.546  1.00  0.00     0.034 C 
ENDBRANCH  30  31
ENDBRANCH  28  30
ENDBRANCH   1  28
TORSDOF 7
ENDMDL
MODEL 8
REMARK VINA RESULT:      -8.0     15.603     17.257
REMARK  7 active torsions:
REMARK  status: ('A' for Active; 'I' for Inactive)
REMARK    1  A    between atoms: C_2  and  O_3 
REMARK    2  A    between atoms: O_3  and  C_4 
REMARK    3  A    between atoms: C_4  and  C_5 
REMARK    4  A    between atoms: C_6  and  C_7 
REMARK    5  A    between atoms: C_18  and  S_19 
REMARK    6  A    between atoms: S_19  and  C_20 
REMARK    7  A    between atoms: C_20  and  C_21 
ROOT
HETATM    1  C   UNL     1      31.994  49.550  39.995  1.00  0.00     0.070 A 
HETATM    2  C   UNL     1      32.160  50.789  39.127  1.00  0.00     0.204 A 
HETATM    3  N   UNL     1      33.415  51.490  39.420  1.00  0.00    -0.082 N 
HETATM    4  C   UNL     1      34.337  51.063  40.336  1.00  0.00     0.726 A 
HETATM    5  N   UNL     1      34.098  49.936  41.033  1.00  0.00    -0.192 N 
HETATM    6  N   UNL     1      33.842  52.591  38.773  1.00  0.00    -0.128 NA
HETATM    7  C   UNL     1      34.991  52.829  39.415  1.00  0.00     0.226 A 
HETATM    8  N   UNL     1      35.346  51.896  40.359  1.00  0.00    -0.035 NA
HETATM    9  C   UNL     1      32.947  49.168  40.881  1.00  0.00     0.037 A 
HETATM   10  C   UNL     1      32.885  47.913  41.716  1.00  0.00     0.070 C 
HETATM   11  H   UNL     1      34.774  49.639  41.732  1.00  0.00     0.184 HD
ENDROOT
BRANCH   7  12
HETATM   12  S   UNL     1      35.937  54.240  39.040  1.00  0.00    -0.083 SA
BRANCH  12  13
HETATM   13  C   UNL     1      34.890  55.532  39.762  1.00  0.00     0.123 C 
BRANCH  13  14
HETATM   14  C   UNL     1      35.085  56.854  39.055  1.00  0.00    -0.027 A 
HETATM   15  C   UNL     1      34.280  57.977  39.305  1.00  0.00     0.041 A 
HETATM   16 CL   UNL     1      33.002  57.953  40.468  1.00  0.00    -0.084 Cl
HETATM   17  C   UNL     1      34.488  59.171  38.605  1.00  0.00     0.024 A 
HETATM   18  C   UNL     1      35.493  59.258  37.643  1.00  0.00     0.002 A 
HETATM   19  C   UNL     1      36.292  58.151  37.376  1.00  0.00     0.001 A 
HETATM   20  C   UNL     1      36.090  56.958  38.075  1.00  0.00     0.009 A 
ENDBRANCH  13  14
ENDBRANCH  12  13
ENDBRANCH   7  12
BRANCH   2  21
HETATM   21  C   UNL     1      30.979  51.758  39.159  1.00  0.00    -0.006 A 
HETATM   22  C   UNL     1      30.614  52.528  40.277  1.00  0.00     0.042 A 
HETATM   23 CL   UNL     1      31.450  52.441  41.786  1.00  0.00    -0.084 Cl
HETATM   24  C   UNL     1      29.526  53.407  40.213  1.00  0.00     0.024 A 
HETATM   25  C   UNL     1      28.784  53.532  39.040  1.00  0.00     0.002 A 
HETATM   26  C   UNL     1      29.125  52.773  37.925  1.00  0.00     0.001 A 
HETATM   27  C   UNL     1      30.208  51.896  37.984  1.00  0.00     0.011 A 
ENDBRANCH   2  21
BRANCH   1  28
HETATM   28  C   UNL     1      30.748  48.804  39.735  1.00  0.00     0.293 C 
HETATM   29  O   UNL     1      30.559  48.168  38.711  1.00  0.00    -0.259 OA
BRANCH  28  30
HETATM   30  O   UNL     1      29.855  49.018  40.732  1.00  0.00    -0.318 OA
BRANCH  30  31
HETATM   31  C   UNL     1      28.481  49.121  40.328  1.00  0.00     0.174 C 
HETATM   32  C   UNL     1      27.789  50.253  41.062  1.00  0.00     0.034 C 
ENDBRANCH  30  31
ENDBRANCH  28  30
ENDBRANCH   1  28
TORSDOF 7
ENDMDL
MODEL 9
REMARK VINA RESULT:      -8.0      4.368      8.178
REMARK  7 active torsions:
REMARK  status: ('A' for Active; 'I' for Inactive)
REMARK    1  A    between atoms: C_2  and  O_3 
REMARK    2  A    between atoms: O_3  and  C_4 
REMARK    3  A    between atoms: C_4  and  C_5 
REMARK    4  A    between atoms: C_6  and  C_7 
REMARK    5  A    between atoms: C_18  and  S_19 
REMARK    6  A    between atoms: S_19  and  C_20 
REMARK    7  A    between atoms: C_20  and  C_21 
ROOT
HETATM    1  C   UNL     1      27.115  44.175  52.282  1.00  0.00     0.070 A 
HETATM    2  C   UNL     1      26.815  44.498  50.825  1.00  0.00     0.204 A 
HETATM    3  N   UNL     1      26.063  45.751  50.694  1.00  0.00    -0.082 N 
HETATM    4  C   UNL     1      25.707  46.547  51.748  1.00  0.00     0.726 A 
HETATM    5  N   UNL     1      26.048  46.176  52.997  1.00  0.00    -0.192 N 
HETATM    6  N   UNL     1      25.701  46.302  49.520  1.00  0.00    -0.128 NA
HETATM    7  C   UNL     1      25.046  47.389  49.945  1.00  0.00     0.226 A 
HETATM    8  N   UNL     1      25.056  47.591  51.304  1.00  0.00    -0.035 NA
HETATM    9  C   UNL     1      26.747  45.007  53.287  1.00  0.00     0.037 A 
HETATM   10  C   UNL     1      27.078  44.790  54.743  1.00  0.00     0.070 C 
HETATM   11  H   UNL     1      25.756  46.757  53.778  1.00  0.00     0.184 HD
ENDROOT
BRANCH   7  12
HETATM   12  S   UNL     1      24.254  48.443  48.811  1.00  0.00    -0.083 SA
BRANCH  12  13
HETATM   13  C   UNL     1      22.524  47.979  49.091  1.00  0.00     0.123 C 
BRANCH  13  14
HETATM   14  C   UNL     1      21.610  49.178  48.985  1.00  0.00    -0.027 A 
HETATM   15  C   UNL     1      20.210  49.075  49.018  1.00  0.00     0.041 A 
HETATM   16 CL   UNL     1      19.404  47.558  49.207  1.00  0.00    -0.084 Cl
HETATM   17  C   UNL     1      19.410  50.215  48.892  1.00  0.00     0.024 A 
HETATM   18  C   UNL     1      19.992  51.470  48.723  1.00  0.00     0.002 A 
HETATM   19  C   UNL     1      21.378  51.589  48.678  1.00  0.00     0.001 A 
HETATM   20  C   UNL     1      22.181  50.453  48.807  1.00  0.00     0.009 A 
ENDBRANCH  13  14
ENDBRANCH  12  13
ENDBRANCH   7  12
BRANCH   2  21
HETATM   21  C   UNL     1      26.133  43.374  50.047  1.00  0.00    -0.006 A 
HETATM   22  C   UNL     1      24.766  43.058  50.140  1.00  0.00     0.042 A 
HETATM   23 CL   UNL     1      23.684  43.895  51.194  1.00  0.00    -0.084 Cl
HETATM   24  C   UNL     1      24.219  42.022  49.374  1.00  0.00     0.024 A 
HETATM   25  C   UNL     1      25.022  41.283  48.507  1.00  0.00     0.002 A 
HETATM   26  C   UNL     1      26.377  41.574  48.405  1.00  0.00     0.001 A 
HETATM   27  C   UNL     1      26.928  42.607  49.167  1.00  0.00     0.011 A 
ENDBRANCH   2  21
BRANCH   1  28
HETATM   28  C   UNL     1      27.876  42.925  52.470  1.00  0.00     0.293 C 
HETATM   29  O   UNL     1      27.352  41.877  52.809  1.00  0.00    -0.259 OA
BRANCH  28  30
HETATM   30  O   UNL     1      29.203  43.153  52.311  1.00  0.00    -0.318 OA
BRANCH  30  31
HETATM   31  C   UNL     1      30.073  42.387  53.157  1.00  0.00     0.174 C 
HETATM   32  C   UNL     1      30.406  43.157  54.422  1.00  0.00     0.034 C 
ENDBRANCH  30  31
ENDBRANCH  28  30
ENDBRANCH   1  28
TORSDOF 7
ENDMDL
MODEL 10
REMARK VINA RESULT:      -7.9      6.946      9.898
REMARK  7 active torsions:
REMARK  status: ('A' for Active; 'I' for Inactive)
REMARK    1  A    between atoms: C_2  and  O_3 
REMARK    2  A    between atoms: O_3  and  C_4 
REMARK    3  A    between atoms: C_4  and  C_5 
REMARK    4  A    between atoms: C_6  and  C_7 
REMARK    5  A    between atoms: C_18  and  S_19 
REMARK    6  A    between atoms: S_19  and  C_20 
REMARK    7  A    between atoms: C_20  and  C_21 
ROOT
HETATM    1  C   UNL     1      18.706  48.355  47.673  1.00  0.00     0.070 A 
HETATM    2  C   UNL     1      20.203  48.119  47.528  1.00  0.00     0.204 A 
HETATM    3  N   UNL     1      20.589  46.788  48.011  1.00  0.00    -0.082 N 
HETATM    4  C   UNL     1      19.707  45.863  48.497  1.00  0.00     0.726 A 
HETATM    5  N   UNL     1      18.397  46.170  48.557  1.00  0.00    -0.192 N 
HETATM    6  N   UNL     1      21.840  46.294  47.962  1.00  0.00    -0.128 NA
HETATM    7  C   UNL     1      21.657  45.093  48.524  1.00  0.00     0.226 A 
HETATM    8  N   UNL     1      20.356  44.779  48.835  1.00  0.00    -0.035 NA
HETATM    9  C   UNL     1      17.877  47.397  48.153  1.00  0.00     0.037 A 
HETATM   10  C   UNL     1      16.378  47.533  48.250  1.00  0.00     0.070 C 
HETATM   11  H   UNL     1      17.751  45.489  48.945  1.00  0.00     0.184 HD
ENDROOT
BRANCH   7  12
HETATM   12  S   UNL     1      23.008  44.038  48.815  1.00  0.00    -0.083 SA
BRANCH  12  13
HETATM   13  C   UNL     1      23.663  44.765  50.341  1.00  0.00     0.123 C 
BRANCH  13  14
HETATM   14  C   UNL     1      24.713  45.811  50.045  1.00  0.00    -0.027 A 
HETATM   15  C   UNL     1      26.060  45.493  49.811  1.00  0.00     0.041 A 
HETATM   16 CL   UNL     1      26.636  43.864  49.818  1.00  0.00    -0.084 Cl
HETATM   17  C   UNL     1      26.996  46.503  49.563  1.00  0.00     0.024 A 
HETATM   18  C   UNL     1      26.604  47.841  49.555  1.00  0.00     0.002 A 
HETATM   19  C   UNL     1      25.275  48.173  49.796  1.00  0.00     0.001 A 
HETATM   20  C   UNL     1      24.336  47.168  50.040  1.00  0.00     0.009 A 
ENDBRANCH  13  14
ENDBRANCH  12  13
ENDBRANCH   7  12
BRANCH   2  21
HETATM   21  C   UNL     1      21.086  49.198  48.154  1.00  0.00    -0.006 A 
HETATM   22  C   UNL     1      20.924  49.699  49.458  1.00  0.00     0.042 A 
HETATM   23 CL   UNL     1      19.662  49.172  50.512  1.00  0.00    -0.084 Cl
HETATM   24  C   UNL     1      21.794  50.676  49.959  1.00  0.00     0.024 A 
HETATM   25  C   UNL     1      22.832  51.171  49.173  1.00  0.00     0.002 A 
HETATM   26  C   UNL     1      23.005  50.693  47.878  1.00  0.00     0.001 A 
HETATM   27  C   UNL     1      22.141  49.719  47.374  1.00  0.00     0.011 A 
ENDBRANCH   2  21
BRANCH   1  28
HETATM   28  C   UNL     1      18.264  49.680  47.196  1.00  0.00     0.293 C 
HETATM   29  O   UNL     1      17.993  50.598  47.953  1.00  0.00    -0.259 OA
BRANCH  28  30
HETATM   30  O   UNL     1      18.119  49.671  45.849  1.00  0.00    -0.318 OA
BRANCH  30  31
HETATM   31  C   UNL     1      18.219  50.948  45.201  1.00  0.00     0.174 C 
HETATM   32  C   UNL     1      18.502  50.778  43.720  1.00  0.00     0.034 C 
ENDBRANCH  30  31
ENDBRANCH  28  30
ENDBRANCH   1  28
TORSDOF 7
ENDMDL
