MODEL 1
REMARK VINA RESULT:      -9.8      0.000      0.000
REMARK  5 active torsions:
REMARK  status: ('A' for Active; 'I' for Inactive)
REMARK    1  A    between atoms: O_2  and  C_3 
REMARK    2  A    between atoms: C_7  and  C_8 
REMARK    3  A    between atoms: C_8  and  N_9 
REMARK       I    between atoms: N_9  and  C_10 
REMARK    4  A    between atoms: C_10  and  C_12 
REMARK    5  A    between atoms: C_18  and  C_22 
ROOT
HETATM    1  C   UNL     1      26.857  43.762  51.519  1.00  0.00     0.061 A 
HETATM    2  C   UNL     1      27.544  42.636  51.077  1.00  0.00     0.108 A 
HETATM    3  N   UNL     1      28.544  42.356  51.973  1.00  0.00    -0.349 N 
HETATM    4  H   UNL     1      29.212  41.600  51.916  1.00  0.00     0.167 HD
HETATM    5  C   UNL     1      28.528  43.270  52.986  1.00  0.00     0.139 A 
HETATM    6  N   UNL     1      29.387  43.262  54.020  1.00  0.00    -0.230 NA
HETATM    7  C   UNL     1      29.201  44.273  54.908  1.00  0.00     0.069 A 
HETATM    8  C   UNL     1      28.192  45.233  54.774  1.00  0.00     0.033 A 
HETATM    9  C   UNL     1      27.322  45.193  53.679  1.00  0.00     0.018 A 
HETATM   10  C   UNL     1      27.498  44.165  52.740  1.00  0.00     0.027 A 
ENDROOT
BRANCH   1  11
HETATM   11  C   UNL     1      25.723  44.424  50.874  1.00  0.00     0.254 C 
HETATM   12  N   UNL     1      25.682  45.790  51.017  1.00  0.00    -0.353 N 
HETATM   13  H   UNL     1      26.470  46.276  51.419  1.00  0.00     0.163 HD
HETATM   14  O   UNL     1      24.873  43.806  50.240  1.00  0.00    -0.268 OA
BRANCH  12  15
HETATM   15  C   UNL     1      24.644  46.572  50.393  1.00  0.00     0.161 C 
BRANCH  15  16
HETATM   16  C   UNL     1      25.231  47.756  49.673  1.00  0.00    -0.038 A 
HETATM   17  C   UNL     1      26.620  47.952  49.657  1.00  0.00     0.009 A 
HETATM   18  C   UNL     1      27.171  49.029  48.969  1.00  0.00     0.003 A 
HETATM   19  C   UNL     1      26.338  49.916  48.288  1.00  0.00     0.037 A 
HETATM   20  C   UNL     1      24.953  49.737  48.286  1.00  0.00     0.068 A 
HETATM   21  C   UNL     1      24.403  48.654  48.977  1.00  0.00     0.045 A 
BRANCH  20  22
HETATM   22  O   UNL     1      24.258  50.677  47.577  1.00  0.00    -0.356 OA
HETATM   23  C   UNL     1      22.840  50.562  47.569  1.00  0.00     0.210 C 
ENDBRANCH  20  22
ENDBRANCH  15  16
ENDBRANCH  12  15
ENDBRANCH   1  11
BRANCH   7  24
HETATM   24  C   UNL     1      30.147  44.277  56.047  1.00  0.00    -0.005 A 
HETATM   25  C   UNL     1      31.149  43.309  56.194  1.00  0.00     0.033 A 
HETATM   26  C   UNL     1      32.003  43.373  57.287  1.00  0.00     0.117 A 
HETATM   27  N   UNL     1      31.935  44.323  58.240  1.00  0.00    -0.273 NA
HETATM   28  C   UNL     1      30.961  45.244  58.099  1.00  0.00     0.117 A 
HETATM   29  C   UNL     1      30.063  45.261  57.043  1.00  0.00     0.033 A 
ENDBRANCH   7  24
TORSDOF 5
ENDMDL
MODEL 2
REMARK VINA RESULT:      -9.6      2.010      2.944
REMARK  5 active torsions:
REMARK  status: ('A' for Active; 'I' for Inactive)
REMARK    1  A    between atoms: O_2  and  C_3 
REMARK    2  A    between atoms: C_7  and  C_8 
REMARK    3  A    between atoms: C_8  and  N_9 
REMARK       I    between atoms: N_9  and  C_10 
REMARK    4  A    between atoms: C_10  and  C_12 
REMARK    5  A    between atoms: C_18  and  C_22 
ROOT
HETATM    1  C   UNL     1      25.826  46.636  53.061  1.00  0.00     0.061 A 
HETATM    2  C   UNL     1      25.639  47.749  53.874  1.00  0.00     0.108 A 
HETATM    3  N   UNL     1      26.548  47.697  54.900  1.00  0.00    -0.349 N 
HETATM    4  H   UNL     1      26.650  48.365  55.651  1.00  0.00     0.167 HD
HETATM    5  C   UNL     1      27.322  46.580  54.778  1.00  0.00     0.139 A 
HETATM    6  N   UNL     1      28.305  46.249  55.631  1.00  0.00    -0.230 NA
HETATM    7  C   UNL     1      28.940  45.087  55.328  1.00  0.00     0.069 A 
HETATM    8  C   UNL     1      28.614  44.304  54.214  1.00  0.00     0.033 A 
HETATM    9  C   UNL     1      27.582  44.697  53.355  1.00  0.00     0.018 A 
HETATM   10  C   UNL     1      26.902  45.890  53.650  1.00  0.00     0.027 A 
ENDROOT
BRANCH   1  11
HETATM   11  C   UNL     1      25.075  46.276  51.858  1.00  0.00     0.254 C 
HETATM   12  N   UNL     1      24.943  47.278  50.927  1.00  0.00    -0.353 N 
HETATM   13  H   UNL     1      25.463  48.135  51.037  1.00  0.00     0.163 HD
HETATM   14  O   UNL     1      24.603  45.156  51.687  1.00  0.00    -0.268 OA
BRANCH  12  15
HETATM   15  C   UNL     1      24.265  47.045  49.677  1.00  0.00     0.161 C 
BRANCH  15  16
HETATM   16  C   UNL     1      23.725  48.333  49.117  1.00  0.00    -0.038 A 
HETATM   17  C   UNL     1      24.601  49.285  48.575  1.00  0.00     0.009 A 
HETATM   18  C   UNL     1      24.105  50.466  48.029  1.00  0.00     0.003 A 
HETATM   19  C   UNL     1      22.731  50.702  48.017  1.00  0.00     0.037 A 
HETATM   20  C   UNL     1      21.841  49.765  48.546  1.00  0.00     0.068 A 
HETATM   21  C   UNL     1      22.341  48.580  49.092  1.00  0.00     0.045 A 
BRANCH  20  22
HETATM   22  O   UNL     1      20.523  50.121  48.466  1.00  0.00    -0.356 OA
HETATM   23  C   UNL     1      20.214  51.497  48.648  1.00  0.00     0.210 C 
ENDBRANCH  20  22
ENDBRANCH  15  16
ENDBRANCH  12  15
ENDBRANCH   1  11
BRANCH   7  24
HETATM   24  C   UNL     1      30.021  44.710  56.267  1.00  0.00    -0.005 A 
HETATM   25  C   UNL     1      30.258  45.408  57.459  1.00  0.00     0.033 A 
HETATM   26  C   UNL     1      31.289  44.999  58.294  1.00  0.00     0.117 A 
HETATM   27  N   UNL     1      32.100  43.955  58.033  1.00  0.00    -0.273 NA
HETATM   28  C   UNL     1      31.874  43.296  56.879  1.00  0.00     0.117 A 
HETATM   29  C   UNL     1      30.870  43.629  55.984  1.00  0.00     0.033 A 
ENDBRANCH   7  24
TORSDOF 5
ENDMDL
MODEL 3
REMARK VINA RESULT:      -9.5      2.723      8.116
REMARK  5 active torsions:
REMARK  status: ('A' for Active; 'I' for Inactive)
REMARK    1  A    between atoms: O_2  and  C_3 
REMARK    2  A    between atoms: C_7  and  C_8 
REMARK    3  A    between atoms: C_8  and  N_9 
REMARK       I    between atoms: N_9  and  C_10 
REMARK    4  A    between atoms: C_10  and  C_12 
REMARK    5  A    between atoms: C_18  and  C_22 
ROOT
HETATM    1  C   UNL     1      27.317  42.976  51.014  1.00  0.00     0.061 A 
HETATM    2  C   UNL     1      27.065  42.416  49.766  1.00  0.00     0.108 A 
HETATM    3  N   UNL     1      26.421  43.348  48.992  1.00  0.00    -0.349 N 
HETATM    4  H   UNL     1      26.105  43.229  48.040  1.00  0.00     0.167 HD
HETATM    5  C   UNL     1      26.247  44.500  49.703  1.00  0.00     0.139 A 
HETATM    6  N   UNL     1      25.647  45.600  49.218  1.00  0.00    -0.230 NA
HETATM    7  C   UNL     1      25.568  46.629  50.101  1.00  0.00     0.069 A 
HETATM    8  C   UNL     1      26.080  46.561  51.402  1.00  0.00     0.033 A 
HETATM    9  C   UNL     1      26.698  45.392  51.856  1.00  0.00     0.018 A 
HETATM   10  C   UNL     1      26.785  44.309  50.967  1.00  0.00     0.027 A 
ENDROOT
BRANCH   1  11
HETATM   11  C   UNL     1      27.973  42.342  52.158  1.00  0.00     0.254 C 
HETATM   12  N   UNL     1      29.086  42.994  52.632  1.00  0.00    -0.353 N 
HETATM   13  H   UNL     1      29.315  43.913  52.282  1.00  0.00     0.163 HD
HETATM   14  O   UNL     1      27.555  41.306  52.667  1.00  0.00    -0.268 OA
BRANCH  12  15
HETATM   15  C   UNL     1      29.802  42.503  53.782  1.00  0.00     0.161 C 
BRANCH  15  16
HETATM   16  C   UNL     1      29.880  43.560  54.851  1.00  0.00    -0.038 A 
HETATM   17  C   UNL     1      30.889  43.503  55.823  1.00  0.00     0.009 A 
HETATM   18  C   UNL     1      30.985  44.494  56.796  1.00  0.00     0.003 A 
HETATM   19  C   UNL     1      30.074  45.550  56.803  1.00  0.00     0.037 A 
HETATM   20  C   UNL     1      29.064  45.628  55.842  1.00  0.00     0.068 A 
HETATM   21  C   UNL     1      28.972  44.633  54.865  1.00  0.00     0.045 A 
BRANCH  20  22
HETATM   22  O   UNL     1      28.244  46.716  55.963  1.00  0.00    -0.356 OA
HETATM   23  C   UNL     1      27.895  47.399  54.766  1.00  0.00     0.210 C 
ENDBRANCH  20  22
ENDBRANCH  15  16
ENDBRANCH  12  15
ENDBRANCH   1  11
BRANCH   7  24
HETATM   24  C   UNL     1      24.903  47.844  49.578  1.00  0.00    -0.005 A 
HETATM   25  C   UNL     1      23.512  48.011  49.610  1.00  0.00     0.033 A 
HETATM   26  C   UNL     1      22.954  49.176  49.101  1.00  0.00     0.117 A 
HETATM   27  N   UNL     1      23.673  50.183  48.566  1.00  0.00    -0.273 NA
HETATM   28  C   UNL     1      25.009  50.010  48.528  1.00  0.00     0.117 A 
HETATM   29  C   UNL     1      25.655  48.883  49.010  1.00  0.00     0.033 A 
ENDBRANCH   7  24
TORSDOF 5
ENDMDL
MODEL 4
REMARK VINA RESULT:      -9.4      2.100      2.834
REMARK  5 active torsions:
REMARK  status: ('A' for Active; 'I' for Inactive)
REMARK    1  A    between atoms: O_2  and  C_3 
REMARK    2  A    between atoms: C_7  and  C_8 
REMARK    3  A    between atoms: C_8  and  N_9 
REMARK       I    between atoms: N_9  and  C_10 
REMARK    4  A    between atoms: C_10  and  C_12 
REMARK    5  A    between atoms: C_18  and  C_22 
ROOT
HETATM    1  C   UNL     1      27.705  42.141  51.112  1.00  0.00     0.061 A 
HETATM    2  C   UNL     1      28.366  40.918  51.166  1.00  0.00     0.108 A 
HETATM    3  N   UNL     1      29.175  40.909  52.275  1.00  0.00    -0.349 N 
HETATM    4  H   UNL     1      29.780  40.158  52.574  1.00  0.00     0.167 HD
HETATM    5  C   UNL     1      29.059  42.093  52.942  1.00  0.00     0.139 A 
HETATM    6  N   UNL     1      29.727  42.388  54.070  1.00  0.00    -0.230 NA
HETATM    7  C   UNL     1      29.474  43.630  54.560  1.00  0.00     0.069 A 
HETATM    8  C   UNL     1      28.582  44.523  53.957  1.00  0.00     0.033 A 
HETATM    9  C   UNL     1      27.909  44.164  52.784  1.00  0.00     0.018 A 
HETATM   10  C   UNL     1      28.160  42.890  52.249  1.00  0.00     0.027 A 
ENDROOT
BRANCH   1  11
HETATM   11  C   UNL     1      26.754  42.595  50.097  1.00  0.00     0.254 C 
HETATM   12  N   UNL     1      25.485  42.857  50.558  1.00  0.00    -0.353 N 
HETATM   13  H   UNL     1      25.305  42.864  51.550  1.00  0.00     0.163 HD
HETATM   14  O   UNL     1      27.066  42.741  48.919  1.00  0.00    -0.268 OA
BRANCH  12  15
HETATM   15  C   UNL     1      24.462  43.353  49.673  1.00  0.00     0.161 C 
BRANCH  15  16
HETATM   16  C   UNL     1      24.343  44.849  49.785  1.00  0.00    -0.038 A 
HETATM   17  C   UNL     1      23.490  45.553  48.922  1.00  0.00     0.009 A 
HETATM   18  C   UNL     1      23.353  46.934  49.039  1.00  0.00     0.003 A 
HETATM   19  C   UNL     1      24.066  47.621  50.023  1.00  0.00     0.037 A 
HETATM   20  C   UNL     1      24.916  46.938  50.896  1.00  0.00     0.068 A 
HETATM   21  C   UNL     1      25.050  45.553  50.776  1.00  0.00     0.045 A 
BRANCH  20  22
HETATM   22  O   UNL     1      25.548  47.733  51.812  1.00  0.00    -0.356 OA
HETATM   23  C   UNL     1      25.759  47.184  53.106  1.00  0.00     0.210 C 
ENDBRANCH  20  22
ENDBRANCH  15  16
ENDBRANCH  12  15
ENDBRANCH   1  11
BRANCH   7  24
HETATM   24  C   UNL     1      30.210  43.967  55.799  1.00  0.00    -0.005 A 
HETATM   25  C   UNL     1      31.224  43.149  56.317  1.00  0.00     0.033 A 
HETATM   26  C   UNL     1      31.875  43.527  57.484  1.00  0.00     0.117 A 
HETATM   27  N   UNL     1      31.594  44.651  58.172  1.00  0.00    -0.273 NA
HETATM   28  C   UNL     1      30.609  45.427  57.676  1.00  0.00     0.117 A 
HETATM   29  C   UNL     1      29.905  45.132  56.519  1.00  0.00     0.033 A 
ENDBRANCH   7  24
TORSDOF 5
ENDMDL
MODEL 5
REMARK VINA RESULT:      -9.4      3.386      6.676
REMARK  5 active torsions:
REMARK  status: ('A' for Active; 'I' for Inactive)
REMARK    1  A    between atoms: O_2  and  C_3 
REMARK    2  A    between atoms: C_7  and  C_8 
REMARK    3  A    between atoms: C_8  and  N_9 
REMARK       I    between atoms: N_9  and  C_10 
REMARK    4  A    between atoms: C_10  and  C_12 
REMARK    5  A    between atoms: C_18  and  C_22 
ROOT
HETATM    1  C   UNL     1      26.873  44.031  51.487  1.00  0.00     0.061 A 
HETATM    2  C   UNL     1      26.020  45.001  52.003  1.00  0.00     0.108 A 
HETATM    3  N   UNL     1      26.501  45.400  53.224  1.00  0.00    -0.349 N 
HETATM    4  H   UNL     1      26.091  46.088  53.840  1.00  0.00     0.167 HD
HETATM    5  C   UNL     1      27.645  44.715  53.517  1.00  0.00     0.139 A 
HETATM    6  N   UNL     1      28.354  44.884  54.646  1.00  0.00    -0.230 NA
HETATM    7  C   UNL     1      29.452  44.089  54.740  1.00  0.00     0.069 A 
HETATM    8  C   UNL     1      29.827  43.182  53.742  1.00  0.00     0.033 A 
HETATM    9  C   UNL     1      29.054  43.048  52.585  1.00  0.00     0.018 A 
HETATM   10  C   UNL     1      27.908  43.850  52.466  1.00  0.00     0.027 A 
ENDROOT
BRANCH   1  11
HETATM   11  C   UNL     1      26.745  43.318  50.216  1.00  0.00     0.254 C 
HETATM   12  N   UNL     1      26.374  41.998  50.318  1.00  0.00    -0.353 N 
HETATM   13  H   UNL     1      26.081  41.628  51.210  1.00  0.00     0.163 HD
HETATM   14  O   UNL     1      26.943  43.860  49.133  1.00  0.00    -0.268 OA
BRANCH  12  15
HETATM   15  C   UNL     1      26.167  41.191  49.142  1.00  0.00     0.161 C 
BRANCH  15  16
HETATM   16  C   UNL     1      27.208  40.108  49.051  1.00  0.00    -0.038 A 
HETATM   17  C   UNL     1      27.441  39.458  47.830  1.00  0.00     0.009 A 
HETATM   18  C   UNL     1      28.423  38.476  47.732  1.00  0.00     0.003 A 
HETATM   19  C   UNL     1      29.182  38.139  48.853  1.00  0.00     0.037 A 
HETATM   20  C   UNL     1      28.970  38.778  50.076  1.00  0.00     0.068 A 
HETATM   21  C   UNL     1      27.986  39.764  50.171  1.00  0.00     0.045 A 
BRANCH  20  22
HETATM   22  O   UNL     1      29.786  38.354  51.089  1.00  0.00    -0.356 OA
HETATM   23  C   UNL     1      29.886  36.950  51.293  1.00  0.00     0.210 C 
ENDBRANCH  20  22
ENDBRANCH  15  16
ENDBRANCH  12  15
ENDBRANCH   1  11
BRANCH   7  24
HETATM   24  C   UNL     1      30.236  44.263  55.983  1.00  0.00    -0.005 A 
HETATM   25  C   UNL     1      30.050  45.355  56.842  1.00  0.00     0.033 A 
HETATM   26  C   UNL     1      30.820  45.456  57.993  1.00  0.00     0.117 A 
HETATM   27  N   UNL     1      31.759  44.557  58.351  1.00  0.00    -0.273 NA
HETATM   28  C   UNL     1      31.941  43.516  57.514  1.00  0.00     0.117 A 
HETATM   29  C   UNL     1      31.220  43.332  56.345  1.00  0.00     0.033 A 
ENDBRANCH   7  24
TORSDOF 5
ENDMDL
MODEL 6
REMARK VINA RESULT:      -9.1      2.954      5.304
REMARK  5 active torsions:
REMARK  status: ('A' for Active; 'I' for Inactive)
REMARK    1  A    between atoms: O_2  and  C_3 
REMARK    2  A    between atoms: C_7  and  C_8 
REMARK    3  A    between atoms: C_8  and  N_9 
REMARK       I    between atoms: N_9  and  C_10 
REMARK    4  A    between atoms: C_10  and  C_12 
REMARK    5  A    between atoms: C_18  and  C_22 
ROOT
HETATM    1  C   UNL     1      25.834  46.341  52.764  1.00  0.00     0.061 A 
HETATM    2  C   UNL     1      25.603  47.492  53.510  1.00  0.00     0.108 A 
HETATM    3  N   UNL     1      26.483  47.513  54.562  1.00  0.00    -0.349 N 
HETATM    4  H   UNL     1      26.551  48.222  55.279  1.00  0.00     0.167 HD
HETATM    5  C   UNL     1      27.281  46.406  54.521  1.00  0.00     0.139 A 
HETATM    6  N   UNL     1      28.245  46.141  55.418  1.00  0.00    -0.230 NA
HETATM    7  C   UNL     1      28.909  44.977  55.196  1.00  0.00     0.069 A 
HETATM    8  C   UNL     1      28.630  44.130  54.118  1.00  0.00     0.033 A 
HETATM    9  C   UNL     1      27.616  44.456  53.211  1.00  0.00     0.018 A 
HETATM   10  C   UNL     1      26.906  45.648  53.422  1.00  0.00     0.027 A 
ENDROOT
BRANCH   1  11
HETATM   11  C   UNL     1      25.124  45.902  51.562  1.00  0.00     0.254 C 
HETATM   12  N   UNL     1      24.564  44.649  51.636  1.00  0.00    -0.353 N 
HETATM   13  H   UNL     1      24.542  44.162  52.520  1.00  0.00     0.163 HD
HETATM   14  O   UNL     1      25.026  46.604  50.561  1.00  0.00    -0.268 OA
BRANCH  12  15
HETATM   15  C   UNL     1      23.798  44.111  50.540  1.00  0.00     0.161 C 
BRANCH  15  16
HETATM   16  C   UNL     1      24.418  42.837  50.033  1.00  0.00    -0.038 A 
HETATM   17  C   UNL     1      23.941  42.244  48.855  1.00  0.00     0.009 A 
HETATM   18  C   UNL     1      24.529  41.081  48.365  1.00  0.00     0.003 A 
HETATM   19  C   UNL     1      25.600  40.504  49.047  1.00  0.00     0.037 A 
HETATM   20  C   UNL     1      26.094  41.081  50.219  1.00  0.00     0.068 A 
HETATM   21  C   UNL     1      25.502  42.249  50.707  1.00  0.00     0.045 A 
BRANCH  20  22
HETATM   22  O   UNL     1      27.147  40.415  50.783  1.00  0.00    -0.356 OA
HETATM   23  C   UNL     1      28.157  41.206  51.396  1.00  0.00     0.210 C 
ENDBRANCH  20  22
ENDBRANCH  15  16
ENDBRANCH  12  15
ENDBRANCH   1  11
BRANCH   7  24
HETATM   24  C   UNL     1      29.970  44.672  56.183  1.00  0.00    -0.005 A 
HETATM   25  C   UNL     1      30.135  45.414  57.361  1.00  0.00     0.033 A 
HETATM   26  C   UNL     1      31.151  45.073  58.244  1.00  0.00     0.117 A 
HETATM   27  N   UNL     1      32.011  44.055  58.044  1.00  0.00    -0.273 NA
HETATM   28  C   UNL     1      31.854  43.354  56.904  1.00  0.00     0.117 A 
HETATM   29  C   UNL     1      30.870  43.619  55.965  1.00  0.00     0.033 A 
ENDBRANCH   7  24
TORSDOF 5
ENDMDL
MODEL 7
REMARK VINA RESULT:      -9.0      2.791      8.577
REMARK  5 active torsions:
REMARK  status: ('A' for Active; 'I' for Inactive)
REMARK    1  A    between atoms: O_2  and  C_3 
REMARK    2  A    between atoms: C_7  and  C_8 
REMARK    3  A    between atoms: C_8  and  N_9 
REMARK       I    between atoms: N_9  and  C_10 
REMARK    4  A    between atoms: C_10  and  C_12 
REMARK    5  A    between atoms: C_18  and  C_22 
ROOT
HETATM    1  C   UNL     1      25.697  43.620  51.126  1.00  0.00     0.061 A 
HETATM    2  C   UNL     1      24.505  42.938  50.904  1.00  0.00     0.108 A 
HETATM    3  N   UNL     1      23.605  43.806  50.340  1.00  0.00    -0.349 N 
HETATM    4  H   UNL     1      22.653  43.599  50.072  1.00  0.00     0.167 HD
HETATM    5  C   UNL     1      24.178  45.035  50.189  1.00  0.00     0.139 A 
HETATM    6  N   UNL     1      23.549  46.099  49.663  1.00  0.00    -0.230 NA
HETATM    7  C   UNL     1      24.303  47.228  49.620  1.00  0.00     0.069 A 
HETATM    8  C   UNL     1      25.627  47.282  50.068  1.00  0.00     0.033 A 
HETATM    9  C   UNL     1      26.236  46.143  50.604  1.00  0.00     0.018 A 
HETATM   10  C   UNL     1      25.477  44.964  50.671  1.00  0.00     0.027 A 
ENDROOT
BRANCH   1  11
HETATM   11  C   UNL     1      26.926  43.093  51.720  1.00  0.00     0.254 C 
HETATM   12  N   UNL     1      26.854  42.810  53.063  1.00  0.00    -0.353 N 
HETATM   13  H   UNL     1      25.963  42.839  53.534  1.00  0.00     0.163 HD
HETATM   14  O   UNL     1      27.947  42.908  51.065  1.00  0.00    -0.268 OA
BRANCH  12  15
HETATM   15  C   UNL     1      27.980  42.243  53.763  1.00  0.00     0.161 C 
BRANCH  15  16
HETATM   16  C   UNL     1      28.709  43.304  54.543  1.00  0.00    -0.038 A 
HETATM   17  C   UNL     1      30.042  43.101  54.930  1.00  0.00     0.009 A 
HETATM   18  C   UNL     1      30.731  44.090  55.626  1.00  0.00     0.003 A 
HETATM   19  C   UNL     1      30.094  45.291  55.939  1.00  0.00     0.037 A 
HETATM   20  C   UNL     1      28.769  45.516  55.559  1.00  0.00     0.068 A 
HETATM   21  C   UNL     1      28.081  44.522  54.858  1.00  0.00     0.045 A 
BRANCH  20  22
HETATM   22  O   UNL     1      28.270  46.735  55.925  1.00  0.00    -0.356 OA
HETATM   23  C   UNL     1      27.895  47.621  54.878  1.00  0.00     0.210 C 
ENDBRANCH  20  22
ENDBRANCH  15  16
ENDBRANCH  12  15
ENDBRANCH   1  11
BRANCH   7  24
HETATM   24  C   UNL     1      23.616  48.409  49.048  1.00  0.00    -0.005 A 
HETATM   25  C   UNL     1      22.219  48.499  48.968  1.00  0.00     0.033 A 
HETATM   26  C   UNL     1      21.641  49.635  48.419  1.00  0.00     0.117 A 
HETATM   27  N   UNL     1      22.343  50.684  47.946  1.00  0.00    -0.273 NA
HETATM   28  C   UNL     1      23.686  50.585  48.016  1.00  0.00     0.117 A 
HETATM   29  C   UNL     1      24.352  49.492  48.546  1.00  0.00     0.033 A 
ENDBRANCH   7  24
TORSDOF 5
ENDMDL
MODEL 8
REMARK VINA RESULT:      -8.9      2.738      3.658
REMARK  5 active torsions:
REMARK  status: ('A' for Active; 'I' for Inactive)
REMARK    1  A    between atoms: O_2  and  C_3 
REMARK    2  A    between atoms: C_7  and  C_8 
REMARK    3  A    between atoms: C_8  and  N_9 
REMARK       I    between atoms: N_9  and  C_10 
REMARK    4  A    between atoms: C_10  and  C_12 
REMARK    5  A    between atoms: C_18  and  C_22 
ROOT
HETATM    1  C   UNL     1      25.759  45.736  52.502  1.00  0.00     0.061 A 
HETATM    2  C   UNL     1      25.673  47.060  52.920  1.00  0.00     0.108 A 
HETATM    3  N   UNL     1      26.597  47.265  53.913  1.00  0.00    -0.349 N 
HETATM    4  H   UNL     1      26.764  48.125  54.414  1.00  0.00     0.167 HD
HETATM    5  C   UNL     1      27.282  46.109  54.154  1.00  0.00     0.139 A 
HETATM    6  N   UNL     1      28.255  45.989  55.072  1.00  0.00    -0.230 NA
HETATM    7  C   UNL     1      28.794  44.745  55.155  1.00  0.00     0.069 A 
HETATM    8  C   UNL     1      28.387  43.679  54.345  1.00  0.00     0.033 A 
HETATM    9  C   UNL     1      27.370  43.859  53.402  1.00  0.00     0.018 A 
HETATM   10  C   UNL     1      26.788  45.133  53.301  1.00  0.00     0.027 A 
ENDROOT
BRANCH   1  11
HETATM   11  C   UNL     1      24.958  45.073  51.472  1.00  0.00     0.254 C 
HETATM   12  N   UNL     1      25.121  45.561  50.197  1.00  0.00    -0.353 N 
HETATM   13  H   UNL     1      25.855  46.227  50.006  1.00  0.00     0.163 HD
HETATM   14  O   UNL     1      24.200  44.142  51.724  1.00  0.00    -0.268 OA
BRANCH  12  15
HETATM   15  C   UNL     1      24.427  44.970  49.081  1.00  0.00     0.161 C 
BRANCH  15  16
HETATM   16  C   UNL     1      23.083  45.619  48.888  1.00  0.00    -0.038 A 
HETATM   17  C   UNL     1      22.983  47.015  48.796  1.00  0.00     0.009 A 
HETATM   18  C   UNL     1      21.746  47.619  48.587  1.00  0.00     0.003 A 
HETATM   19  C   UNL     1      20.601  46.833  48.467  1.00  0.00     0.037 A 
HETATM   20  C   UNL     1      20.678  45.441  48.551  1.00  0.00     0.068 A 
HETATM   21  C   UNL     1      21.921  44.837  48.758  1.00  0.00     0.045 A 
BRANCH  20  22
HETATM   22  O   UNL     1      19.481  44.794  48.412  1.00  0.00    -0.356 OA
HETATM   23  C   UNL     1      18.370  45.575  47.991  1.00  0.00     0.210 C 
ENDBRANCH  20  22
ENDBRANCH  15  16
ENDBRANCH  12  15
ENDBRANCH   1  11
BRANCH   7  24
HETATM   24  C   UNL     1      29.863  44.601  56.169  1.00  0.00    -0.005 A 
HETATM   25  C   UNL     1      30.839  43.598  56.093  1.00  0.00     0.033 A 
HETATM   26  C   UNL     1      31.814  43.521  57.079  1.00  0.00     0.117 A 
HETATM   27  N   UNL     1      31.890  44.361  58.130  1.00  0.00    -0.273 NA
HETATM   28  C   UNL     1      30.941  45.316  58.203  1.00  0.00     0.117 A 
HETATM   29  C   UNL     1      29.930  45.470  57.267  1.00  0.00     0.033 A 
ENDBRANCH   7  24
TORSDOF 5
ENDMDL
MODEL 9
REMARK VINA RESULT:      -8.8      2.153      3.685
REMARK  5 active torsions:
REMARK  status: ('A' for Active; 'I' for Inactive)
REMARK    1  A    between atoms: O_2  and  C_3 
REMARK    2  A    between atoms: C_7  and  C_8 
REMARK    3  A    between atoms: C_8  and  N_9 
REMARK       I    between atoms: N_9  and  C_10 
REMARK    4  A    between atoms: C_10  and  C_12 
REMARK    5  A    between atoms: C_18  and  C_22 
ROOT
HETATM    1  C   UNL     1      23.767  44.192  49.920  1.00  0.00     0.061 A 
HETATM    2  C   UNL     1      23.769  42.840  50.246  1.00  0.00     0.108 A 
HETATM    3  N   UNL     1      24.610  42.650  51.313  1.00  0.00    -0.349 N 
HETATM    4  H   UNL     1      24.819  41.773  51.768  1.00  0.00     0.167 HD
HETATM    5  C   UNL     1      25.157  43.842  51.690  1.00  0.00     0.139 A 
HETATM    6  N   UNL     1      26.023  43.984  52.707  1.00  0.00    -0.230 NA
HETATM    7  C   UNL     1      26.453  45.258  52.901  1.00  0.00     0.069 A 
HETATM    8  C   UNL     1      26.023  46.337  52.121  1.00  0.00     0.033 A 
HETATM    9  C   UNL     1      25.117  46.134  51.075  1.00  0.00     0.018 A 
HETATM   10  C   UNL     1      24.663  44.826  50.846  1.00  0.00     0.027 A 
ENDROOT
BRANCH   1  11
HETATM   11  C   UNL     1      23.024  44.847  48.843  1.00  0.00     0.254 C 
HETATM   12  N   UNL     1      22.190  45.865  49.241  1.00  0.00    -0.353 N 
HETATM   13  H   UNL     1      22.227  46.200  50.192  1.00  0.00     0.163 HD
HETATM   14  O   UNL     1      23.142  44.520  47.667  1.00  0.00    -0.268 OA
BRANCH  12  15
HETATM   15  C   UNL     1      21.434  46.625  48.278  1.00  0.00     0.161 C 
BRANCH  15  16
HETATM   16  C   UNL     1      21.913  48.050  48.230  1.00  0.00    -0.038 A 
HETATM   17  C   UNL     1      21.038  49.074  47.838  1.00  0.00     0.009 A 
HETATM   18  C   UNL     1      21.467  50.398  47.821  1.00  0.00     0.003 A 
HETATM   19  C   UNL     1      22.773  50.710  48.198  1.00  0.00     0.037 A 
HETATM   20  C   UNL     1      23.660  49.707  48.597  1.00  0.00     0.068 A 
HETATM   21  C   UNL     1      23.225  48.379  48.615  1.00  0.00     0.045 A 
BRANCH  20  22
HETATM   22  O   UNL     1      24.906  50.152  48.943  1.00  0.00    -0.356 OA
HETATM   23  C   UNL     1      25.972  49.842  48.055  1.00  0.00     0.210 C 
ENDBRANCH  20  22
ENDBRANCH  15  16
ENDBRANCH  12  15
ENDBRANCH   1  11
BRANCH   7  24
HETATM   24  C   UNL     1      27.413  45.423  54.016  1.00  0.00    -0.005 A 
HETATM   25  C   UNL     1      28.451  44.512  54.254  1.00  0.00     0.033 A 
HETATM   26  C   UNL     1      29.316  44.729  55.319  1.00  0.00     0.117 A 
HETATM   27  N   UNL     1      29.226  45.779  56.160  1.00  0.00    -0.273 NA
HETATM   28  C   UNL     1      28.218  46.644  55.932  1.00  0.00     0.117 A 
HETATM   29  C   UNL     1      27.307  46.510  54.896  1.00  0.00     0.033 A 
ENDBRANCH   7  24
TORSDOF 5
ENDMDL
MODEL 10
REMARK VINA RESULT:      -8.7      2.945      9.754
REMARK  5 active torsions:
REMARK  status: ('A' for Active; 'I' for Inactive)
REMARK    1  A    between atoms: O_2  and  C_3 
REMARK    2  A    between atoms: C_7  and  C_8 
REMARK    3  A    between atoms: C_8  and  N_9 
REMARK       I    between atoms: N_9  and  C_10 
REMARK    4  A    between atoms: C_10  and  C_12 
REMARK    5  A    between atoms: C_18  and  C_22 
ROOT
HETATM    1  C   UNL     1      26.328  46.895  49.838  1.00  0.00     0.061 A 
HETATM    2  C   UNL     1      27.106  48.030  49.638  1.00  0.00     0.108 A 
HETATM    3  N   UNL     1      26.287  49.057  49.241  1.00  0.00    -0.349 N 
HETATM    4  H   UNL     1      26.567  50.001  49.016  1.00  0.00     0.167 HD
HETATM    5  C   UNL     1      24.995  48.620  49.177  1.00  0.00     0.139 A 
HETATM    6  N   UNL     1      23.957  49.394  48.819  1.00  0.00    -0.230 NA
HETATM    7  C   UNL     1      22.760  48.752  48.810  1.00  0.00     0.069 A 
HETATM    8  C   UNL     1      22.611  47.405  49.158  1.00  0.00     0.033 A 
HETATM    9  C   UNL     1      23.726  46.645  49.527  1.00  0.00     0.018 A 
HETATM   10  C   UNL     1      24.978  47.280  49.536  1.00  0.00     0.027 A 
ENDROOT
BRANCH   1  11
HETATM   11  C   UNL     1      26.780  45.567  50.254  1.00  0.00     0.254 C 
HETATM   12  N   UNL     1      26.609  45.281  51.588  1.00  0.00    -0.353 N 
HETATM   13  H   UNL     1      26.076  45.908  52.171  1.00  0.00     0.163 HD
HETATM   14  O   UNL     1      27.268  44.762  49.469  1.00  0.00    -0.268 OA
BRANCH  12  15
HETATM   15  C   UNL     1      26.970  43.991  52.122  1.00  0.00     0.161 C 
BRANCH  15  16
HETATM   16  C   UNL     1      27.952  44.141  53.252  1.00  0.00    -0.038 A 
HETATM   17  C   UNL     1      28.998  43.218  53.402  1.00  0.00     0.009 A 
HETATM   18  C   UNL     1      29.927  43.368  54.428  1.00  0.00     0.003 A 
HETATM   19  C   UNL     1      29.820  44.442  55.311  1.00  0.00     0.037 A 
HETATM   20  C   UNL     1      28.789  45.376  55.177  1.00  0.00     0.068 A 
HETATM   21  C   UNL     1      27.860  45.224  54.145  1.00  0.00     0.045 A 
BRANCH  20  22
HETATM   22  O   UNL     1      28.805  46.379  56.106  1.00  0.00    -0.356 OA
HETATM   23  C   UNL     1      29.057  46.006  57.455  1.00  0.00     0.210 C 
ENDBRANCH  20  22
ENDBRANCH  15  16
ENDBRANCH  12  15
ENDBRANCH   1  11
BRANCH   7  24
HETATM   24  C   UNL     1      21.610  49.594  48.410  1.00  0.00    -0.005 A 
HETATM   25  C   UNL     1      21.453  50.913  48.859  1.00  0.00     0.033 A 
HETATM   26  C   UNL     1      20.350  51.647  48.444  1.00  0.00     0.117 A 
HETATM   27  N   UNL     1      19.395  51.170  47.620  1.00  0.00    -0.273 NA
HETATM   28  C   UNL     1      19.546  49.898  47.202  1.00  0.00     0.117 A 
HETATM   29  C   UNL     1      20.613  49.089  47.563  1.00  0.00     0.033 A 
ENDBRANCH   7  24
TORSDOF 5
ENDMDL
