MODEL 1
REMARK VINA RESULT:      -9.0      0.000      0.000
REMARK  11 active torsions:
REMARK  status: ('A' for Active; 'I' for Inactive)
REMARK    1  A    between atoms: C_3  and  C_4 
REMARK    2  A    between atoms: C_4  and  O_5 
REMARK    3  A    between atoms: C_12  and  C_13 
REMARK    4  A    between atoms: C_13  and  C_14 
REMARK    5  A    between atoms: C_15  and  C_16 
REMARK    6  A    between atoms: C_18  and  N_19 
REMARK    7  A    between atoms: N_25  and  C_26 
REMARK    8  A    between atoms: C_26  and  C_27 
REMARK    9  A    between atoms: C_27  and  C_28 
REMARK   10  A    between atoms: C_28  and  N_29 
REMARK   11  A    between atoms: C_38  and  O_39 
ROOT
HETATM    1  C   UNL     1      26.422  45.188  51.289  1.00  0.00     0.059 A 
HETATM    2  C   UNL     1      27.111  43.842  51.338  1.00  0.00     0.161 A 
HETATM    3  N   UNL     1      26.934  43.483  52.735  1.00  0.00    -0.333 N 
HETATM    4  C   UNL     1      26.229  44.445  53.423  1.00  0.00     0.278 A 
HETATM    5  O   UNL     1      26.065  44.461  54.634  1.00  0.00    -0.265 OA
HETATM    6  C   UNL     1      25.917  45.547  52.482  1.00  0.00     0.146 A 
ENDROOT
BRANCH   1   7
HETATM    7  C   UNL     1      26.579  45.940  50.022  1.00  0.00     0.196 C 
HETATM    8  O   UNL     1      27.637  45.860  49.407  1.00  0.00    -0.287 OA
BRANCH   7   9
HETATM    9  C   UNL     1      25.510  46.850  49.628  1.00  0.00     0.045 A 
HETATM   10  C   UNL     1      25.684  48.240  49.279  1.00  0.00    -0.013 A 
HETATM   11  C   UNL     1      26.982  48.980  49.278  1.00  0.00     0.052 C 
HETATM   12  C   UNL     1      24.436  48.747  48.927  1.00  0.00     0.115 A 
HETATM   13  N   UNL     1      23.535  47.713  49.054  1.00  0.00    -0.354 N 
HETATM   14  H   UNL     1      22.551  47.808  48.828  1.00  0.00     0.166 HD
HETATM   15  C   UNL     1      24.165  46.555  49.439  1.00  0.00     0.020 A 
HETATM   16  C   UNL     1      23.385  45.290  49.537  1.00  0.00     0.069 C 
BRANCH  12  17
HETATM   17  C   UNL     1      23.989  50.048  48.471  1.00  0.00     0.310 C 
HETATM   18  O   UNL     1      24.095  50.434  47.315  1.00  0.00    -0.258 OA
BRANCH  17  19
HETATM   19  O   UNL     1      23.446  50.763  49.490  1.00  0.00    -0.321 OA
HETATM   20  C   UNL     1      22.027  50.895  49.421  1.00  0.00     0.213 C 
ENDBRANCH  17  19
ENDBRANCH  12  17
ENDBRANCH   7   9
ENDBRANCH   1   7
BRANCH   2  21
HETATM   21  C   UNL     1      26.580  42.769  50.402  1.00  0.00    -0.028 A 
HETATM   22  C   UNL     1      27.361  42.199  49.383  1.00  0.00     0.045 A 
HETATM   23  C   UNL     1      26.844  41.162  48.587  1.00  0.00     0.103 A 
HETATM   24  C   UNL     1      25.528  40.720  48.754  1.00  0.00     0.036 A 
HETATM   25  C   UNL     1      24.733  41.312  49.734  1.00  0.00     0.003 A 
HETATM   26  C   UNL     1      25.257  42.316  50.554  1.00  0.00     0.010 A 
BRANCH  23  27
HETATM   27  N   UNL     1      27.708  40.517  47.589  1.00  0.00    -0.116 N 
HETATM   28  O   UNL     1      28.482  41.246  46.952  1.00  0.00    -0.532 OA
HETATM   29  O   UNL     1      27.611  39.291  47.446  1.00  0.00    -0.532 OA
ENDBRANCH  23  27
ENDBRANCH   2  21
BRANCH   6  30
HETATM   30  O   UNL     1      25.388  46.717  52.932  1.00  0.00    -0.355 OA
HETATM   31  H   UNL     1      25.679  46.908  53.840  1.00  0.00     0.218 HD
ENDBRANCH   6  30
BRANCH   3  32
HETATM   32  C   UNL     1      27.706  42.453  53.409  1.00  0.00     0.129 C 
BRANCH  32  33
HETATM   33  C   UNL     1      29.178  42.824  53.643  1.00  0.00     0.048 C 
BRANCH  33  34
HETATM   34  C   UNL     1      29.485  44.249  54.121  1.00  0.00     0.236 C 
BRANCH  34  35
HETATM   35  N   UNL     1      29.728  44.366  55.599  1.00  0.00    -0.067 N 
HETATM   36  H   UNL     1      28.968  43.850  56.090  1.00  0.00     0.280 HD
HETATM   37  C   UNL     1      31.069  43.835  56.070  1.00  0.00     0.261 C 
HETATM   38  C   UNL     1      31.195  44.003  57.589  1.00  0.00     0.195 C 
HETATM   39  O   UNL     1      31.022  45.371  57.974  1.00  0.00    -0.388 OA
HETATM   40  C   UNL     1      29.722  45.852  57.611  1.00  0.00     0.195 C 
HETATM   41  C   UNL     1      29.534  45.804  56.091  1.00  0.00     0.261 C 
ENDBRANCH  34  35
ENDBRANCH  33  34
ENDBRANCH  32  33
ENDBRANCH   3  32
TORSDOF 11
ENDMDL
MODEL 2
REMARK VINA RESULT:      -8.5     11.206     14.233
REMARK  11 active torsions:
REMARK  status: ('A' for Active; 'I' for Inactive)
REMARK    1  A    between atoms: C_3  and  C_4 
REMARK    2  A    between atoms: C_4  and  O_5 
REMARK    3  A    between atoms: C_12  and  C_13 
REMARK    4  A    between atoms: C_13  and  C_14 
REMARK    5  A    between atoms: C_15  and  C_16 
REMARK    6  A    between atoms: C_18  and  N_19 
REMARK    7  A    between atoms: N_25  and  C_26 
REMARK    8  A    between atoms: C_26  and  C_27 
REMARK    9  A    between atoms: C_27  and  C_28 
REMARK   10  A    between atoms: C_28  and  N_29 
REMARK   11  A    between atoms: C_38  and  O_39 
ROOT
HETATM    1  C   UNL     1      30.776  50.939  41.520  1.00  0.00     0.059 A 
HETATM    2  C   UNL     1      29.487  50.252  41.129  1.00  0.00     0.161 A 
HETATM    3  N   UNL     1      28.881  51.255  40.269  1.00  0.00    -0.333 N 
HETATM    4  C   UNL     1      29.683  52.367  40.139  1.00  0.00     0.278 A 
HETATM    5  O   UNL     1      29.353  53.408  39.592  1.00  0.00    -0.265 OA
HETATM    6  C   UNL     1      30.897  52.156  40.963  1.00  0.00     0.146 A 
ENDROOT
BRANCH   1   7
HETATM    7  C   UNL     1      31.572  50.254  42.566  1.00  0.00     0.196 C 
HETATM    8  O   UNL     1      31.106  49.263  43.119  1.00  0.00    -0.287 OA
BRANCH   7   9
HETATM    9  C   UNL     1      32.827  50.867  42.985  1.00  0.00     0.045 A 
HETATM   10  C   UNL     1      34.083  50.759  42.283  1.00  0.00    -0.013 A 
HETATM   11  C   UNL     1      34.312  49.988  41.023  1.00  0.00     0.052 C 
HETATM   12  C   UNL     1      35.023  51.514  42.979  1.00  0.00     0.115 A 
HETATM   13  N   UNL     1      34.371  52.063  44.061  1.00  0.00    -0.354 N 
HETATM   14  H   UNL     1      34.824  52.687  44.720  1.00  0.00     0.166 HD
HETATM   15  C   UNL     1      33.042  51.717  44.063  1.00  0.00     0.020 A 
HETATM   16  C   UNL     1      32.134  52.290  45.095  1.00  0.00     0.069 C 
BRANCH  12  17
HETATM   17  C   UNL     1      36.425  51.803  42.754  1.00  0.00     0.310 C 
HETATM   18  O   UNL     1      37.327  51.014  42.998  1.00  0.00    -0.258 OA
BRANCH  17  19
HETATM   19  O   UNL     1      36.591  53.051  42.244  1.00  0.00    -0.321 OA
HETATM   20  C   UNL     1      36.702  53.092  40.822  1.00  0.00     0.213 C 
ENDBRANCH  17  19
ENDBRANCH  12  17
ENDBRANCH   7   9
ENDBRANCH   1   7
BRANCH   2  21
HETATM   21  C   UNL     1      29.614  48.907  40.432  1.00  0.00    -0.028 A 
HETATM   22  C   UNL     1      28.865  47.782  40.815  1.00  0.00     0.045 A 
HETATM   23  C   UNL     1      28.971  46.579  40.096  1.00  0.00     0.103 A 
HETATM   24  C   UNL     1      29.863  46.462  39.027  1.00  0.00     0.036 A 
HETATM   25  C   UNL     1      30.642  47.560  38.669  1.00  0.00     0.003 A 
HETATM   26  C   UNL     1      30.510  48.771  39.357  1.00  0.00     0.010 A 
BRANCH  23  27
HETATM   27  N   UNL     1      28.111  45.443  40.457  1.00  0.00    -0.116 N 
HETATM   28  O   UNL     1      28.471  44.317  40.085  1.00  0.00    -0.532 OA
HETATM   29  O   UNL     1      27.086  45.679  41.109  1.00  0.00    -0.532 OA
ENDBRANCH  23  27
ENDBRANCH   2  21
BRANCH   6  30
HETATM   30  O   UNL     1      31.781  53.170  41.172  1.00  0.00    -0.355 OA
HETATM   31  H   UNL     1      32.168  53.119  42.063  1.00  0.00     0.218 HD
ENDBRANCH   6  30
BRANCH   3  32
HETATM   32  C   UNL     1      27.475  51.263  39.903  1.00  0.00     0.129 C 
BRANCH  32  33
HETATM   33  C   UNL     1      27.205  50.891  38.438  1.00  0.00     0.048 C 
BRANCH  33  34
HETATM   34  C   UNL     1      26.467  49.575  38.163  1.00  0.00     0.236 C 
BRANCH  34  35
HETATM   35  N   UNL     1      25.255  49.355  39.022  1.00  0.00    -0.067 N 
HETATM   36  H   UNL     1      25.421  49.825  39.937  1.00  0.00     0.280 HD
HETATM   37  C   UNL     1      23.953  49.867  38.434  1.00  0.00     0.261 C 
HETATM   38  C   UNL     1      22.797  49.592  39.402  1.00  0.00     0.195 C 
HETATM   39  O   UNL     1      22.704  48.198  39.714  1.00  0.00    -0.388 OA
HETATM   40  C   UNL     1      23.897  47.728  40.353  1.00  0.00     0.195 C 
HETATM   41  C   UNL     1      25.103  47.883  39.420  1.00  0.00     0.261 C 
ENDBRANCH  34  35
ENDBRANCH  33  34
ENDBRANCH  32  33
ENDBRANCH   3  32
TORSDOF 11
ENDMDL
MODEL 3
REMARK VINA RESULT:      -8.4      1.994      2.827
REMARK  11 active torsions:
REMARK  status: ('A' for Active; 'I' for Inactive)
REMARK    1  A    between atoms: C_3  and  C_4 
REMARK    2  A    between atoms: C_4  and  O_5 
REMARK    3  A    between atoms: C_12  and  C_13 
REMARK    4  A    between atoms: C_13  and  C_14 
REMARK    5  A    between atoms: C_15  and  C_16 
REMARK    6  A    between atoms: C_18  and  N_19 
REMARK    7  A    between atoms: N_25  and  C_26 
REMARK    8  A    between atoms: C_26  and  C_27 
REMARK    9  A    between atoms: C_27  and  C_28 
REMARK   10  A    between atoms: C_28  and  N_29 
REMARK   11  A    between atoms: C_38  and  O_39 
ROOT
HETATM    1  C   UNL     1      26.414  44.428  51.275  1.00  0.00     0.059 A 
HETATM    2  C   UNL     1      27.461  43.338  51.342  1.00  0.00     0.161 A 
HETATM    3  N   UNL     1      27.514  43.085  52.772  1.00  0.00    -0.333 N 
HETATM    4  C   UNL     1      26.625  43.877  53.464  1.00  0.00     0.278 A 
HETATM    5  O   UNL     1      26.567  43.966  54.681  1.00  0.00    -0.265 OA
HETATM    6  C   UNL     1      25.932  44.749  52.487  1.00  0.00     0.146 A 
ENDROOT
BRANCH   1   7
HETATM    7  C   UNL     1      26.239  45.064  49.948  1.00  0.00     0.196 C 
HETATM    8  O   UNL     1      27.230  45.446  49.334  1.00  0.00    -0.287 OA
BRANCH   7   9
HETATM    9  C   UNL     1      24.881  45.327  49.487  1.00  0.00     0.045 A 
HETATM   10  C   UNL     1      24.007  44.357  48.872  1.00  0.00    -0.013 A 
HETATM   11  C   UNL     1      24.351  42.930  48.592  1.00  0.00     0.052 C 
HETATM   12  C   UNL     1      22.792  44.987  48.614  1.00  0.00     0.115 A 
HETATM   13  N   UNL     1      22.916  46.287  49.052  1.00  0.00    -0.354 N 
HETATM   14  H   UNL     1      22.157  46.959  49.008  1.00  0.00     0.166 HD
HETATM   15  C   UNL     1      24.150  46.503  49.613  1.00  0.00     0.020 A 
HETATM   16  C   UNL     1      24.454  47.818  50.241  1.00  0.00     0.069 C 
BRANCH  12  17
HETATM   17  C   UNL     1      21.542  44.530  48.041  1.00  0.00     0.310 C 
HETATM   18  O   UNL     1      21.310  43.361  47.768  1.00  0.00    -0.258 OA
BRANCH  17  19
HETATM   19  O   UNL     1      20.683  45.565  47.853  1.00  0.00    -0.321 OA
HETATM   20  C   UNL     1      19.941  45.495  46.635  1.00  0.00     0.213 C 
ENDBRANCH  17  19
ENDBRANCH  12  17
ENDBRANCH   7   9
ENDBRANCH   1   7
BRANCH   2  21
HETATM   21  C   UNL     1      27.181  42.072  50.550  1.00  0.00    -0.028 A 
HETATM   22  C   UNL     1      27.733  41.835  49.281  1.00  0.00     0.045 A 
HETATM   23  C   UNL     1      27.497  40.618  48.618  1.00  0.00     0.103 A 
HETATM   24  C   UNL     1      26.662  39.649  49.180  1.00  0.00     0.036 A 
HETATM   25  C   UNL     1      26.074  39.894  50.419  1.00  0.00     0.003 A 
HETATM   26  C   UNL     1      26.340  41.087  51.100  1.00  0.00     0.010 A 
BRANCH  23  27
HETATM   27  N   UNL     1      28.159  40.355  47.332  1.00  0.00    -0.116 N 
HETATM   28  O   UNL     1      28.337  39.170  47.017  1.00  0.00    -0.532 OA
HETATM   29  O   UNL     1      28.496  41.328  46.646  1.00  0.00    -0.532 OA
ENDBRANCH  23  27
ENDBRANCH   2  21
BRANCH   6  30
HETATM   30  O   UNL     1      25.130  45.766  52.908  1.00  0.00    -0.355 OA
HETATM   31  H   UNL     1      25.431  46.119  53.763  1.00  0.00     0.218 HD
ENDBRANCH   6  30
BRANCH   3  32
HETATM   32  C   UNL     1      28.604  42.382  53.428  1.00  0.00     0.129 C 
BRANCH  32  33
HETATM   33  C   UNL     1      29.894  43.205  53.557  1.00  0.00     0.048 C 
BRANCH  33  34
HETATM   34  C   UNL     1      30.740  43.008  54.821  1.00  0.00     0.236 C 
BRANCH  34  35
HETATM   35  N   UNL     1      30.304  43.843  55.992  1.00  0.00    -0.067 N 
HETATM   36  H   UNL     1      29.474  43.382  56.422  1.00  0.00     0.280 HD
HETATM   37  C   UNL     1      31.363  44.048  57.060  1.00  0.00     0.261 C 
HETATM   38  C   UNL     1      30.799  44.904  58.200  1.00  0.00     0.195 C 
HETATM   39  O   UNL     1      30.314  46.160  57.711  1.00  0.00    -0.388 OA
HETATM   40  C   UNL     1      29.251  45.975  56.768  1.00  0.00     0.195 C 
HETATM   41  C   UNL     1      29.746  45.197  55.544  1.00  0.00     0.261 C 
ENDBRANCH  34  35
ENDBRANCH  33  34
ENDBRANCH  32  33
ENDBRANCH   3  32
TORSDOF 11
ENDMDL
MODEL 4
REMARK VINA RESULT:      -8.1      2.671      8.858
REMARK  11 active torsions:
REMARK  status: ('A' for Active; 'I' for Inactive)
REMARK    1  A    between atoms: C_3  and  C_4 
REMARK    2  A    between atoms: C_4  and  O_5 
REMARK    3  A    between atoms: C_12  and  C_13 
REMARK    4  A    between atoms: C_13  and  C_14 
REMARK    5  A    between atoms: C_15  and  C_16 
REMARK    6  A    between atoms: C_18  and  N_19 
REMARK    7  A    between atoms: N_25  and  C_26 
REMARK    8  A    between atoms: C_26  and  C_27 
REMARK    9  A    between atoms: C_27  and  C_28 
REMARK   10  A    between atoms: C_28  and  N_29 
REMARK   11  A    between atoms: C_38  and  O_39 
ROOT
HETATM    1  C   UNL     1      25.561  42.865  49.870  1.00  0.00     0.059 A 
HETATM    2  C   UNL     1      24.960  44.243  50.036  1.00  0.00     0.161 A 
HETATM    3  N   UNL     1      23.547  43.961  49.845  1.00  0.00    -0.333 N 
HETATM    4  C   UNL     1      23.320  42.621  49.622  1.00  0.00     0.278 A 
HETATM    5  O   UNL     1      22.247  42.138  49.292  1.00  0.00    -0.265 OA
HETATM    6  C   UNL     1      24.629  41.927  49.625  1.00  0.00     0.146 A 
ENDROOT
BRANCH   1   7
HETATM    7  C   UNL     1      27.041  42.816  49.820  1.00  0.00     0.196 C 
HETATM    8  O   UNL     1      27.660  43.813  49.464  1.00  0.00    -0.287 OA
BRANCH   7   9
HETATM    9  C   UNL     1      27.693  41.537  50.072  1.00  0.00     0.045 A 
HETATM   10  C   UNL     1      28.124  40.605  49.057  1.00  0.00    -0.013 A 
HETATM   11  C   UNL     1      27.958  40.788  47.583  1.00  0.00     0.052 C 
HETATM   12  C   UNL     1      28.733  39.531  49.700  1.00  0.00     0.115 A 
HETATM   13  N   UNL     1      28.679  39.792  51.051  1.00  0.00    -0.354 N 
HETATM   14  H   UNL     1      29.083  39.176  51.749  1.00  0.00     0.166 HD
HETATM   15  C   UNL     1      28.091  41.009  51.295  1.00  0.00     0.020 A 
HETATM   16  C   UNL     1      28.025  41.528  52.689  1.00  0.00     0.069 C 
BRANCH  12  17
HETATM   17  C   UNL     1      29.369  38.321  49.219  1.00  0.00     0.310 C 
HETATM   18  O   UNL     1      30.544  38.047  49.424  1.00  0.00    -0.258 OA
BRANCH  17  19
HETATM   19  O   UNL     1      28.495  37.552  48.521  1.00  0.00    -0.321 OA
HETATM   20  C   UNL     1      27.416  37.038  49.302  1.00  0.00     0.213 C 
ENDBRANCH  17  19
ENDBRANCH  12  17
ENDBRANCH   7   9
ENDBRANCH   1   7
BRANCH   2  21
HETATM   21  C   UNL     1      25.226  44.950  51.354  1.00  0.00    -0.028 A 
HETATM   22  C   UNL     1      25.580  44.261  52.525  1.00  0.00     0.045 A 
HETATM   23  C   UNL     1      25.881  44.967  53.703  1.00  0.00     0.103 A 
HETATM   24  C   UNL     1      25.776  46.360  53.747  1.00  0.00     0.036 A 
HETATM   25  C   UNL     1      25.382  47.048  52.602  1.00  0.00     0.003 A 
HETATM   26  C   UNL     1      25.121  46.352  51.417  1.00  0.00     0.010 A 
BRANCH  23  27
HETATM   27  N   UNL     1      26.338  44.231  54.890  1.00  0.00    -0.116 N 
HETATM   28  O   UNL     1      25.609  43.323  55.312  1.00  0.00    -0.532 OA
HETATM   29  O   UNL     1      27.420  44.562  55.393  1.00  0.00    -0.532 OA
ENDBRANCH  23  27
ENDBRANCH   2  21
BRANCH   6  30
HETATM   30  O   UNL     1      24.727  40.623  49.246  1.00  0.00    -0.355 OA
HETATM   31  H   UNL     1      25.004  40.061  49.990  1.00  0.00     0.218 HD
ENDBRANCH   6  30
BRANCH   3  32
HETATM   32  C   UNL     1      22.552  44.978  49.550  1.00  0.00     0.129 C 
BRANCH  32  33
HETATM   33  C   UNL     1      22.971  45.967  48.452  1.00  0.00     0.048 C 
BRANCH  33  34
HETATM   34  C   UNL     1      21.954  47.034  48.030  1.00  0.00     0.236 C 
BRANCH  34  35
HETATM   35  N   UNL     1      22.473  48.442  48.094  1.00  0.00    -0.067 N 
HETATM   36  H   UNL     1      22.668  48.757  47.120  1.00  0.00     0.280 HD
HETATM   37  C   UNL     1      21.539  49.438  48.756  1.00  0.00     0.261 C 
HETATM   38  C   UNL     1      22.174  50.834  48.754  1.00  0.00     0.195 C 
HETATM   39  O   UNL     1      23.451  50.821  49.401  1.00  0.00    -0.388 OA
HETATM   40  C   UNL     1      24.367  49.950  48.726  1.00  0.00     0.195 C 
HETATM   41  C   UNL     1      23.855  48.506  48.753  1.00  0.00     0.261 C 
ENDBRANCH  34  35
ENDBRANCH  33  34
ENDBRANCH  32  33
ENDBRANCH   3  32
TORSDOF 11
ENDMDL
MODEL 5
REMARK VINA RESULT:      -8.1      2.439      8.158
REMARK  11 active torsions:
REMARK  status: ('A' for Active; 'I' for Inactive)
REMARK    1  A    between atoms: C_3  and  C_4 
REMARK    2  A    between atoms: C_4  and  O_5 
REMARK    3  A    between atoms: C_12  and  C_13 
REMARK    4  A    between atoms: C_13  and  C_14 
REMARK    5  A    between atoms: C_15  and  C_16 
REMARK    6  A    between atoms: C_18  and  N_19 
REMARK    7  A    between atoms: N_25  and  C_26 
REMARK    8  A    between atoms: C_26  and  C_27 
REMARK    9  A    between atoms: C_27  and  C_28 
REMARK   10  A    between atoms: C_28  and  N_29 
REMARK   11  A    between atoms: C_38  and  O_39 
ROOT
HETATM    1  C   UNL     1      25.588  45.428  52.007  1.00  0.00     0.059 A 
HETATM    2  C   UNL     1      24.655  45.020  50.889  1.00  0.00     0.161 A 
HETATM    3  N   UNL     1      24.638  46.226  50.079  1.00  0.00    -0.333 N 
HETATM    4  C   UNL     1      25.450  47.206  50.606  1.00  0.00     0.278 A 
HETATM    5  O   UNL     1      25.508  48.358  50.204  1.00  0.00    -0.265 OA
HETATM    6  C   UNL     1      26.046  46.683  51.858  1.00  0.00     0.146 A 
ENDROOT
BRANCH   1   7
HETATM    7  C   UNL     1      25.688  44.474  53.136  1.00  0.00     0.196 C 
HETATM    8  O   UNL     1      24.665  44.130  53.720  1.00  0.00    -0.287 OA
BRANCH   7   9
HETATM    9  C   UNL     1      27.018  44.085  53.590  1.00  0.00     0.045 A 
HETATM   10  C   UNL     1      27.827  44.822  54.530  1.00  0.00    -0.013 A 
HETATM   11  C   UNL     1      27.445  46.112  55.182  1.00  0.00     0.052 C 
HETATM   12  C   UNL     1      29.003  44.105  54.730  1.00  0.00     0.115 A 
HETATM   13  N   UNL     1      28.919  42.976  53.946  1.00  0.00    -0.354 N 
HETATM   14  H   UNL     1      29.639  42.261  53.929  1.00  0.00     0.166 HD
HETATM   15  C   UNL     1      27.719  42.925  53.281  1.00  0.00     0.020 A 
HETATM   16  C   UNL     1      27.384  41.732  52.455  1.00  0.00     0.069 C 
BRANCH  12  17
HETATM   17  C   UNL     1      30.168  44.325  55.564  1.00  0.00     0.310 C 
HETATM   18  O   UNL     1      31.004  43.463  55.799  1.00  0.00    -0.258 OA
BRANCH  17  19
HETATM   19  O   UNL     1      30.196  45.597  56.039  1.00  0.00    -0.321 OA
HETATM   20  C   UNL     1      30.329  45.688  57.457  1.00  0.00     0.213 C 
ENDBRANCH  17  19
ENDBRANCH  12  17
ENDBRANCH   7   9
ENDBRANCH   1   7
BRANCH   2  21
HETATM   21  C   UNL     1      25.052  43.796  50.081  1.00  0.00    -0.028 A 
HETATM   22  C   UNL     1      24.110  42.892  49.563  1.00  0.00     0.045 A 
HETATM   23  C   UNL     1      24.525  41.812  48.764  1.00  0.00     0.103 A 
HETATM   24  C   UNL     1      25.883  41.583  48.521  1.00  0.00     0.036 A 
HETATM   25  C   UNL     1      26.826  42.450  49.068  1.00  0.00     0.003 A 
HETATM   26  C   UNL     1      26.414  43.549  49.830  1.00  0.00     0.010 A 
BRANCH  23  27
HETATM   27  N   UNL     1      23.517  40.932  48.158  1.00  0.00    -0.116 N 
HETATM   28  O   UNL     1      23.920  40.063  47.371  1.00  0.00    -0.532 OA
HETATM   29  O   UNL     1      22.332  41.111  48.468  1.00  0.00    -0.532 OA
ENDBRANCH  23  27
ENDBRANCH   2  21
BRANCH   6  30
HETATM   30  O   UNL     1      26.746  47.502  52.690  1.00  0.00    -0.355 OA
HETATM   31  H   UNL     1      26.321  47.562  53.563  1.00  0.00     0.218 HD
ENDBRANCH   6  30
BRANCH   3  32
HETATM   32  C   UNL     1      23.629  46.510  49.073  1.00  0.00     0.129 C 
BRANCH  32  33
HETATM   33  C   UNL     1      22.965  47.887  49.221  1.00  0.00     0.048 C 
BRANCH  33  34
HETATM   34  C   UNL     1      21.510  48.029  48.757  1.00  0.00     0.236 C 
BRANCH  34  35
HETATM   35  N   UNL     1      20.640  48.826  49.687  1.00  0.00    -0.067 N 
HETATM   36  H   UNL     1      21.082  48.812  50.630  1.00  0.00     0.280 HD
HETATM   37  C   UNL     1      20.412  50.267  49.270  1.00  0.00     0.261 C 
HETATM   38  C   UNL     1      19.520  50.975  50.297  1.00  0.00     0.195 C 
HETATM   39  O   UNL     1      18.275  50.287  50.462  1.00  0.00    -0.388 OA
HETATM   40  C   UNL     1      18.479  48.952  50.942  1.00  0.00     0.195 C 
HETATM   41  C   UNL     1      19.295  48.136  49.933  1.00  0.00     0.261 C 
ENDBRANCH  34  35
ENDBRANCH  33  34
ENDBRANCH  32  33
ENDBRANCH   3  32
TORSDOF 11
ENDMDL
MODEL 6
REMARK VINA RESULT:      -8.0      2.191      8.205
REMARK  11 active torsions:
REMARK  status: ('A' for Active; 'I' for Inactive)
REMARK    1  A    between atoms: C_3  and  C_4 
REMARK    2  A    between atoms: C_4  and  O_5 
REMARK    3  A    between atoms: C_12  and  C_13 
REMARK    4  A    between atoms: C_13  and  C_14 
REMARK    5  A    between atoms: C_15  and  C_16 
REMARK    6  A    between atoms: C_18  and  N_19 
REMARK    7  A    between atoms: N_25  and  C_26 
REMARK    8  A    between atoms: C_26  and  C_27 
REMARK    9  A    between atoms: C_27  and  C_28 
REMARK   10  A    between atoms: C_28  and  N_29 
REMARK   11  A    between atoms: C_38  and  O_39 
ROOT
HETATM    1  C   UNL     1      25.389  45.852  51.733  1.00  0.00     0.059 A 
HETATM    2  C   UNL     1      24.342  45.419  50.730  1.00  0.00     0.161 A 
HETATM    3  N   UNL     1      24.424  46.493  49.754  1.00  0.00    -0.333 N 
HETATM    4  C   UNL     1      25.384  47.419  50.095  1.00  0.00     0.278 A 
HETATM    5  O   UNL     1      25.559  48.487  49.526  1.00  0.00    -0.265 OA
HETATM    6  C   UNL     1      25.989  47.002  51.381  1.00  0.00     0.146 A 
ENDROOT
BRANCH   1   7
HETATM    7  C   UNL     1      25.441  45.058  52.983  1.00  0.00     0.196 C 
HETATM    8  O   UNL     1      24.417  44.523  53.394  1.00  0.00    -0.287 OA
BRANCH   7   9
HETATM    9  C   UNL     1      26.685  45.058  53.744  1.00  0.00     0.045 A 
HETATM   10  C   UNL     1      27.729  44.068  53.635  1.00  0.00    -0.013 A 
HETATM   11  C   UNL     1      27.702  42.871  52.740  1.00  0.00     0.052 C 
HETATM   12  C   UNL     1      28.759  44.443  54.493  1.00  0.00     0.115 A 
HETATM   13  N   UNL     1      28.365  45.614  55.100  1.00  0.00    -0.354 N 
HETATM   14  H   UNL     1      28.952  46.121  55.755  1.00  0.00     0.166 HD
HETATM   15  C   UNL     1      27.138  46.021  54.638  1.00  0.00     0.020 A 
HETATM   16  C   UNL     1      26.573  47.321  55.094  1.00  0.00     0.069 C 
BRANCH  12  17
HETATM   17  C   UNL     1      30.055  43.869  54.794  1.00  0.00     0.310 C 
HETATM   18  O   UNL     1      30.602  43.027  54.095  1.00  0.00    -0.258 OA
BRANCH  17  19
HETATM   19  O   UNL     1      30.565  44.387  55.942  1.00  0.00    -0.321 OA
HETATM   20  C   UNL     1      31.338  43.463  56.707  1.00  0.00     0.213 C 
ENDBRANCH  17  19
ENDBRANCH  12  17
ENDBRANCH   7   9
ENDBRANCH   1   7
BRANCH   2  21
HETATM   21  C   UNL     1      24.531  44.054  50.092  1.00  0.00    -0.028 A 
HETATM   22  C   UNL     1      25.793  43.550  49.739  1.00  0.00     0.045 A 
HETATM   23  C   UNL     1      25.920  42.254  49.212  1.00  0.00     0.103 A 
HETATM   24  C   UNL     1      24.791  41.465  48.973  1.00  0.00     0.036 A 
HETATM   25  C   UNL     1      23.531  41.974  49.279  1.00  0.00     0.003 A 
HETATM   26  C   UNL     1      23.404  43.248  49.841  1.00  0.00     0.010 A 
BRANCH  23  27
HETATM   27  N   UNL     1      27.259  41.713  48.935  1.00  0.00    -0.116 N 
HETATM   28  O   UNL     1      27.687  41.819  47.777  1.00  0.00    -0.532 OA
HETATM   29  O   UNL     1      27.875  41.189  49.872  1.00  0.00    -0.532 OA
ENDBRANCH  23  27
ENDBRANCH   2  21
BRANCH   6  30
HETATM   30  O   UNL     1      26.838  47.828  52.052  1.00  0.00    -0.355 OA
HETATM   31  H   UNL     1      27.741  47.465  52.067  1.00  0.00     0.218 HD
ENDBRANCH   6  30
BRANCH   3  32
HETATM   32  C   UNL     1      23.395  46.766  48.764  1.00  0.00     0.129 C 
BRANCH  32  33
HETATM   33  C   UNL     1      22.408  47.869  49.172  1.00  0.00     0.048 C 
BRANCH  33  34
HETATM   34  C   UNL     1      20.995  47.814  48.579  1.00  0.00     0.236 C 
BRANCH  34  35
HETATM   35  N   UNL     1      20.196  49.072  48.769  1.00  0.00    -0.067 N 
HETATM   36  H   UNL     1      19.514  49.140  47.984  1.00  0.00     0.280 HD
HETATM   37  C   UNL     1      19.444  49.159  50.084  1.00  0.00     0.261 C 
HETATM   38  C   UNL     1      18.665  50.477  50.156  1.00  0.00     0.195 C 
HETATM   39  O   UNL     1      19.535  51.602  49.989  1.00  0.00    -0.388 OA
HETATM   40  C   UNL     1      20.181  51.573  48.710  1.00  0.00     0.195 C 
HETATM   41  C   UNL     1      21.058  50.324  48.578  1.00  0.00     0.261 C 
ENDBRANCH  34  35
ENDBRANCH  33  34
ENDBRANCH  32  33
ENDBRANCH   3  32
TORSDOF 11
ENDMDL
MODEL 7
REMARK VINA RESULT:      -7.9      7.276     14.363
REMARK  11 active torsions:
REMARK  status: ('A' for Active; 'I' for Inactive)
REMARK    1  A    between atoms: C_3  and  C_4 
REMARK    2  A    between atoms: C_4  and  O_5 
REMARK    3  A    between atoms: C_12  and  C_13 
REMARK    4  A    between atoms: C_13  and  C_14 
REMARK    5  A    between atoms: C_15  and  C_16 
REMARK    6  A    between atoms: C_18  and  N_19 
REMARK    7  A    between atoms: N_25  and  C_26 
REMARK    8  A    between atoms: C_26  and  C_27 
REMARK    9  A    between atoms: C_27  and  C_28 
REMARK   10  A    between atoms: C_28  and  N_29 
REMARK   11  A    between atoms: C_38  and  O_39 
ROOT
HETATM    1  C   UNL     1      16.357  48.595  47.261  1.00  0.00     0.059 A 
HETATM    2  C   UNL     1      17.243  49.753  46.858  1.00  0.00     0.161 A 
HETATM    3  N   UNL     1      16.556  50.235  45.671  1.00  0.00    -0.333 N 
HETATM    4  C   UNL     1      15.420  49.503  45.406  1.00  0.00     0.278 A 
HETATM    5  O   UNL     1      14.741  49.606  44.396  1.00  0.00    -0.265 OA
HETATM    6  C   UNL     1      15.311  48.438  46.431  1.00  0.00     0.146 A 
ENDROOT
BRANCH   1   7
HETATM    7  C   UNL     1      16.878  47.743  48.356  1.00  0.00     0.196 C 
HETATM    8  O   UNL     1      16.086  47.168  49.095  1.00  0.00    -0.287 OA
BRANCH   7   9
HETATM    9  C   UNL     1      18.317  47.731  48.589  1.00  0.00     0.045 A 
HETATM   10  C   UNL     1      19.314  47.312  47.632  1.00  0.00    -0.013 A 
HETATM   11  C   UNL     1      19.036  46.806  46.253  1.00  0.00     0.052 C 
HETATM   12  C   UNL     1      20.564  47.485  48.220  1.00  0.00     0.115 A 
HETATM   13  N   UNL     1      20.344  47.990  49.482  1.00  0.00    -0.354 N 
HETATM   14  H   UNL     1      21.097  48.236  50.116  1.00  0.00     0.166 HD
HETATM   15  C   UNL     1      19.004  48.179  49.711  1.00  0.00     0.020 A 
HETATM   16  C   UNL     1      18.556  48.813  50.982  1.00  0.00     0.069 C 
BRANCH  12  17
HETATM   17  C   UNL     1      21.917  47.265  47.751  1.00  0.00     0.310 C 
HETATM   18  O   UNL     1      22.747  48.157  47.634  1.00  0.00    -0.258 OA
BRANCH  17  19
HETATM   19  O   UNL     1      22.129  45.955  47.465  1.00  0.00    -0.321 OA
HETATM   20  C   UNL     1      22.207  45.111  48.613  1.00  0.00     0.213 C 
ENDBRANCH  17  19
ENDBRANCH  12  17
ENDBRANCH   7   9
ENDBRANCH   1   7
BRANCH   2  21
HETATM   21  C   UNL     1      17.440  50.853  47.888  1.00  0.00    -0.028 A 
HETATM   22  C   UNL     1      16.367  51.476  48.546  1.00  0.00     0.045 A 
HETATM   23  C   UNL     1      16.605  52.441  49.539  1.00  0.00     0.103 A 
HETATM   24  C   UNL     1      17.908  52.842  49.848  1.00  0.00     0.036 A 
HETATM   25  C   UNL     1      18.977  52.261  49.169  1.00  0.00     0.003 A 
HETATM   26  C   UNL     1      18.745  51.270  48.208  1.00  0.00     0.010 A 
BRANCH  23  27
HETATM   27  N   UNL     1      15.471  53.013  50.278  1.00  0.00    -0.116 N 
HETATM   28  O   UNL     1      15.624  54.141  50.770  1.00  0.00    -0.532 OA
HETATM   29  O   UNL     1      14.438  52.338  50.363  1.00  0.00    -0.532 OA
ENDBRANCH  23  27
ENDBRANCH   2  21
BRANCH   6  30
HETATM   30  O   UNL     1      14.385  47.448  46.310  1.00  0.00    -0.355 OA
HETATM   31  H   UNL     1      13.498  47.766  46.552  1.00  0.00     0.218 HD
ENDBRANCH   6  30
BRANCH   3  32
HETATM   32  C   UNL     1      17.166  51.110  44.684  1.00  0.00     0.129 C 
BRANCH  32  33
HETATM   33  C   UNL     1      16.844  52.599  44.881  1.00  0.00     0.048 C 
BRANCH  33  34
HETATM   34  C   UNL     1      15.394  53.048  44.664  1.00  0.00     0.236 C 
BRANCH  34  35
HETATM   35  N   UNL     1      14.979  54.223  45.504  1.00  0.00    -0.067 N 
HETATM   36  H   UNL     1      15.842  54.666  45.884  1.00  0.00     0.280 HD
HETATM   37  C   UNL     1      14.164  55.274  44.775  1.00  0.00     0.261 C 
HETATM   38  C   UNL     1      13.810  56.419  45.732  1.00  0.00     0.195 C 
HETATM   39  O   UNL     1      13.107  55.934  46.881  1.00  0.00    -0.388 OA
HETATM   40  C   UNL     1      13.907  55.006  47.625  1.00  0.00     0.195 C 
HETATM   41  C   UNL     1      14.242  53.778  46.772  1.00  0.00     0.261 C 
ENDBRANCH  34  35
ENDBRANCH  33  34
ENDBRANCH  32  33
ENDBRANCH   3  32
TORSDOF 11
ENDMDL
MODEL 8
REMARK VINA RESULT:      -7.8      6.484     12.038
REMARK  11 active torsions:
REMARK  status: ('A' for Active; 'I' for Inactive)
REMARK    1  A    between atoms: C_3  and  C_4 
REMARK    2  A    between atoms: C_4  and  O_5 
REMARK    3  A    between atoms: C_12  and  C_13 
REMARK    4  A    between atoms: C_13  and  C_14 
REMARK    5  A    between atoms: C_15  and  C_16 
REMARK    6  A    between atoms: C_18  and  N_19 
REMARK    7  A    between atoms: N_25  and  C_26 
REMARK    8  A    between atoms: C_26  and  C_27 
REMARK    9  A    between atoms: C_27  and  C_28 
REMARK   10  A    between atoms: C_28  and  N_29 
REMARK   11  A    between atoms: C_38  and  O_39 
ROOT
HETATM    1  C   UNL     1      20.017  47.198  48.346  1.00  0.00     0.059 A 
HETATM    2  C   UNL     1      19.946  47.574  46.883  1.00  0.00     0.161 A 
HETATM    3  N   UNL     1      19.810  46.267  46.261  1.00  0.00    -0.333 N 
HETATM    4  C   UNL     1      19.779  45.258  47.197  1.00  0.00     0.278 A 
HETATM    5  O   UNL     1      19.813  44.064  46.941  1.00  0.00    -0.265 OA
HETATM    6  C   UNL     1      19.928  45.871  48.538  1.00  0.00     0.146 A 
ENDROOT
BRANCH   1   7
HETATM    7  C   UNL     1      20.350  48.305  49.274  1.00  0.00     0.196 C 
HETATM    8  O   UNL     1      19.564  48.588  50.172  1.00  0.00    -0.287 OA
BRANCH   7   9
HETATM    9  C   UNL     1      21.542  49.098  48.996  1.00  0.00     0.045 A 
HETATM   10  C   UNL     1      22.885  48.578  48.897  1.00  0.00    -0.013 A 
HETATM   11  C   UNL     1      23.279  47.148  49.078  1.00  0.00     0.052 C 
HETATM   12  C   UNL     1      23.728  49.641  48.584  1.00  0.00     0.115 A 
HETATM   13  N   UNL     1      22.936  50.764  48.494  1.00  0.00    -0.354 N 
HETATM   14  H   UNL     1      23.300  51.678  48.245  1.00  0.00     0.166 HD
HETATM   15  C   UNL     1      21.615  50.454  48.702  1.00  0.00     0.020 A 
HETATM   16  C   UNL     1      20.577  51.512  48.550  1.00  0.00     0.069 C 
BRANCH  12  17
HETATM   17  C   UNL     1      25.152  49.736  48.338  1.00  0.00     0.310 C 
HETATM   18  O   UNL     1      25.634  50.218  47.322  1.00  0.00    -0.258 OA
BRANCH  17  19
HETATM   19  O   UNL     1      25.863  49.222  49.375  1.00  0.00    -0.321 OA
HETATM   20  C   UNL     1      27.212  48.888  49.051  1.00  0.00     0.213 C 
ENDBRANCH  17  19
ENDBRANCH  12  17
ENDBRANCH   7   9
ENDBRANCH   1   7
BRANCH   2  21
HETATM   21  C   UNL     1      18.829  48.519  46.473  1.00  0.00    -0.028 A 
HETATM   22  C   UNL     1      17.477  48.256  46.747  1.00  0.00     0.045 A 
HETATM   23  C   UNL     1      16.487  49.194  46.406  1.00  0.00     0.103 A 
HETATM   24  C   UNL     1      16.821  50.375  45.737  1.00  0.00     0.036 A 
HETATM   25  C   UNL     1      18.156  50.623  45.423  1.00  0.00     0.003 A 
HETATM   26  C   UNL     1      19.148  49.710  45.796  1.00  0.00     0.010 A 
BRANCH  23  27
HETATM   27  N   UNL     1      15.090  48.941  46.784  1.00  0.00    -0.116 N 
HETATM   28  O   UNL     1      14.209  49.366  46.023  1.00  0.00    -0.532 OA
HETATM   29  O   UNL     1      14.879  48.319  47.833  1.00  0.00    -0.532 OA
ENDBRANCH  23  27
ENDBRANCH   2  21
BRANCH   6  30
HETATM   30  O   UNL     1      20.118  45.096  49.641  1.00  0.00    -0.355 OA
HETATM   31  H   UNL     1      20.594  45.584  50.335  1.00  0.00     0.218 HD
ENDBRANCH   6  30
BRANCH   3  32
HETATM   32  C   UNL     1      20.053  46.014  44.851  1.00  0.00     0.129 C 
BRANCH  32  33
HETATM   33  C   UNL     1      18.820  45.521  44.080  1.00  0.00     0.048 C 
BRANCH  33  34
HETATM   34  C   UNL     1      17.904  46.578  43.452  1.00  0.00     0.236 C 
BRANCH  34  35
HETATM   35  N   UNL     1      16.536  46.074  43.089  1.00  0.00    -0.067 N 
HETATM   36  H   UNL     1      16.207  46.611  42.259  1.00  0.00     0.280 HD
HETATM   37  C   UNL     1      16.464  44.591  42.777  1.00  0.00     0.261 C 
HETATM   38  C   UNL     1      15.026  44.201  42.415  1.00  0.00     0.195 C 
HETATM   39  O   UNL     1      14.116  44.548  43.464  1.00  0.00    -0.388 OA
HETATM   40  C   UNL     1      14.113  45.961  43.703  1.00  0.00     0.195 C 
HETATM   41  C   UNL     1      15.499  46.433  44.157  1.00  0.00     0.261 C 
ENDBRANCH  34  35
ENDBRANCH  33  34
ENDBRANCH  32  33
ENDBRANCH   3  32
TORSDOF 11
ENDMDL
MODEL 9
REMARK VINA RESULT:      -7.8     11.441     14.132
REMARK  11 active torsions:
REMARK  status: ('A' for Active; 'I' for Inactive)
REMARK    1  A    between atoms: C_3  and  C_4 
REMARK    2  A    between atoms: C_4  and  O_5 
REMARK    3  A    between atoms: C_12  and  C_13 
REMARK    4  A    between atoms: C_13  and  C_14 
REMARK    5  A    between atoms: C_15  and  C_16 
REMARK    6  A    between atoms: C_18  and  N_19 
REMARK    7  A    between atoms: N_25  and  C_26 
REMARK    8  A    between atoms: C_26  and  C_27 
REMARK    9  A    between atoms: C_27  and  C_28 
REMARK   10  A    between atoms: C_28  and  N_29 
REMARK   11  A    between atoms: C_38  and  O_39 
ROOT
HETATM    1  C   UNL     1      29.517  50.193  40.305  1.00  0.00     0.059 A 
HETATM    2  C   UNL     1      28.337  49.377  39.828  1.00  0.00     0.161 A 
HETATM    3  N   UNL     1      27.961  50.099  38.624  1.00  0.00    -0.333 N 
HETATM    4  C   UNL     1      28.794  51.171  38.392  1.00  0.00     0.278 A 
HETATM    5  O   UNL     1      28.617  52.022  37.533  1.00  0.00    -0.265 OA
HETATM    6  C   UNL     1      29.785  51.229  39.492  1.00  0.00     0.146 A 
ENDROOT
BRANCH   1   7
HETATM    7  C   UNL     1      30.043  49.833  41.643  1.00  0.00     0.196 C 
HETATM    8  O   UNL     1      29.254  49.548  42.538  1.00  0.00    -0.287 OA
BRANCH   7   9
HETATM    9  C   UNL     1      31.477  49.962  41.874  1.00  0.00     0.045 A 
HETATM   10  C   UNL     1      32.121  51.086  42.511  1.00  0.00    -0.013 A 
HETATM   11  C   UNL     1      31.431  52.308  43.025  1.00  0.00     0.052 C 
HETATM   12  C   UNL     1      33.484  50.810  42.576  1.00  0.00     0.115 A 
HETATM   13  N   UNL     1      33.668  49.571  42.004  1.00  0.00    -0.354 N 
HETATM   14  H   UNL     1      34.574  49.117  41.951  1.00  0.00     0.166 HD
HETATM   15  C   UNL     1      32.471  49.028  41.609  1.00  0.00     0.020 A 
HETATM   16  C   UNL     1      32.436  47.646  41.056  1.00  0.00     0.069 C 
BRANCH  12  17
HETATM   17  C   UNL     1      34.616  51.535  43.117  1.00  0.00     0.310 C 
HETATM   18  O   UNL     1      34.541  52.289  44.078  1.00  0.00    -0.258 OA
BRANCH  17  19
HETATM   19  O   UNL     1      35.750  51.265  42.419  1.00  0.00    -0.321 OA
HETATM   20  C   UNL     1      36.676  52.349  42.368  1.00  0.00     0.213 C 
ENDBRANCH  17  19
ENDBRANCH  12  17
ENDBRANCH   7   9
ENDBRANCH   1   7
BRANCH   2  21
HETATM   21  C   UNL     1      28.592  47.904  39.552  1.00  0.00    -0.028 A 
HETATM   22  C   UNL     1      28.021  46.879  40.324  1.00  0.00     0.045 A 
HETATM   23  C   UNL     1      28.235  45.531  39.987  1.00  0.00     0.103 A 
HETATM   24  C   UNL     1      29.065  45.185  38.917  1.00  0.00     0.036 A 
HETATM   25  C   UNL     1      29.670  46.196  38.173  1.00  0.00     0.003 A 
HETATM   26  C   UNL     1      29.428  47.539  38.481  1.00  0.00     0.010 A 
BRANCH  23  27
HETATM   27  N   UNL     1      27.554  44.478  40.752  1.00  0.00    -0.116 N 
HETATM   28  O   UNL     1      28.140  43.392  40.871  1.00  0.00    -0.532 OA
HETATM   29  O   UNL     1      26.442  44.738  41.230  1.00  0.00    -0.532 OA
ENDBRANCH  23  27
ENDBRANCH   2  21
BRANCH   6  30
HETATM   30  O   UNL     1      30.619  52.297  39.622  1.00  0.00    -0.355 OA
HETATM   31  H   UNL     1      31.551  52.021  39.585  1.00  0.00     0.218 HD
ENDBRANCH   6  30
BRANCH   3  32
HETATM   32  C   UNL     1      26.674  49.956  37.964  1.00  0.00     0.129 C 
BRANCH  32  33
HETATM   33  C   UNL     1      25.519  49.601  38.911  1.00  0.00     0.048 C 
BRANCH  33  34
HETATM   34  C   UNL     1      24.451  48.628  38.397  1.00  0.00     0.236 C 
BRANCH  34  35
HETATM   35  N   UNL     1      23.059  48.928  38.878  1.00  0.00    -0.067 N 
HETATM   36  H   UNL     1      22.391  48.589  38.153  1.00  0.00     0.280 HD
HETATM   37  C   UNL     1      22.696  48.306  40.213  1.00  0.00     0.261 C 
HETATM   38  C   UNL     1      21.256  48.676  40.589  1.00  0.00     0.195 C 
HETATM   39  O   UNL     1      21.080  50.096  40.621  1.00  0.00    -0.388 OA
HETATM   40  C   UNL     1      21.334  50.681  39.338  1.00  0.00     0.195 C 
HETATM   41  C   UNL     1      22.786  50.435  38.913  1.00  0.00     0.261 C 
ENDBRANCH  34  35
ENDBRANCH  33  34
ENDBRANCH  32  33
ENDBRANCH   3  32
TORSDOF 11
ENDMDL
MODEL 10
REMARK VINA RESULT:      -7.7      5.767     10.671
REMARK  11 active torsions:
REMARK  status: ('A' for Active; 'I' for Inactive)
REMARK    1  A    between atoms: C_3  and  C_4 
REMARK    2  A    between atoms: C_4  and  O_5 
REMARK    3  A    between atoms: C_12  and  C_13 
REMARK    4  A    between atoms: C_13  and  C_14 
REMARK    5  A    between atoms: C_15  and  C_16 
REMARK    6  A    between atoms: C_18  and  N_19 
REMARK    7  A    between atoms: N_25  and  C_26 
REMARK    8  A    between atoms: C_26  and  C_27 
REMARK    9  A    between atoms: C_27  and  C_28 
REMARK   10  A    between atoms: C_28  and  N_29 
REMARK   11  A    between atoms: C_38  and  O_39 
ROOT
HETATM    1  C   UNL     1      19.819  47.916  48.109  1.00  0.00     0.059 A 
HETATM    2  C   UNL     1      20.402  49.273  48.436  1.00  0.00     0.161 A 
HETATM    3  N   UNL     1      19.820  49.523  49.744  1.00  0.00    -0.333 N 
HETATM    4  C   UNL     1      19.027  48.476  50.159  1.00  0.00     0.278 A 
HETATM    5  O   UNL     1      18.312  48.489  51.150  1.00  0.00    -0.265 OA
HETATM    6  C   UNL     1      19.023  47.452  49.088  1.00  0.00     0.146 A 
ENDROOT
BRANCH   1   7
HETATM    7  C   UNL     1      20.066  47.431  46.731  1.00  0.00     0.196 C 
HETATM    8  O   UNL     1      20.061  48.235  45.805  1.00  0.00    -0.287 OA
BRANCH   7   9
HETATM    9  C   UNL     1      20.175  45.992  46.520  1.00  0.00     0.045 A 
HETATM   10  C   UNL     1      21.347  45.196  46.792  1.00  0.00    -0.013 A 
HETATM   11  C   UNL     1      22.647  45.713  47.318  1.00  0.00     0.052 C 
HETATM   12  C   UNL     1      21.036  43.871  46.497  1.00  0.00     0.115 A 
HETATM   13  N   UNL     1      19.729  43.856  46.063  1.00  0.00    -0.354 N 
HETATM   14  H   UNL     1      19.242  43.002  45.811  1.00  0.00     0.166 HD
HETATM   15  C   UNL     1      19.181  45.114  46.104  1.00  0.00     0.020 A 
HETATM   16  C   UNL     1      17.742  45.301  45.771  1.00  0.00     0.069 C 
BRANCH  12  17
HETATM   17  C   UNL     1      21.785  42.634  46.589  1.00  0.00     0.310 C 
HETATM   18  O   UNL     1      22.215  42.028  45.616  1.00  0.00    -0.258 OA
BRANCH  17  19
HETATM   19  O   UNL     1      21.938  42.250  47.882  1.00  0.00    -0.321 OA
HETATM   20  C   UNL     1      23.287  41.965  48.252  1.00  0.00     0.213 C 
ENDBRANCH  17  19
ENDBRANCH  12  17
ENDBRANCH   7   9
ENDBRANCH   1   7
BRANCH   2  21
HETATM   21  C   UNL     1      21.917  49.378  48.458  1.00  0.00    -0.028 A 
HETATM   22  C   UNL     1      22.724  48.534  49.238  1.00  0.00     0.045 A 
HETATM   23  C   UNL     1      24.125  48.627  49.172  1.00  0.00     0.103 A 
HETATM   24  C   UNL     1      24.739  49.599  48.377  1.00  0.00     0.036 A 
HETATM   25  C   UNL     1      23.945  50.470  47.634  1.00  0.00     0.003 A 
HETATM   26  C   UNL     1      22.552  50.353  47.666  1.00  0.00     0.010 A 
BRANCH  23  27
HETATM   27  N   UNL     1      24.950  47.674  49.926  1.00  0.00    -0.116 N 
HETATM   28  O   UNL     1      25.838  47.074  49.304  1.00  0.00    -0.532 OA
HETATM   29  O   UNL     1      24.710  47.530  51.132  1.00  0.00    -0.532 OA
ENDBRANCH  23  27
ENDBRANCH   2  21
BRANCH   6  30
HETATM   30  O   UNL     1      18.175  46.389  49.145  1.00  0.00    -0.355 OA
HETATM   31  H   UNL     1      18.481  45.731  49.793  1.00  0.00     0.218 HD
ENDBRANCH   6  30
BRANCH   3  32
HETATM   32  C   UNL     1      19.763  50.835  50.367  1.00  0.00     0.129 C 
BRANCH  32  33
HETATM   33  C   UNL     1      19.371  51.968  49.407  1.00  0.00     0.048 C 
BRANCH  33  34
HETATM   34  C   UNL     1      17.879  52.289  49.257  1.00  0.00     0.236 C 
BRANCH  34  35
HETATM   35  N   UNL     1      17.229  51.660  48.058  1.00  0.00    -0.067 N 
HETATM   36  H   UNL     1      16.451  52.282  47.753  1.00  0.00     0.280 HD
HETATM   37  C   UNL     1      18.157  51.416  46.882  1.00  0.00     0.261 C 
HETATM   38  C   UNL     1      17.378  50.781  45.724  1.00  0.00     0.195 C 
HETATM   39  O   UNL     1      16.742  49.566  46.134  1.00  0.00    -0.388 OA
HETATM   40  C   UNL     1      15.797  49.803  47.185  1.00  0.00     0.195 C 
HETATM   41  C   UNL     1      16.501  50.363  48.425  1.00  0.00     0.261 C 
ENDBRANCH  34  35
ENDBRANCH  33  34
ENDBRANCH  32  33
ENDBRANCH   3  32
TORSDOF 11
ENDMDL
