MODEL 1
REMARK VINA RESULT:     -10.1      0.000      0.000
REMARK  6 active torsions:
REMARK  status: ('A' for Active; 'I' for Inactive)
REMARK    1  A    between atoms: C_2  and  C_3 
REMARK       I    between atoms: C_2  and  N_9 
REMARK    2  A    between atoms: C_3  and  N_4 
REMARK    3  A    between atoms: N_9  and  C_10 
REMARK    4  A    between atoms: C_15  and  C_16 
REMARK    5  A    between atoms: C_18  and  N_19 
REMARK    6  A    between atoms: N_19  and  C_20 
ROOT
HETATM    1  C   UNL     1      23.282  48.364  48.722  1.00  0.00     0.164 A 
HETATM    2  N   UNL     1      22.423  49.132  49.404  1.00  0.00    -0.210 NA
HETATM    3  C   UNL     1      21.129  48.772  49.432  1.00  0.00     0.143 A 
HETATM    4  C   UNL     1      20.663  47.640  48.746  1.00  0.00     0.039 A 
HETATM    5  C   UNL     1      19.315  47.197  48.723  1.00  0.00     0.018 A 
HETATM    6  C   UNL     1      18.952  46.057  48.012  1.00  0.00     0.001 A 
HETATM    7  C   UNL     1      19.925  45.346  47.323  1.00  0.00     0.002 A 
HETATM    8  C   UNL     1      21.255  45.776  47.355  1.00  0.00     0.032 A 
HETATM    9  C   UNL     1      21.643  46.910  48.058  1.00  0.00     0.073 A 
HETATM   10  N   UNL     1      22.936  47.251  48.053  1.00  0.00    -0.228 NA
ENDROOT
BRANCH   1  11
HETATM   11  C   UNL     1      24.699  48.777  48.743  1.00  0.00     0.039 A 
HETATM   12  C   UNL     1      25.699  48.116  49.502  1.00  0.00     0.049 A 
HETATM   13  C   UNL     1      27.006  48.629  49.517  1.00  0.00     0.030 A 
HETATM   14  C   UNL     1      27.346  49.769  48.785  1.00  0.00     0.002 A 
HETATM   15  C   UNL     1      26.383  50.421  48.031  1.00  0.00     0.001 A 
HETATM   16  C   UNL     1      25.078  49.931  48.016  1.00  0.00     0.018 A 
BRANCH  12  17
HETATM   17  N   UNL     1      25.365  46.944  50.221  1.00  0.00    -0.325 N 
HETATM   18  C   UNL     1      25.219  46.786  51.586  1.00  0.00     0.250 C 
HETATM   19  O   UNL     1      25.241  47.676  52.433  1.00  0.00    -0.271 OA
HETATM   20  H   UNL     1      25.247  46.096  49.663  1.00  0.00     0.169 HD
BRANCH  18  21
HETATM   21  C   UNL     1      24.948  45.331  51.991  1.00  0.00     0.375 C 
BRANCH  21  22
HETATM   22  N   UNL     1      25.883  44.878  53.042  1.00  0.00     0.097 N 
HETATM   23  C   UNL     1      25.179  44.347  54.216  1.00  0.00     0.273 C 
HETATM   24  C   UNL     1      26.287  43.613  54.947  1.00  0.00     0.032 C 
HETATM   25  C   UNL     1      27.161  43.049  53.836  1.00  0.00     0.032 C 
HETATM   26  C   UNL     1      26.714  43.766  52.566  1.00  0.00     0.273 C 
ENDBRANCH  21  22
ENDBRANCH  18  21
ENDBRANCH  12  17
ENDBRANCH   1  11
BRANCH   3  27
HETATM   27  N   UNL     1      20.225  49.575  50.177  1.00  0.00    -0.340 N 
HETATM   28  H   UNL     1      19.818  49.018  50.919  1.00  0.00     0.167 HD
BRANCH  27  29
HETATM   29  C   UNL     1      19.306  50.511  49.637  1.00  0.00     0.034 A 
HETATM   30  C   UNL     1      19.738  51.600  48.863  1.00  0.00     0.032 A 
HETATM   31  C   UNL     1      18.852  52.552  48.342  1.00  0.00     0.034 A 
HETATM   32  C   UNL     1      17.502  52.384  48.644  1.00  0.00     0.062 A 
HETATM   33  N   UNL     1      16.394  53.111  48.298  1.00  0.00    -0.278 N 
HETATM   34  C   UNL     1      17.029  51.343  49.433  1.00  0.00     0.013 A 
HETATM   35  H   UNL     1      16.358  53.943  47.721  1.00  0.00     0.189 HD
HETATM   36  N   UNL     1      15.242  52.628  48.798  1.00  0.00    -0.186 NA
HETATM   37  C   UNL     1      15.633  51.554  49.490  1.00  0.00     0.152 A 
HETATM   38  C   UNL     1      17.939  50.402  49.953  1.00  0.00     0.044 A 
ENDBRANCH  27  29
ENDBRANCH   3  27
TORSDOF 6
ENDMDL
MODEL 2
REMARK VINA RESULT:     -10.1      2.610      9.350
REMARK  6 active torsions:
REMARK  status: ('A' for Active; 'I' for Inactive)
REMARK    1  A    between atoms: C_2  and  C_3 
REMARK       I    between atoms: C_2  and  N_9 
REMARK    2  A    between atoms: C_3  and  N_4 
REMARK    3  A    between atoms: N_9  and  C_10 
REMARK    4  A    between atoms: C_15  and  C_16 
REMARK    5  A    between atoms: C_18  and  N_19 
REMARK    6  A    between atoms: N_19  and  C_20 
ROOT
HETATM    1  C   UNL     1      25.873  46.548  50.041  1.00  0.00     0.164 A 
HETATM    2  N   UNL     1      25.913  46.419  51.373  1.00  0.00    -0.210 NA
HETATM    3  C   UNL     1      25.816  45.187  51.899  1.00  0.00     0.143 A 
HETATM    4  C   UNL     1      25.646  44.052  51.091  1.00  0.00     0.039 A 
HETATM    5  C   UNL     1      25.532  42.720  51.568  1.00  0.00     0.018 A 
HETATM    6  C   UNL     1      25.368  41.658  50.684  1.00  0.00     0.001 A 
HETATM    7  C   UNL     1      25.322  41.910  49.319  1.00  0.00     0.002 A 
HETATM    8  C   UNL     1      25.446  43.221  48.848  1.00  0.00     0.032 A 
HETATM    9  C   UNL     1      25.611  44.298  49.711  1.00  0.00     0.073 A 
HETATM   10  N   UNL     1      25.736  45.521  49.185  1.00  0.00    -0.228 NA
ENDROOT
BRANCH   1  11
HETATM   11  C   UNL     1      26.015  47.915  49.503  1.00  0.00     0.039 A 
HETATM   12  C   UNL     1      24.916  48.736  49.143  1.00  0.00     0.049 A 
HETATM   13  C   UNL     1      25.154  49.996  48.570  1.00  0.00     0.030 A 
HETATM   14  C   UNL     1      26.453  50.464  48.362  1.00  0.00     0.002 A 
HETATM   15  C   UNL     1      27.538  49.677  48.717  1.00  0.00     0.001 A 
HETATM   16  C   UNL     1      27.318  48.420  49.276  1.00  0.00     0.018 A 
BRANCH  12  17
HETATM   17  N   UNL     1      23.598  48.278  49.379  1.00  0.00    -0.325 N 
HETATM   18  C   UNL     1      22.537  48.221  48.496  1.00  0.00     0.250 C 
HETATM   19  O   UNL     1      22.574  48.457  47.291  1.00  0.00    -0.271 OA
HETATM   20  H   UNL     1      23.394  47.979  50.334  1.00  0.00     0.169 HD
BRANCH  18  21
HETATM   21  C   UNL     1      21.235  47.753  49.159  1.00  0.00     0.375 C 
BRANCH  21  22
HETATM   22  N   UNL     1      20.209  48.816  49.149  1.00  0.00     0.097 N 
HETATM   23  C   UNL     1      19.112  48.534  50.084  1.00  0.00     0.273 C 
HETATM   24  C   UNL     1      18.426  49.883  50.186  1.00  0.00     0.032 C 
HETATM   25  C   UNL     1      19.563  50.891  50.091  1.00  0.00     0.032 C 
HETATM   26  C   UNL     1      20.767  50.096  49.599  1.00  0.00     0.273 C 
ENDBRANCH  21  22
ENDBRANCH  18  21
ENDBRANCH  12  17
ENDBRANCH   1  11
BRANCH   3  27
HETATM   27  N   UNL     1      25.882  45.052  53.311  1.00  0.00    -0.340 N 
HETATM   28  H   UNL     1      25.081  45.511  53.728  1.00  0.00     0.167 HD
BRANCH  27  29
HETATM   29  C   UNL     1      27.051  45.179  54.104  1.00  0.00     0.034 A 
HETATM   30  C   UNL     1      27.331  46.358  54.813  1.00  0.00     0.032 A 
HETATM   31  C   UNL     1      28.491  46.517  55.582  1.00  0.00     0.034 A 
HETATM   32  C   UNL     1      29.384  45.446  55.600  1.00  0.00     0.062 A 
HETATM   33  N   UNL     1      30.582  45.269  56.239  1.00  0.00    -0.278 N 
HETATM   34  C   UNL     1      29.168  44.273  54.889  1.00  0.00     0.013 A 
HETATM   35  H   UNL     1      31.055  45.922  56.854  1.00  0.00     0.189 HD
HETATM   36  N   UNL     1      31.162  44.079  56.000  1.00  0.00    -0.186 NA
HETATM   37  C   UNL     1      30.300  43.477  55.177  1.00  0.00     0.152 A 
HETATM   38  C   UNL     1      27.998  44.138  54.116  1.00  0.00     0.044 A 
ENDBRANCH  27  29
ENDBRANCH   3  27
TORSDOF 6
ENDMDL
MODEL 3
REMARK VINA RESULT:      -9.8      3.016      6.108
REMARK  6 active torsions:
REMARK  status: ('A' for Active; 'I' for Inactive)
REMARK    1  A    between atoms: C_2  and  C_3 
REMARK       I    between atoms: C_2  and  N_9 
REMARK    2  A    between atoms: C_3  and  N_4 
REMARK    3  A    between atoms: N_9  and  C_10 
REMARK    4  A    between atoms: C_15  and  C_16 
REMARK    5  A    between atoms: C_18  and  N_19 
REMARK    6  A    between atoms: N_19  and  C_20 
ROOT
HETATM    1  C   UNL     1      24.455  44.098  50.126  1.00  0.00     0.164 A 
HETATM    2  N   UNL     1      24.667  45.287  49.546  1.00  0.00    -0.210 NA
HETATM    3  C   UNL     1      25.112  46.298  50.308  1.00  0.00     0.143 A 
HETATM    4  C   UNL     1      25.327  46.144  51.687  1.00  0.00     0.039 A 
HETATM    5  C   UNL     1      25.792  47.162  52.559  1.00  0.00     0.018 A 
HETATM    6  C   UNL     1      25.976  46.909  53.916  1.00  0.00     0.001 A 
HETATM    7  C   UNL     1      25.706  45.641  54.414  1.00  0.00     0.002 A 
HETATM    8  C   UNL     1      25.261  44.635  53.551  1.00  0.00     0.032 A 
HETATM    9  C   UNL     1      25.069  44.862  52.194  1.00  0.00     0.073 A 
HETATM   10  N   UNL     1      24.653  43.846  51.430  1.00  0.00    -0.228 NA
ENDROOT
BRANCH   1  11
HETATM   11  C   UNL     1      23.997  43.005  49.246  1.00  0.00     0.039 A 
HETATM   12  C   UNL     1      24.641  41.744  49.158  1.00  0.00     0.049 A 
HETATM   13  C   UNL     1      24.174  40.793  48.236  1.00  0.00     0.030 A 
HETATM   14  C   UNL     1      23.078  41.058  47.413  1.00  0.00     0.002 A 
HETATM   15  C   UNL     1      22.432  42.283  47.492  1.00  0.00     0.001 A 
HETATM   16  C   UNL     1      22.891  43.241  48.394  1.00  0.00     0.018 A 
BRANCH  12  17
HETATM   17  N   UNL     1      25.733  41.461  50.012  1.00  0.00    -0.325 N 
HETATM   18  C   UNL     1      27.084  41.493  49.718  1.00  0.00     0.250 C 
HETATM   19  O   UNL     1      27.596  41.891  48.675  1.00  0.00    -0.271 OA
HETATM   20  H   UNL     1      25.495  41.163  50.959  1.00  0.00     0.169 HD
BRANCH  18  21
HETATM   21  C   UNL     1      27.958  41.023  50.887  1.00  0.00     0.375 C 
BRANCH  21  22
HETATM   22  N   UNL     1      27.822  41.913  52.059  1.00  0.00     0.097 N 
HETATM   23  C   UNL     1      28.534  41.393  53.233  1.00  0.00     0.273 C 
HETATM   24  C   UNL     1      28.583  42.608  54.140  1.00  0.00     0.032 C 
HETATM   25  C   UNL     1      28.739  43.784  53.184  1.00  0.00     0.032 C 
HETATM   26  C   UNL     1      28.427  43.224  51.801  1.00  0.00     0.273 C 
ENDBRANCH  21  22
ENDBRANCH  18  21
ENDBRANCH  12  17
ENDBRANCH   1  11
BRANCH   3  27
HETATM   27  N   UNL     1      25.360  47.550  49.686  1.00  0.00    -0.340 N 
HETATM   28  H   UNL     1      26.099  48.031  50.185  1.00  0.00     0.167 HD
BRANCH  27  29
HETATM   29  C   UNL     1      24.374  48.442  49.190  1.00  0.00     0.034 A 
HETATM   30  C   UNL     1      24.726  49.604  48.485  1.00  0.00     0.032 A 
HETATM   31  C   UNL     1      23.772  50.513  48.009  1.00  0.00     0.034 A 
HETATM   32  C   UNL     1      22.437  50.224  48.285  1.00  0.00     0.062 A 
HETATM   33  N   UNL     1      21.278  50.882  47.967  1.00  0.00    -0.278 N 
HETATM   34  C   UNL     1      22.041  49.106  49.007  1.00  0.00     0.013 A 
HETATM   35  H   UNL     1      21.182  51.741  47.439  1.00  0.00     0.189 HD
HETATM   36  N   UNL     1      20.164  50.283  48.426  1.00  0.00    -0.186 NA
HETATM   37  C   UNL     1      20.632  49.204  49.059  1.00  0.00     0.152 A 
HETATM   38  C   UNL     1      23.018  48.209  49.482  1.00  0.00     0.044 A 
ENDBRANCH  27  29
ENDBRANCH   3  27
TORSDOF 6
ENDMDL
MODEL 4
REMARK VINA RESULT:      -9.7      2.643      4.976
REMARK  6 active torsions:
REMARK  status: ('A' for Active; 'I' for Inactive)
REMARK    1  A    between atoms: C_2  and  C_3 
REMARK       I    between atoms: C_2  and  N_9 
REMARK    2  A    between atoms: C_3  and  N_4 
REMARK    3  A    between atoms: N_9  and  C_10 
REMARK    4  A    between atoms: C_15  and  C_16 
REMARK    5  A    between atoms: C_18  and  N_19 
REMARK    6  A    between atoms: N_19  and  C_20 
ROOT
HETATM    1  C   UNL     1      25.383  45.877  51.961  1.00  0.00     0.164 A 
HETATM    2  N   UNL     1      25.347  46.845  51.035  1.00  0.00    -0.210 NA
HETATM    3  C   UNL     1      24.611  46.644  49.931  1.00  0.00     0.143 A 
HETATM    4  C   UNL     1      23.912  45.446  49.717  1.00  0.00     0.039 A 
HETATM    5  C   UNL     1      23.117  45.157  48.578  1.00  0.00     0.018 A 
HETATM    6  C   UNL     1      22.459  43.935  48.460  1.00  0.00     0.001 A 
HETATM    7  C   UNL     1      22.582  42.995  49.474  1.00  0.00     0.002 A 
HETATM    8  C   UNL     1      23.355  43.286  50.602  1.00  0.00     0.032 A 
HETATM    9  C   UNL     1      24.021  44.497  50.744  1.00  0.00     0.073 A 
HETATM   10  N   UNL     1      24.731  44.707  51.858  1.00  0.00    -0.228 NA
ENDROOT
BRANCH   1  11
HETATM   11  C   UNL     1      26.178  46.151  53.174  1.00  0.00     0.039 A 
HETATM   12  C   UNL     1      26.915  45.159  53.871  1.00  0.00     0.049 A 
HETATM   13  C   UNL     1      27.581  45.502  55.059  1.00  0.00     0.030 A 
HETATM   14  C   UNL     1      27.545  46.805  55.561  1.00  0.00     0.002 A 
HETATM   15  C   UNL     1      26.836  47.787  54.887  1.00  0.00     0.001 A 
HETATM   16  C   UNL     1      26.160  47.460  53.713  1.00  0.00     0.018 A 
BRANCH  12  17
HETATM   17  N   UNL     1      26.979  43.845  53.350  1.00  0.00    -0.325 N 
HETATM   18  C   UNL     1      28.018  43.241  52.668  1.00  0.00     0.250 C 
HETATM   19  O   UNL     1      29.141  43.704  52.486  1.00  0.00    -0.271 OA
HETATM   20  H   UNL     1      26.136  43.279  53.464  1.00  0.00     0.169 HD
BRANCH  18  21
HETATM   21  C   UNL     1      27.666  41.832  52.176  1.00  0.00     0.375 C 
BRANCH  21  22
HETATM   22  N   UNL     1      26.664  41.870  51.091  1.00  0.00     0.097 N 
HETATM   23  C   UNL     1      27.195  42.490  49.870  1.00  0.00     0.273 C 
HETATM   24  C   UNL     1      26.172  42.073  48.830  1.00  0.00     0.032 C 
HETATM   25  C   UNL     1      25.743  40.677  49.264  1.00  0.00     0.032 C 
HETATM   26  C   UNL     1      26.270  40.516  50.686  1.00  0.00     0.273 C 
ENDBRANCH  21  22
ENDBRANCH  18  21
ENDBRANCH  12  17
ENDBRANCH   1  11
BRANCH   3  27
HETATM   27  N   UNL     1      24.556  47.682  48.963  1.00  0.00    -0.340 N 
HETATM   28  H   UNL     1      25.495  48.013  48.775  1.00  0.00     0.167 HD
BRANCH  27  29
HETATM   29  C   UNL     1      23.596  48.725  48.915  1.00  0.00     0.034 A 
HETATM   30  C   UNL     1      23.977  50.063  48.727  1.00  0.00     0.032 A 
HETATM   31  C   UNL     1      23.050  51.114  48.702  1.00  0.00     0.034 A 
HETATM   32  C   UNL     1      21.712  50.775  48.897  1.00  0.00     0.062 A 
HETATM   33  N   UNL     1      20.575  51.537  48.925  1.00  0.00    -0.278 N 
HETATM   34  C   UNL     1      21.290  49.471  49.121  1.00  0.00     0.013 A 
HETATM   35  H   UNL     1      20.500  52.539  48.795  1.00  0.00     0.189 HD
HETATM   36  N   UNL     1      19.449  50.835  49.151  1.00  0.00    -0.186 NA
HETATM   37  C   UNL     1      19.889  49.579  49.271  1.00  0.00     0.152 A 
HETATM   38  C   UNL     1      22.240  48.431  49.149  1.00  0.00     0.044 A 
ENDBRANCH  27  29
ENDBRANCH   3  27
TORSDOF 6
ENDMDL
MODEL 5
REMARK VINA RESULT:      -9.7      2.712      8.124
REMARK  6 active torsions:
REMARK  status: ('A' for Active; 'I' for Inactive)
REMARK    1  A    between atoms: C_2  and  C_3 
REMARK       I    between atoms: C_2  and  N_9 
REMARK    2  A    between atoms: C_3  and  N_4 
REMARK    3  A    between atoms: N_9  and  C_10 
REMARK    4  A    between atoms: C_15  and  C_16 
REMARK    5  A    between atoms: C_18  and  N_19 
REMARK    6  A    between atoms: N_19  and  C_20 
ROOT
HETATM    1  C   UNL     1      23.049  49.084  49.164  1.00  0.00     0.164 A 
HETATM    2  N   UNL     1      23.260  47.952  49.848  1.00  0.00    -0.210 NA
HETATM    3  C   UNL     1      24.526  47.564  50.067  1.00  0.00     0.143 A 
HETATM    4  C   UNL     1      25.617  48.297  49.574  1.00  0.00     0.039 A 
HETATM    5  C   UNL     1      26.982  47.954  49.759  1.00  0.00     0.018 A 
HETATM    6  C   UNL     1      27.995  48.749  49.231  1.00  0.00     0.001 A 
HETATM    7  C   UNL     1      27.661  49.894  48.522  1.00  0.00     0.002 A 
HETATM    8  C   UNL     1      26.317  50.239  48.350  1.00  0.00     0.032 A 
HETATM    9  C   UNL     1      25.287  49.462  48.867  1.00  0.00     0.073 A 
HETATM   10  N   UNL     1      24.027  49.864  48.673  1.00  0.00    -0.228 NA
ENDROOT
BRANCH   1  11
HETATM   11  C   UNL     1      21.643  49.490  48.974  1.00  0.00     0.039 A 
HETATM   12  C   UNL     1      20.584  48.575  48.743  1.00  0.00     0.049 A 
HETATM   13  C   UNL     1      19.290  49.063  48.499  1.00  0.00     0.030 A 
HETATM   14  C   UNL     1      19.021  50.433  48.495  1.00  0.00     0.002 A 
HETATM   15  C   UNL     1      20.043  51.341  48.727  1.00  0.00     0.001 A 
HETATM   16  C   UNL     1      21.335  50.872  48.959  1.00  0.00     0.018 A 
BRANCH  12  17
HETATM   17  N   UNL     1      20.848  47.185  48.776  1.00  0.00    -0.325 N 
HETATM   18  C   UNL     1      21.298  46.371  47.754  1.00  0.00     0.250 C 
HETATM   19  O   UNL     1      21.669  46.733  46.640  1.00  0.00    -0.271 OA
HETATM   20  H   UNL     1      20.650  46.714  49.661  1.00  0.00     0.169 HD
BRANCH  18  21
HETATM   21  C   UNL     1      21.367  44.893  48.157  1.00  0.00     0.375 C 
BRANCH  21  22
HETATM   22  N   UNL     1      22.628  44.580  48.861  1.00  0.00     0.097 N 
HETATM   23  C   UNL     1      22.455  43.512  49.855  1.00  0.00     0.273 C 
HETATM   24  C   UNL     1      23.889  43.111  50.143  1.00  0.00     0.032 C 
HETATM   25  C   UNL     1      24.601  43.270  48.806  1.00  0.00     0.032 C 
HETATM   26  C   UNL     1      23.640  44.068  47.930  1.00  0.00     0.273 C 
ENDBRANCH  21  22
ENDBRANCH  18  21
ENDBRANCH  12  17
ENDBRANCH   1  11
BRANCH   3  27
HETATM   27  N   UNL     1      24.746  46.376  50.813  1.00  0.00    -0.340 N 
HETATM   28  H   UNL     1      23.877  45.859  50.881  1.00  0.00     0.167 HD
BRANCH  27  29
HETATM   29  C   UNL     1      25.534  46.265  51.987  1.00  0.00     0.034 A 
HETATM   30  C   UNL     1      25.465  47.224  53.010  1.00  0.00     0.032 A 
HETATM   31  C   UNL     1      26.252  47.151  54.166  1.00  0.00     0.034 A 
HETATM   32  C   UNL     1      27.138  46.078  54.255  1.00  0.00     0.062 A 
HETATM   33  N   UNL     1      28.027  45.710  55.229  1.00  0.00    -0.278 N 
HETATM   34  C   UNL     1      27.267  45.123  53.255  1.00  0.00     0.013 A 
HETATM   35  H   UNL     1      28.203  46.176  56.112  1.00  0.00     0.189 HD
HETATM   36  N   UNL     1      28.724  44.595  54.943  1.00  0.00    -0.186 NA
HETATM   37  C   UNL     1      28.260  44.242  53.741  1.00  0.00     0.152 A 
HETATM   38  C   UNL     1      26.471  45.221  52.098  1.00  0.00     0.044 A 
ENDBRANCH  27  29
ENDBRANCH   3  27
TORSDOF 6
ENDMDL
MODEL 6
REMARK VINA RESULT:      -9.7      3.086      9.599
REMARK  6 active torsions:
REMARK  status: ('A' for Active; 'I' for Inactive)
REMARK    1  A    between atoms: C_2  and  C_3 
REMARK       I    between atoms: C_2  and  N_9 
REMARK    2  A    between atoms: C_3  and  N_4 
REMARK    3  A    between atoms: N_9  and  C_10 
REMARK    4  A    between atoms: C_15  and  C_16 
REMARK    5  A    between atoms: C_18  and  N_19 
REMARK    6  A    between atoms: N_19  and  C_20 
ROOT
HETATM    1  C   UNL     1      25.446  45.549  49.980  1.00  0.00     0.164 A 
HETATM    2  N   UNL     1      25.647  45.290  51.278  1.00  0.00    -0.210 NA
HETATM    3  C   UNL     1      25.785  44.010  51.659  1.00  0.00     0.143 A 
HETATM    4  C   UNL     1      25.694  42.953  50.740  1.00  0.00     0.039 A 
HETATM    5  C   UNL     1      25.825  41.577  51.063  1.00  0.00     0.018 A 
HETATM    6  C   UNL     1      25.720  40.601  50.077  1.00  0.00     0.001 A 
HETATM    7  C   UNL     1      25.491  40.983  48.762  1.00  0.00     0.002 A 
HETATM    8  C   UNL     1      25.375  42.339  48.442  1.00  0.00     0.032 A 
HETATM    9  C   UNL     1      25.476  43.333  49.408  1.00  0.00     0.073 A 
HETATM   10  N   UNL     1      25.367  44.609  49.023  1.00  0.00    -0.228 NA
ENDROOT
BRANCH   1  11
HETATM   11  C   UNL     1      25.331  46.971  49.599  1.00  0.00     0.039 A 
HETATM   12  C   UNL     1      24.115  47.583  49.200  1.00  0.00     0.049 A 
HETATM   13  C   UNL     1      24.121  48.924  48.784  1.00  0.00     0.030 A 
HETATM   14  C   UNL     1      25.299  49.674  48.770  1.00  0.00     0.002 A 
HETATM   15  C   UNL     1      26.495  49.093  49.165  1.00  0.00     0.001 A 
HETATM   16  C   UNL     1      26.507  47.759  49.569  1.00  0.00     0.018 A 
BRANCH  12  17
HETATM   17  N   UNL     1      22.915  46.835  49.242  1.00  0.00    -0.325 N 
HETATM   18  C   UNL     1      22.080  46.492  48.195  1.00  0.00     0.250 C 
HETATM   19  O   UNL     1      22.290  46.679  46.999  1.00  0.00    -0.271 OA
HETATM   20  H   UNL     1      22.607  46.536  50.168  1.00  0.00     0.169 HD
BRANCH  18  21
HETATM   21  C   UNL     1      20.816  45.757  48.658  1.00  0.00     0.375 C 
BRANCH  21  22
HETATM   22  N   UNL     1      19.590  46.459  48.226  1.00  0.00     0.097 N 
HETATM   23  C   UNL     1      18.449  45.545  48.087  1.00  0.00     0.273 C 
HETATM   24  C   UNL     1      17.277  46.506  48.031  1.00  0.00     0.032 C 
HETATM   25  C   UNL     1      17.675  47.641  48.965  1.00  0.00     0.032 C 
HETATM   26  C   UNL     1      19.164  47.444  49.227  1.00  0.00     0.273 C 
ENDBRANCH  21  22
ENDBRANCH  18  21
ENDBRANCH  12  17
ENDBRANCH   1  11
BRANCH   3  27
HETATM   27  N   UNL     1      26.023  43.740  53.033  1.00  0.00    -0.340 N 
HETATM   28  H   UNL     1      25.251  44.101  53.582  1.00  0.00     0.167 HD
BRANCH  27  29
HETATM   29  C   UNL     1      27.267  43.865  53.702  1.00  0.00     0.034 A 
HETATM   30  C   UNL     1      28.280  42.904  53.551  1.00  0.00     0.032 A 
HETATM   31  C   UNL     1      29.507  42.991  54.221  1.00  0.00     0.034 A 
HETATM   32  C   UNL     1      29.679  44.079  55.076  1.00  0.00     0.062 A 
HETATM   33  N   UNL     1      30.734  44.463  55.861  1.00  0.00    -0.278 N 
HETATM   34  C   UNL     1      28.695  45.037  55.284  1.00  0.00     0.013 A 
HETATM   35  H   UNL     1      31.631  44.000  55.958  1.00  0.00     0.189 HD
HETATM   36  N   UNL     1      30.515  45.589  56.563  1.00  0.00    -0.186 NA
HETATM   37  C   UNL     1      29.273  45.935  56.211  1.00  0.00     0.152 A 
HETATM   38  C   UNL     1      27.466  44.925  54.605  1.00  0.00     0.044 A 
ENDBRANCH  27  29
ENDBRANCH   3  27
TORSDOF 6
ENDMDL
MODEL 7
REMARK VINA RESULT:      -9.7      2.386      6.148
REMARK  6 active torsions:
REMARK  status: ('A' for Active; 'I' for Inactive)
REMARK    1  A    between atoms: C_2  and  C_3 
REMARK       I    between atoms: C_2  and  N_9 
REMARK    2  A    between atoms: C_3  and  N_4 
REMARK    3  A    between atoms: N_9  and  C_10 
REMARK    4  A    between atoms: C_15  and  C_16 
REMARK    5  A    between atoms: C_18  and  N_19 
REMARK    6  A    between atoms: N_19  and  C_20 
ROOT
HETATM    1  C   UNL     1      23.302  48.368  48.915  1.00  0.00     0.164 A 
HETATM    2  N   UNL     1      22.998  47.115  48.553  1.00  0.00    -0.210 NA
HETATM    3  C   UNL     1      21.707  46.750  48.541  1.00  0.00     0.143 A 
HETATM    4  C   UNL     1      20.686  47.634  48.922  1.00  0.00     0.039 A 
HETATM    5  C   UNL     1      19.301  47.324  48.939  1.00  0.00     0.018 A 
HETATM    6  C   UNL     1      18.363  48.274  49.333  1.00  0.00     0.001 A 
HETATM    7  C   UNL     1      18.793  49.541  49.707  1.00  0.00     0.002 A 
HETATM    8  C   UNL     1      20.156  49.850  49.678  1.00  0.00     0.032 A 
HETATM    9  C   UNL     1      21.112  48.919  49.289  1.00  0.00     0.073 A 
HETATM   10  N   UNL     1      22.395  49.293  49.274  1.00  0.00    -0.228 NA
ENDROOT
BRANCH   1  11
HETATM   11  C   UNL     1      24.730  48.739  48.884  1.00  0.00     0.039 A 
HETATM   12  C   UNL     1      25.738  48.045  49.602  1.00  0.00     0.049 A 
HETATM   13  C   UNL     1      27.060  48.518  49.569  1.00  0.00     0.030 A 
HETATM   14  C   UNL     1      27.406  49.651  48.830  1.00  0.00     0.002 A 
HETATM   15  C   UNL     1      26.434  50.336  48.115  1.00  0.00     0.001 A 
HETATM   16  C   UNL     1      25.116  49.885  48.148  1.00  0.00     0.018 A 
BRANCH  12  17
HETATM   17  N   UNL     1      25.397  46.879  50.328  1.00  0.00    -0.325 N 
HETATM   18  C   UNL     1      25.229  46.735  51.693  1.00  0.00     0.250 C 
HETATM   19  O   UNL     1      25.235  47.635  52.530  1.00  0.00    -0.271 OA
HETATM   20  H   UNL     1      25.290  46.025  49.778  1.00  0.00     0.169 HD
BRANCH  18  21
HETATM   21  C   UNL     1      24.957  45.284  52.109  1.00  0.00     0.375 C 
BRANCH  21  22
HETATM   22  N   UNL     1      26.142  44.670  52.742  1.00  0.00     0.097 N 
HETATM   23  C   UNL     1      25.859  44.200  54.105  1.00  0.00     0.273 C 
HETATM   24  C   UNL     1      27.045  43.296  54.383  1.00  0.00     0.032 C 
HETATM   25  C   UNL     1      27.354  42.656  53.035  1.00  0.00     0.032 C 
HETATM   26  C   UNL     1      26.571  43.472  52.012  1.00  0.00     0.273 C 
ENDBRANCH  21  22
ENDBRANCH  18  21
ENDBRANCH  12  17
ENDBRANCH   1  11
BRANCH   3  27
HETATM   27  N   UNL     1      21.386  45.427  48.133  1.00  0.00    -0.340 N 
HETATM   28  H   UNL     1      20.393  45.272  48.258  1.00  0.00     0.167 HD
BRANCH  27  29
HETATM   29  C   UNL     1      22.154  44.265  48.402  1.00  0.00     0.034 A 
HETATM   30  C   UNL     1      22.427  43.856  49.717  1.00  0.00     0.032 A 
HETATM   31  C   UNL     1      23.204  42.727  50.008  1.00  0.00     0.034 A 
HETATM   32  C   UNL     1      23.722  42.025  48.921  1.00  0.00     0.062 A 
HETATM   33  N   UNL     1      24.498  40.898  48.851  1.00  0.00    -0.278 N 
HETATM   34  C   UNL     1      23.508  42.409  47.604  1.00  0.00     0.013 A 
HETATM   35  H   UNL     1      24.847  40.341  49.622  1.00  0.00     0.189 HD
HETATM   36  N   UNL     1      24.807  40.522  47.597  1.00  0.00    -0.186 NA
HETATM   37  C   UNL     1      24.204  41.444  46.841  1.00  0.00     0.152 A 
HETATM   38  C   UNL     1      22.729  43.552  47.335  1.00  0.00     0.044 A 
ENDBRANCH  27  29
ENDBRANCH   3  27
TORSDOF 6
ENDMDL
MODEL 8
REMARK VINA RESULT:      -9.6      5.897     10.667
REMARK  6 active torsions:
REMARK  status: ('A' for Active; 'I' for Inactive)
REMARK    1  A    between atoms: C_2  and  C_3 
REMARK       I    between atoms: C_2  and  N_9 
REMARK    2  A    between atoms: C_3  and  N_4 
REMARK    3  A    between atoms: N_9  and  C_10 
REMARK    4  A    between atoms: C_15  and  C_16 
REMARK    5  A    between atoms: C_18  and  N_19 
REMARK    6  A    between atoms: N_19  and  C_20 
ROOT
HETATM    1  C   UNL     1      27.179  41.663  50.003  1.00  0.00     0.164 A 
HETATM    2  N   UNL     1      27.309  41.650  51.336  1.00  0.00    -0.210 NA
HETATM    3  C   UNL     1      26.989  42.760  52.019  1.00  0.00     0.143 A 
HETATM    4  C   UNL     1      26.556  43.927  51.370  1.00  0.00     0.039 A 
HETATM    5  C   UNL     1      26.204  45.139  52.019  1.00  0.00     0.018 A 
HETATM    6  C   UNL     1      25.784  46.244  51.285  1.00  0.00     0.001 A 
HETATM    7  C   UNL     1      25.703  46.152  49.902  1.00  0.00     0.002 A 
HETATM    8  C   UNL     1      26.038  44.954  49.264  1.00  0.00     0.032 A 
HETATM    9  C   UNL     1      26.461  43.837  49.974  1.00  0.00     0.073 A 
HETATM   10  N   UNL     1      26.751  42.722  49.295  1.00  0.00    -0.228 NA
ENDROOT
BRANCH   1  11
HETATM   11  C   UNL     1      27.509  40.412  49.293  1.00  0.00     0.039 A 
HETATM   12  C   UNL     1      26.571  39.668  48.533  1.00  0.00     0.049 A 
HETATM   13  C   UNL     1      26.962  38.449  47.955  1.00  0.00     0.030 A 
HETATM   14  C   UNL     1      28.263  37.962  48.100  1.00  0.00     0.002 A 
HETATM   15  C   UNL     1      29.194  38.682  48.833  1.00  0.00     0.001 A 
HETATM   16  C   UNL     1      28.818  39.887  49.423  1.00  0.00     0.018 A 
BRANCH  12  17
HETATM   17  N   UNL     1      25.261  40.173  48.358  1.00  0.00    -0.325 N 
HETATM   18  C   UNL     1      24.717  40.784  47.244  1.00  0.00     0.250 C 
HETATM   19  O   UNL     1      25.246  40.899  46.141  1.00  0.00    -0.271 OA
HETATM   20  H   UNL     1      24.645  40.107  49.170  1.00  0.00     0.169 HD
BRANCH  18  21
HETATM   21  C   UNL     1      23.287  41.285  47.479  1.00  0.00     0.375 C 
BRANCH  21  22
HETATM   22  N   UNL     1      23.277  42.624  48.103  1.00  0.00     0.097 N 
HETATM   23  C   UNL     1      22.195  43.469  47.582  1.00  0.00     0.273 C 
HETATM   24  C   UNL     1      22.143  44.587  48.606  1.00  0.00     0.032 C 
HETATM   25  C   UNL     1      22.471  43.903  49.927  1.00  0.00     0.032 C 
HETATM   26  C   UNL     1      23.023  42.534  49.545  1.00  0.00     0.273 C 
ENDBRANCH  21  22
ENDBRANCH  18  21
ENDBRANCH  12  17
ENDBRANCH   1  11
BRANCH   3  27
HETATM   27  N   UNL     1      27.105  42.735  53.435  1.00  0.00    -0.340 N 
HETATM   28  H   UNL     1      26.199  42.925  53.847  1.00  0.00     0.167 HD
BRANCH  27  29
HETATM   29  C   UNL     1      28.170  43.286  54.192  1.00  0.00     0.034 A 
HETATM   30  C   UNL     1      29.443  42.694  54.206  1.00  0.00     0.032 A 
HETATM   31  C   UNL     1      30.502  43.204  54.967  1.00  0.00     0.034 A 
HETATM   32  C   UNL     1      30.234  44.333  55.739  1.00  0.00     0.062 A 
HETATM   33  N   UNL     1      31.026  45.075  56.575  1.00  0.00    -0.278 N 
HETATM   34  C   UNL     1      28.983  44.935  55.785  1.00  0.00     0.013 A 
HETATM   35  H   UNL     1      32.007  44.929  56.785  1.00  0.00     0.189 HD
HETATM   36  N   UNL     1      30.392  46.107  57.160  1.00  0.00    -0.186 NA
HETATM   37  C   UNL     1      29.149  46.017  56.678  1.00  0.00     0.152 A 
HETATM   38  C   UNL     1      27.930  44.400  55.018  1.00  0.00     0.044 A 
ENDBRANCH  27  29
ENDBRANCH   3  27
TORSDOF 6
ENDMDL
MODEL 9
REMARK VINA RESULT:      -9.5      3.953      8.140
REMARK  6 active torsions:
REMARK  status: ('A' for Active; 'I' for Inactive)
REMARK    1  A    between atoms: C_2  and  C_3 
REMARK       I    between atoms: C_2  and  N_9 
REMARK    2  A    between atoms: C_3  and  N_4 
REMARK    3  A    between atoms: N_9  and  C_10 
REMARK    4  A    between atoms: C_15  and  C_16 
REMARK    5  A    between atoms: C_18  and  N_19 
REMARK    6  A    between atoms: N_19  and  C_20 
ROOT
HETATM    1  C   UNL     1      27.109  43.176  51.281  1.00  0.00     0.164 A 
HETATM    2  N   UNL     1      26.183  44.104  51.004  1.00  0.00    -0.210 NA
HETATM    3  C   UNL     1      26.048  45.142  51.845  1.00  0.00     0.143 A 
HETATM    4  C   UNL     1      26.828  45.256  53.006  1.00  0.00     0.039 A 
HETATM    5  C   UNL     1      26.744  46.318  53.944  1.00  0.00     0.018 A 
HETATM    6  C   UNL     1      27.565  46.343  55.068  1.00  0.00     0.001 A 
HETATM    7  C   UNL     1      28.480  45.317  55.265  1.00  0.00     0.002 A 
HETATM    8  C   UNL     1      28.571  44.277  54.334  1.00  0.00     0.032 A 
HETATM    9  C   UNL     1      27.763  44.230  53.205  1.00  0.00     0.073 A 
HETATM   10  N   UNL     1      27.917  43.211  52.353  1.00  0.00    -0.228 NA
ENDROOT
BRANCH   1  11
HETATM   11  C   UNL     1      27.245  42.069  50.314  1.00  0.00     0.039 A 
HETATM   12  C   UNL     1      26.471  41.958  49.131  1.00  0.00     0.049 A 
HETATM   13  C   UNL     1      26.622  40.828  48.311  1.00  0.00     0.030 A 
HETATM   14  C   UNL     1      27.531  39.817  48.629  1.00  0.00     0.002 A 
HETATM   15  C   UNL     1      28.301  39.914  49.778  1.00  0.00     0.001 A 
HETATM   16  C   UNL     1      28.155  41.024  50.608  1.00  0.00     0.018 A 
BRANCH  12  17
HETATM   17  N   UNL     1      25.571  42.995  48.789  1.00  0.00    -0.325 N 
HETATM   18  C   UNL     1      24.191  42.949  48.727  1.00  0.00     0.250 C 
HETATM   19  O   UNL     1      23.474  42.013  49.074  1.00  0.00    -0.271 OA
HETATM   20  H   UNL     1      25.995  43.886  48.524  1.00  0.00     0.169 HD
BRANCH  18  21
HETATM   21  C   UNL     1      23.574  44.258  48.219  1.00  0.00     0.375 C 
BRANCH  21  22
HETATM   22  N   UNL     1      22.105  44.154  48.099  1.00  0.00     0.097 N 
HETATM   23  C   UNL     1      21.421  45.337  48.636  1.00  0.00     0.273 C 
HETATM   24  C   UNL     1      20.024  45.185  48.065  1.00  0.00     0.032 C 
HETATM   25  C   UNL     1      20.245  44.566  46.691  1.00  0.00     0.032 C 
HETATM   26  C   UNL     1      21.693  44.087  46.692  1.00  0.00     0.273 C 
ENDBRANCH  21  22
ENDBRANCH  18  21
ENDBRANCH  12  17
ENDBRANCH   1  11
BRANCH   3  27
HETATM   27  N   UNL     1      25.082  46.136  51.536  1.00  0.00    -0.340 N 
HETATM   28  H   UNL     1      24.161  45.713  51.526  1.00  0.00     0.167 HD
BRANCH  27  29
HETATM   29  C   UNL     1      25.220  47.155  50.559  1.00  0.00     0.034 A 
HETATM   30  C   UNL     1      26.468  47.731  50.272  1.00  0.00     0.032 A 
HETATM   31  C   UNL     1      26.625  48.756  49.331  1.00  0.00     0.034 A 
HETATM   32  C   UNL     1      25.470  49.205  48.693  1.00  0.00     0.062 A 
HETATM   33  N   UNL     1      25.272  50.166  47.737  1.00  0.00    -0.278 N 
HETATM   34  C   UNL     1      24.209  48.691  48.967  1.00  0.00     0.013 A 
HETATM   35  H   UNL     1      25.973  50.749  47.295  1.00  0.00     0.189 HD
HETATM   36  N   UNL     1      23.987  50.319  47.370  1.00  0.00    -0.186 NA
HETATM   37  C   UNL     1      23.343  49.421  48.122  1.00  0.00     0.152 A 
HETATM   38  C   UNL     1      24.073  47.665  49.923  1.00  0.00     0.044 A 
ENDBRANCH  27  29
ENDBRANCH   3  27
TORSDOF 6
ENDMDL
MODEL 10
REMARK VINA RESULT:      -9.4      4.404     10.761
REMARK  6 active torsions:
REMARK  status: ('A' for Active; 'I' for Inactive)
REMARK    1  A    between atoms: C_2  and  C_3 
REMARK       I    between atoms: C_2  and  N_9 
REMARK    2  A    between atoms: C_3  and  N_4 
REMARK    3  A    between atoms: N_9  and  C_10 
REMARK    4  A    between atoms: C_15  and  C_16 
REMARK    5  A    between atoms: C_18  and  N_19 
REMARK    6  A    between atoms: N_19  and  C_20 
ROOT
HETATM    1  C   UNL     1      25.505  43.610  50.519  1.00  0.00     0.164 A 
HETATM    2  N   UNL     1      26.453  42.775  50.073  1.00  0.00    -0.210 NA
HETATM    3  C   UNL     1      26.188  42.032  48.987  1.00  0.00     0.143 A 
HETATM    4  C   UNL     1      24.946  42.091  48.337  1.00  0.00     0.039 A 
HETATM    5  C   UNL     1      24.588  41.338  47.189  1.00  0.00     0.018 A 
HETATM    6  C   UNL     1      23.327  41.469  46.615  1.00  0.00     0.001 A 
HETATM    7  C   UNL     1      22.414  42.354  47.173  1.00  0.00     0.002 A 
HETATM    8  C   UNL     1      22.771  43.105  48.297  1.00  0.00     0.032 A 
HETATM    9  C   UNL     1      24.023  42.992  48.888  1.00  0.00     0.073 A 
HETATM   10  N   UNL     1      24.295  43.754  49.953  1.00  0.00    -0.228 NA
ENDROOT
BRANCH   1  11
HETATM   11  C   UNL     1      25.848  44.432  51.697  1.00  0.00     0.039 A 
HETATM   12  C   UNL     1      25.401  45.765  51.882  1.00  0.00     0.049 A 
HETATM   13  C   UNL     1      25.842  46.492  53.000  1.00  0.00     0.030 A 
HETATM   14  C   UNL     1      26.700  45.923  53.942  1.00  0.00     0.002 A 
HETATM   15  C   UNL     1      27.139  44.618  53.781  1.00  0.00     0.001 A 
HETATM   16  C   UNL     1      26.720  43.887  52.670  1.00  0.00     0.018 A 
BRANCH  12  17
HETATM   17  N   UNL     1      24.508  46.336  50.944  1.00  0.00    -0.325 N 
HETATM   18  C   UNL     1      24.677  47.473  50.177  1.00  0.00     0.250 C 
HETATM   19  O   UNL     1      25.701  48.146  50.084  1.00  0.00    -0.271 OA
HETATM   20  H   UNL     1      23.607  45.865  50.842  1.00  0.00     0.169 HD
BRANCH  18  21
HETATM   21  C   UNL     1      23.435  47.823  49.349  1.00  0.00     0.375 C 
BRANCH  21  22
HETATM   22  N   UNL     1      23.195  49.281  49.322  1.00  0.00     0.097 N 
HETATM   23  C   UNL     1      23.718  49.905  48.100  1.00  0.00     0.273 C 
HETATM   24  C   UNL     1      23.033  51.258  48.115  1.00  0.00     0.032 C 
HETATM   25  C   UNL     1      21.659  50.977  48.710  1.00  0.00     0.032 C 
HETATM   26  C   UNL     1      21.758  49.580  49.312  1.00  0.00     0.273 C 
ENDBRANCH  21  22
ENDBRANCH  18  21
ENDBRANCH  12  17
ENDBRANCH   1  11
BRANCH   3  27
HETATM   27  N   UNL     1      27.204  41.166  48.502  1.00  0.00    -0.340 N 
HETATM   28  H   UNL     1      27.192  41.172  47.488  1.00  0.00     0.167 HD
BRANCH  27  29
HETATM   29  C   UNL     1      27.532  39.892  49.031  1.00  0.00     0.034 A 
HETATM   30  C   UNL     1      26.651  38.804  48.923  1.00  0.00     0.032 A 
HETATM   31  C   UNL     1      26.941  37.543  49.460  1.00  0.00     0.034 A 
HETATM   32  C   UNL     1      28.153  37.413  50.135  1.00  0.00     0.062 A 
HETATM   33  N   UNL     1      28.738  36.343  50.759  1.00  0.00    -0.278 N 
HETATM   34  C   UNL     1      29.043  38.467  50.297  1.00  0.00     0.013 A 
HETATM   35  H   UNL     1      28.373  35.400  50.838  1.00  0.00     0.189 HD
HETATM   36  N   UNL     1      29.932  36.616  51.314  1.00  0.00    -0.186 NA
HETATM   37  C   UNL     1      30.114  37.910  51.033  1.00  0.00     0.152 A 
HETATM   38  C   UNL     1      28.727  39.728  49.755  1.00  0.00     0.044 A 
ENDBRANCH  27  29
ENDBRANCH   3  27
TORSDOF 6
ENDMDL
