MODEL 1
REMARK VINA RESULT:      -8.7      0.000      0.000
REMARK  6 active torsions:
REMARK  status: ('A' for Active; 'I' for Inactive)
REMARK    1  A    between atoms: C_3  and  C_4 
REMARK    2  A    between atoms: C_14  and  N_15 
REMARK       I    between atoms: N_15  and  C_16 
REMARK    3  A    between atoms: C_16  and  C_17 
REMARK    4  A    between atoms: N_21  and  C_22 
REMARK    5  A    between atoms: C_22  and  C_23 
REMARK    6  A    between atoms: C_26  and  O_27 
ROOT
HETATM    1  C   UNL     1      27.074  48.696  49.831  1.00  0.00     0.051 C 
HETATM    2  C   UNL     1      25.700  48.191  49.551  1.00  0.00    -0.022 A 
HETATM    3  C   UNL     1      25.105  46.986  50.022  1.00  0.00     0.062 A 
HETATM    4  C   UNL     1      23.848  46.852  49.445  1.00  0.00     0.125 A 
HETATM    5  N   UNL     1      23.617  47.991  48.695  1.00  0.00    -0.332 N 
HETATM    6  C   UNL     1      24.750  48.806  48.744  1.00  0.00     0.017 A 
HETATM    7  C   UNL     1      24.854  50.088  47.977  1.00  0.00     0.069 C 
ENDROOT
BRANCH   3   8
HETATM    8  C   UNL     1      25.658  45.975  50.980  1.00  0.00     0.143 A 
HETATM    9  N   UNL     1      25.133  45.755  52.176  1.00  0.00    -0.228 NA
HETATM   10  C   UNL     1      25.993  44.874  52.795  1.00  0.00     0.086 A 
HETATM   11  C   UNL     1      27.029  44.512  51.943  1.00  0.00     0.062 A 
HETATM   12  C   UNL     1      25.964  44.348  54.094  1.00  0.00     0.034 A 
HETATM   13  N   UNL     1      26.777  45.207  50.790  1.00  0.00    -0.338 N 
HETATM   14  C   UNL     1      28.058  43.640  52.305  1.00  0.00     0.032 A 
HETATM   15  H   UNL     1      27.366  45.204  49.972  1.00  0.00     0.167 HD
HETATM   16  C   UNL     1      28.016  43.130  53.607  1.00  0.00     0.002 A 
HETATM   17  C   UNL     1      26.990  43.477  54.489  1.00  0.00     0.002 A 
ENDBRANCH   3   8
BRANCH   4  18
HETATM   18  N   UNL     1      23.135  45.669  49.618  1.00  0.00    -0.312 N 
HETATM   19  C   UNL     1      23.015  44.564  48.734  1.00  0.00     0.226 C 
HETATM   20  O   UNL     1      23.141  44.710  47.530  1.00  0.00    -0.273 OA
HETATM   21  H   UNL     1      22.551  45.669  50.460  1.00  0.00     0.170 HD
BRANCH  19  22
HETATM   22  C   UNL     1      22.714  43.226  49.381  1.00  0.00     0.070 C 
HETATM   23  C   UNL     1      22.756  42.141  48.311  1.00  0.00     0.019 C 
HETATM   24  C   UNL     1      23.642  42.906  50.545  1.00  0.00     0.019 C 
ENDBRANCH  19  22
ENDBRANCH   4  18
BRANCH   5  25
HETATM   25  C   UNL     1      22.442  48.325  47.892  1.00  0.00     0.169 C 
BRANCH  25  26
HETATM   26  C   UNL     1      21.332  49.046  48.618  1.00  0.00    -0.040 A 
HETATM   27  C   UNL     1      20.295  48.413  49.314  1.00  0.00     0.011 A 
HETATM   28  C   UNL     1      19.271  49.165  49.902  1.00  0.00     0.037 A 
HETATM   29  C   UNL     1      19.256  50.557  49.807  1.00  0.00     0.068 A 
HETATM   30  C   UNL     1      20.287  51.199  49.128  1.00  0.00     0.037 A 
HETATM   31  C   UNL     1      21.313  50.450  48.543  1.00  0.00     0.011 A 
BRANCH  29  32
HETATM   32  O   UNL     1      18.188  51.163  50.409  1.00  0.00    -0.356 OA
HETATM   33  C   UNL     1      17.671  52.330  49.781  1.00  0.00     0.210 C 
ENDBRANCH  29  32
ENDBRANCH  25  26
ENDBRANCH   5  25
TORSDOF 6
ENDMDL
MODEL 2
REMARK VINA RESULT:      -8.6      2.199      8.161
REMARK  6 active torsions:
REMARK  status: ('A' for Active; 'I' for Inactive)
REMARK    1  A    between atoms: C_3  and  C_4 
REMARK    2  A    between atoms: C_14  and  N_15 
REMARK       I    between atoms: N_15  and  C_16 
REMARK    3  A    between atoms: C_16  and  C_17 
REMARK    4  A    between atoms: N_21  and  C_22 
REMARK    5  A    between atoms: C_22  and  C_23 
REMARK    6  A    between atoms: C_26  and  O_27 
ROOT
HETATM    1  C   UNL     1      19.860  44.908  48.146  1.00  0.00     0.051 C 
HETATM    2  C   UNL     1      21.277  45.284  48.419  1.00  0.00    -0.022 A 
HETATM    3  C   UNL     1      21.801  46.589  48.641  1.00  0.00     0.062 A 
HETATM    4  C   UNL     1      23.182  46.503  48.758  1.00  0.00     0.125 A 
HETATM    5  N   UNL     1      23.517  45.162  48.700  1.00  0.00    -0.332 N 
HETATM    6  C   UNL     1      22.358  44.414  48.479  1.00  0.00     0.017 A 
HETATM    7  C   UNL     1      22.382  42.927  48.295  1.00  0.00     0.069 C 
ENDROOT
BRANCH   3   8
HETATM    8  C   UNL     1      21.067  47.893  48.750  1.00  0.00     0.143 A 
HETATM    9  N   UNL     1      21.222  48.880  47.881  1.00  0.00    -0.228 NA
HETATM   10  C   UNL     1      20.500  49.935  48.396  1.00  0.00     0.086 A 
HETATM   11  C   UNL     1      19.853  49.566  49.569  1.00  0.00     0.062 A 
HETATM   12  C   UNL     1      20.361  51.248  47.925  1.00  0.00     0.034 A 
HETATM   13  N   UNL     1      20.211  48.258  49.756  1.00  0.00    -0.338 N 
HETATM   14  C   UNL     1      19.058  50.436  50.318  1.00  0.00     0.032 A 
HETATM   15  H   UNL     1      19.945  47.692  50.546  1.00  0.00     0.167 HD
HETATM   16  C   UNL     1      18.936  51.743  49.837  1.00  0.00     0.002 A 
HETATM   17  C   UNL     1      19.576  52.146  48.662  1.00  0.00     0.002 A 
ENDBRANCH   3   8
BRANCH   4  18
HETATM   18  N   UNL     1      23.942  47.669  48.811  1.00  0.00    -0.312 N 
HETATM   19  C   UNL     1      24.863  48.086  49.808  1.00  0.00     0.226 C 
HETATM   20  O   UNL     1      24.757  47.699  50.960  1.00  0.00    -0.273 OA
HETATM   21  H   UNL     1      23.708  48.336  48.070  1.00  0.00     0.170 HD
BRANCH  19  22
HETATM   22  C   UNL     1      25.953  49.036  49.348  1.00  0.00     0.070 C 
HETATM   23  C   UNL     1      27.250  48.252  49.180  1.00  0.00     0.019 C 
HETATM   24  C   UNL     1      25.584  49.795  48.081  1.00  0.00     0.019 C 
ENDBRANCH  19  22
ENDBRANCH   4  18
BRANCH   5  25
HETATM   25  C   UNL     1      24.844  44.554  48.771  1.00  0.00     0.169 C 
BRANCH  25  26
HETATM   26  C   UNL     1      25.438  44.432  50.154  1.00  0.00    -0.040 A 
HETATM   27  C   UNL     1      24.694  44.248  51.326  1.00  0.00     0.011 A 
HETATM   28  C   UNL     1      25.330  44.212  52.573  1.00  0.00     0.037 A 
HETATM   29  C   UNL     1      26.713  44.360  52.679  1.00  0.00     0.068 A 
HETATM   30  C   UNL     1      27.465  44.532  51.521  1.00  0.00     0.037 A 
HETATM   31  C   UNL     1      26.833  44.564  50.273  1.00  0.00     0.011 A 
BRANCH  29  32
HETATM   32  O   UNL     1      27.198  44.325  53.956  1.00  0.00    -0.356 OA
HETATM   33  C   UNL     1      28.602  44.143  54.108  1.00  0.00     0.210 C 
ENDBRANCH  29  32
ENDBRANCH  25  26
ENDBRANCH   5  25
TORSDOF 6
ENDMDL
MODEL 3
REMARK VINA RESULT:      -8.4      1.408      3.637
REMARK  6 active torsions:
REMARK  status: ('A' for Active; 'I' for Inactive)
REMARK    1  A    between atoms: C_3  and  C_4 
REMARK    2  A    between atoms: C_14  and  N_15 
REMARK       I    between atoms: N_15  and  C_16 
REMARK    3  A    between atoms: C_16  and  C_17 
REMARK    4  A    between atoms: N_21  and  C_22 
REMARK    5  A    between atoms: C_22  and  C_23 
REMARK    6  A    between atoms: C_26  and  O_27 
ROOT
HETATM    1  C   UNL     1      22.726  42.863  50.309  1.00  0.00     0.051 C 
HETATM    2  C   UNL     1      23.051  44.211  49.760  1.00  0.00    -0.022 A 
HETATM    3  C   UNL     1      24.097  45.085  50.169  1.00  0.00     0.062 A 
HETATM    4  C   UNL     1      23.984  46.278  49.467  1.00  0.00     0.125 A 
HETATM    5  N   UNL     1      22.943  46.129  48.569  1.00  0.00    -0.332 N 
HETATM    6  C   UNL     1      22.360  44.873  48.753  1.00  0.00     0.017 A 
HETATM    7  C   UNL     1      21.156  44.423  47.984  1.00  0.00     0.069 C 
ENDROOT
BRANCH   3   8
HETATM    8  C   UNL     1      25.185  44.847  51.174  1.00  0.00     0.143 A 
HETATM    9  N   UNL     1      25.218  45.449  52.354  1.00  0.00    -0.228 NA
HETATM   10  C   UNL     1      26.422  45.082  52.915  1.00  0.00     0.086 A 
HETATM   11  C   UNL     1      27.107  44.202  52.087  1.00  0.00     0.062 A 
HETATM   12  C   UNL     1      27.008  45.474  54.127  1.00  0.00     0.034 A 
HETATM   13  N   UNL     1      26.287  44.051  51.001  1.00  0.00    -0.338 N 
HETATM   14  C   UNL     1      28.362  43.672  52.394  1.00  0.00     0.032 A 
HETATM   15  H   UNL     1      26.504  43.505  50.183  1.00  0.00     0.167 HD
HETATM   16  C   UNL     1      28.935  44.079  53.603  1.00  0.00     0.002 A 
HETATM   17  C   UNL     1      28.273  44.966  54.457  1.00  0.00     0.002 A 
ENDBRANCH   3   8
BRANCH   4  18
HETATM   18  N   UNL     1      24.793  47.359  49.811  1.00  0.00    -0.312 N 
HETATM   19  C   UNL     1      26.150  47.599  49.471  1.00  0.00     0.226 C 
HETATM   20  O   UNL     1      26.907  46.675  49.227  1.00  0.00    -0.273 OA
HETATM   21  H   UNL     1      24.350  47.996  50.480  1.00  0.00     0.170 HD
BRANCH  19  22
HETATM   22  C   UNL     1      26.580  49.054  49.447  1.00  0.00     0.070 C 
HETATM   23  C   UNL     1      28.093  49.117  49.269  1.00  0.00     0.019 C 
HETATM   24  C   UNL     1      25.853  49.871  48.387  1.00  0.00     0.019 C 
ENDBRANCH  19  22
ENDBRANCH   4  18
BRANCH   5  25
HETATM   25  C   UNL     1      22.426  47.103  47.610  1.00  0.00     0.169 C 
BRANCH  25  26
HETATM   26  C   UNL     1      21.743  48.313  48.203  1.00  0.00    -0.040 A 
HETATM   27  C   UNL     1      20.607  48.264  49.020  1.00  0.00     0.011 A 
HETATM   28  C   UNL     1      20.003  49.444  49.469  1.00  0.00     0.037 A 
HETATM   29  C   UNL     1      20.514  50.693  49.114  1.00  0.00     0.068 A 
HETATM   30  C   UNL     1      21.649  50.755  48.312  1.00  0.00     0.037 A 
HETATM   31  C   UNL     1      22.257  49.577  47.865  1.00  0.00     0.011 A 
BRANCH  29  32
HETATM   32  O   UNL     1      19.816  51.760  49.606  1.00  0.00    -0.356 OA
HETATM   33  C   UNL     1      18.423  51.573  49.828  1.00  0.00     0.210 C 
ENDBRANCH  29  32
ENDBRANCH  25  26
ENDBRANCH   5  25
TORSDOF 6
ENDMDL
MODEL 4
REMARK VINA RESULT:      -8.3      3.347      6.169
REMARK  6 active torsions:
REMARK  status: ('A' for Active; 'I' for Inactive)
REMARK    1  A    between atoms: C_3  and  C_4 
REMARK    2  A    between atoms: C_14  and  N_15 
REMARK       I    between atoms: N_15  and  C_16 
REMARK    3  A    between atoms: C_16  and  C_17 
REMARK    4  A    between atoms: N_21  and  C_22 
REMARK    5  A    between atoms: C_22  and  C_23 
REMARK    6  A    between atoms: C_26  and  O_27 
ROOT
HETATM    1  C   UNL     1      28.310  40.572  53.065  1.00  0.00     0.051 C 
HETATM    2  C   UNL     1      27.806  41.633  52.146  1.00  0.00    -0.022 A 
HETATM    3  C   UNL     1      27.798  43.039  52.366  1.00  0.00     0.062 A 
HETATM    4  C   UNL     1      27.152  43.655  51.302  1.00  0.00     0.125 A 
HETATM    5  N   UNL     1      26.836  42.668  50.386  1.00  0.00    -0.332 N 
HETATM    6  C   UNL     1      27.221  41.428  50.902  1.00  0.00     0.017 A 
HETATM    7  C   UNL     1      26.957  40.140  50.186  1.00  0.00     0.069 C 
ENDROOT
BRANCH   3   8
HETATM    8  C   UNL     1      28.368  43.816  53.515  1.00  0.00     0.143 A 
HETATM    9  N   UNL     1      29.586  43.606  53.991  1.00  0.00    -0.228 NA
HETATM   10  C   UNL     1      29.681  44.404  55.111  1.00  0.00     0.086 A 
HETATM   11  C   UNL     1      28.522  45.149  55.289  1.00  0.00     0.062 A 
HETATM   12  C   UNL     1      30.724  44.533  56.040  1.00  0.00     0.034 A 
HETATM   13  N   UNL     1      27.717  44.774  54.247  1.00  0.00    -0.338 N 
HETATM   14  C   UNL     1      28.331  46.036  56.350  1.00  0.00     0.032 A 
HETATM   15  H   UNL     1      26.775  45.099  54.098  1.00  0.00     0.167 HD
HETATM   16  C   UNL     1      29.378  46.148  57.269  1.00  0.00     0.002 A 
HETATM   17  C   UNL     1      30.555  45.410  57.121  1.00  0.00     0.002 A 
ENDBRANCH   3   8
BRANCH   4  18
HETATM   18  N   UNL     1      26.867  45.017  51.365  1.00  0.00    -0.312 N 
HETATM   19  C   UNL     1      26.866  45.976  50.318  1.00  0.00     0.226 C 
HETATM   20  O   UNL     1      27.562  45.822  49.328  1.00  0.00    -0.273 OA
HETATM   21  H   UNL     1      26.742  45.358  52.323  1.00  0.00     0.170 HD
BRANCH  19  22
HETATM   22  C   UNL     1      25.969  47.181  50.523  1.00  0.00     0.070 C 
HETATM   23  C   UNL     1      26.420  48.296  49.585  1.00  0.00     0.019 C 
HETATM   24  C   UNL     1      24.491  46.859  50.346  1.00  0.00     0.019 C 
ENDBRANCH  19  22
ENDBRANCH   4  18
BRANCH   5  25
HETATM   25  C   UNL     1      26.146  42.806  49.105  1.00  0.00     0.169 C 
BRANCH  25  26
HETATM   26  C   UNL     1      24.727  43.317  49.174  1.00  0.00    -0.040 A 
HETATM   27  C   UNL     1      23.852  43.095  50.245  1.00  0.00     0.011 A 
HETATM   28  C   UNL     1      22.531  43.552  50.190  1.00  0.00     0.037 A 
HETATM   29  C   UNL     1      22.053  44.236  49.072  1.00  0.00     0.068 A 
HETATM   30  C   UNL     1      22.914  44.473  48.006  1.00  0.00     0.037 A 
HETATM   31  C   UNL     1      24.237  44.021  48.059  1.00  0.00     0.011 A 
BRANCH  29  32
HETATM   32  O   UNL     1      20.739  44.608  49.144  1.00  0.00    -0.356 OA
HETATM   33  C   UNL     1      20.263  45.492  48.135  1.00  0.00     0.210 C 
ENDBRANCH  29  32
ENDBRANCH  25  26
ENDBRANCH   5  25
TORSDOF 6
ENDMDL
MODEL 5
REMARK VINA RESULT:      -8.3      2.278      7.355
REMARK  6 active torsions:
REMARK  status: ('A' for Active; 'I' for Inactive)
REMARK    1  A    between atoms: C_3  and  C_4 
REMARK    2  A    between atoms: C_14  and  N_15 
REMARK       I    between atoms: N_15  and  C_16 
REMARK    3  A    between atoms: C_16  and  C_17 
REMARK    4  A    between atoms: N_21  and  C_22 
REMARK    5  A    between atoms: C_22  and  C_23 
REMARK    6  A    between atoms: C_26  and  O_27 
ROOT
HETATM    1  C   UNL     1      23.414  50.534  48.584  1.00  0.00     0.051 C 
HETATM    2  C   UNL     1      23.836  49.131  48.863  1.00  0.00    -0.022 A 
HETATM    3  C   UNL     1      23.003  47.985  49.000  1.00  0.00     0.062 A 
HETATM    4  C   UNL     1      23.791  46.898  49.354  1.00  0.00     0.125 A 
HETATM    5  N   UNL     1      25.106  47.327  49.355  1.00  0.00    -0.332 N 
HETATM    6  C   UNL     1      25.139  48.694  49.070  1.00  0.00     0.017 A 
HETATM    7  C   UNL     1      26.410  49.486  49.063  1.00  0.00     0.069 C 
ENDROOT
BRANCH   3   8
HETATM    8  C   UNL     1      21.520  47.871  48.809  1.00  0.00     0.143 A 
HETATM    9  N   UNL     1      20.974  47.272  47.761  1.00  0.00    -0.228 NA
HETATM   10  C   UNL     1      19.619  47.497  47.879  1.00  0.00     0.086 A 
HETATM   11  C   UNL     1      19.333  48.198  49.044  1.00  0.00     0.062 A 
HETATM   12  C   UNL     1      18.569  47.145  47.019  1.00  0.00     0.034 A 
HETATM   13  N   UNL     1      20.555  48.399  49.626  1.00  0.00    -0.338 N 
HETATM   14  C   UNL     1      18.042  48.577  49.419  1.00  0.00     0.032 A 
HETATM   15  H   UNL     1      20.714  48.918  50.475  1.00  0.00     0.167 HD
HETATM   16  C   UNL     1      17.008  48.224  48.546  1.00  0.00     0.002 A 
HETATM   17  C   UNL     1      17.264  47.522  47.365  1.00  0.00     0.002 A 
ENDBRANCH   3   8
BRANCH   4  18
HETATM   18  N   UNL     1      23.186  45.696  49.711  1.00  0.00    -0.312 N 
HETATM   19  C   UNL     1      23.112  44.483  48.976  1.00  0.00     0.226 C 
HETATM   20  O   UNL     1      23.167  44.485  47.757  1.00  0.00    -0.273 OA
HETATM   21  H   UNL     1      22.646  45.759  50.579  1.00  0.00     0.170 HD
BRANCH  19  22
HETATM   22  C   UNL     1      22.953  43.218  49.797  1.00  0.00     0.070 C 
HETATM   23  C   UNL     1      22.915  42.020  48.855  1.00  0.00     0.019 C 
HETATM   24  C   UNL     1      24.028  43.062  50.864  1.00  0.00     0.019 C 
ENDBRANCH  19  22
ENDBRANCH   4  18
BRANCH   5  25
HETATM   25  C   UNL     1      26.311  46.560  49.669  1.00  0.00     0.169 C 
BRANCH  25  26
HETATM   26  C   UNL     1      26.466  46.140  51.111  1.00  0.00    -0.040 A 
HETATM   27  C   UNL     1      26.091  46.920  52.212  1.00  0.00     0.011 A 
HETATM   28  C   UNL     1      26.335  46.474  53.516  1.00  0.00     0.037 A 
HETATM   29  C   UNL     1      26.960  45.249  53.751  1.00  0.00     0.068 A 
HETATM   30  C   UNL     1      27.327  44.459  52.666  1.00  0.00     0.037 A 
HETATM   31  C   UNL     1      27.080  44.900  51.362  1.00  0.00     0.011 A 
BRANCH  29  32
HETATM   32  O   UNL     1      27.154  44.947  55.070  1.00  0.00    -0.356 OA
HETATM   33  C   UNL     1      28.204  45.635  55.741  1.00  0.00     0.210 C 
ENDBRANCH  29  32
ENDBRANCH  25  26
ENDBRANCH   5  25
TORSDOF 6
ENDMDL
MODEL 6
REMARK VINA RESULT:      -8.2      4.154      6.993
REMARK  6 active torsions:
REMARK  status: ('A' for Active; 'I' for Inactive)
REMARK    1  A    between atoms: C_3  and  C_4 
REMARK    2  A    between atoms: C_14  and  N_15 
REMARK       I    between atoms: N_15  and  C_16 
REMARK    3  A    between atoms: C_16  and  C_17 
REMARK    4  A    between atoms: N_21  and  C_22 
REMARK    5  A    between atoms: C_22  and  C_23 
REMARK    6  A    between atoms: C_26  and  O_27 
ROOT
HETATM    1  C   UNL     1      28.488  40.894  53.174  1.00  0.00     0.051 C 
HETATM    2  C   UNL     1      27.913  42.219  52.804  1.00  0.00    -0.022 A 
HETATM    3  C   UNL     1      28.155  43.475  53.429  1.00  0.00     0.062 A 
HETATM    4  C   UNL     1      27.346  44.434  52.833  1.00  0.00     0.125 A 
HETATM    5  N   UNL     1      26.672  43.817  51.796  1.00  0.00    -0.332 N 
HETATM    6  C   UNL     1      27.003  42.460  51.782  1.00  0.00     0.017 A 
HETATM    7  C   UNL     1      26.388  41.490  50.820  1.00  0.00     0.069 C 
ENDROOT
BRANCH   3   8
HETATM    8  C   UNL     1      29.104  43.806  54.541  1.00  0.00     0.143 A 
HETATM    9  N   UNL     1      30.179  43.080  54.810  1.00  0.00    -0.228 NA
HETATM   10  C   UNL     1      30.701  43.616  55.967  1.00  0.00     0.086 A 
HETATM   11  C   UNL     1      29.963  44.719  56.379  1.00  0.00     0.062 A 
HETATM   12  C   UNL     1      31.799  43.205  56.736  1.00  0.00     0.034 A 
HETATM   13  N   UNL     1      28.971  44.831  55.441  1.00  0.00    -0.338 N 
HETATM   14  C   UNL     1      30.254  45.457  57.528  1.00  0.00     0.032 A 
HETATM   15  H   UNL     1      28.228  45.511  55.463  1.00  0.00     0.167 HD
HETATM   16  C   UNL     1      31.347  45.028  58.286  1.00  0.00     0.002 A 
HETATM   17  C   UNL     1      32.108  43.921  57.901  1.00  0.00     0.002 A 
ENDBRANCH   3   8
BRANCH   4  18
HETATM   18  N   UNL     1      27.276  45.712  53.383  1.00  0.00    -0.312 N 
HETATM   19  C   UNL     1      26.331  46.234  54.304  1.00  0.00     0.226 C 
HETATM   20  O   UNL     1      25.203  45.775  54.372  1.00  0.00    -0.273 OA
HETATM   21  H   UNL     1      27.950  46.365  52.971  1.00  0.00     0.170 HD
BRANCH  19  22
HETATM   22  C   UNL     1      26.812  47.385  55.168  1.00  0.00     0.070 C 
HETATM   23  C   UNL     1      28.184  47.830  54.674  1.00  0.00     0.019 C 
HETATM   24  C   UNL     1      25.826  48.545  55.215  1.00  0.00     0.019 C 
ENDBRANCH  19  22
ENDBRANCH   4  18
BRANCH   5  25
HETATM   25  C   UNL     1      25.699  44.397  50.873  1.00  0.00     0.169 C 
BRANCH  25  26
HETATM   26  C   UNL     1      26.023  45.780  50.358  1.00  0.00    -0.040 A 
HETATM   27  C   UNL     1      25.150  46.873  50.410  1.00  0.00     0.011 A 
HETATM   28  C   UNL     1      25.514  48.101  49.847  1.00  0.00     0.037 A 
HETATM   29  C   UNL     1      26.750  48.266  49.219  1.00  0.00     0.068 A 
HETATM   30  C   UNL     1      27.631  47.190  49.170  1.00  0.00     0.037 A 
HETATM   31  C   UNL     1      27.271  45.963  49.736  1.00  0.00     0.011 A 
BRANCH  29  32
HETATM   32  O   UNL     1      26.967  49.510  48.695  1.00  0.00    -0.356 OA
HETATM   33  C   UNL     1      25.916  50.077  47.922  1.00  0.00     0.210 C 
ENDBRANCH  29  32
ENDBRANCH  25  26
ENDBRANCH   5  25
TORSDOF 6
ENDMDL
MODEL 7
REMARK VINA RESULT:      -8.2      3.304      5.917
REMARK  6 active torsions:
REMARK  status: ('A' for Active; 'I' for Inactive)
REMARK    1  A    between atoms: C_3  and  C_4 
REMARK    2  A    between atoms: C_14  and  N_15 
REMARK       I    between atoms: N_15  and  C_16 
REMARK    3  A    between atoms: C_16  and  C_17 
REMARK    4  A    between atoms: N_21  and  C_22 
REMARK    5  A    between atoms: C_22  and  C_23 
REMARK    6  A    between atoms: C_26  and  O_27 
ROOT
HETATM    1  C   UNL     1      29.723  42.907  53.104  1.00  0.00     0.051 C 
HETATM    2  C   UNL     1      28.410  43.361  52.563  1.00  0.00    -0.022 A 
HETATM    3  C   UNL     1      27.696  42.826  51.454  1.00  0.00     0.062 A 
HETATM    4  C   UNL     1      26.567  43.603  51.230  1.00  0.00     0.125 A 
HETATM    5  N   UNL     1      26.521  44.558  52.230  1.00  0.00    -0.332 N 
HETATM    6  C   UNL     1      27.651  44.423  53.040  1.00  0.00     0.017 A 
HETATM    7  C   UNL     1      27.942  45.352  54.178  1.00  0.00     0.069 C 
ENDROOT
BRANCH   3   8
HETATM    8  C   UNL     1      28.024  41.629  50.612  1.00  0.00     0.143 A 
HETATM    9  N   UNL     1      27.952  41.638  49.289  1.00  0.00    -0.228 NA
HETATM   10  C   UNL     1      28.188  40.336  48.903  1.00  0.00     0.086 A 
HETATM   11  C   UNL     1      28.459  39.534  50.004  1.00  0.00     0.062 A 
HETATM   12  C   UNL     1      28.171  39.758  47.626  1.00  0.00     0.034 A 
HETATM   13  N   UNL     1      28.373  40.386  51.073  1.00  0.00    -0.338 N 
HETATM   14  C   UNL     1      28.724  38.166  49.916  1.00  0.00     0.032 A 
HETATM   15  H   UNL     1      28.475  40.116  52.038  1.00  0.00     0.167 HD
HETATM   16  C   UNL     1      28.697  37.605  48.635  1.00  0.00     0.002 A 
HETATM   17  C   UNL     1      28.424  38.384  47.508  1.00  0.00     0.002 A 
ENDBRANCH   3   8
BRANCH   4  18
HETATM   18  N   UNL     1      25.794  43.383  50.092  1.00  0.00    -0.312 N 
HETATM   19  C   UNL     1      24.384  43.254  49.986  1.00  0.00     0.226 C 
HETATM   20  O   UNL     1      23.719  42.859  50.928  1.00  0.00    -0.273 OA
HETATM   21  H   UNL     1      26.354  43.195  49.255  1.00  0.00     0.170 HD
BRANCH  19  22
HETATM   22  C   UNL     1      23.785  43.622  48.642  1.00  0.00     0.070 C 
HETATM   23  C   UNL     1      23.877  42.415  47.715  1.00  0.00     0.019 C 
HETATM   24  C   UNL     1      22.357  44.142  48.750  1.00  0.00     0.019 C 
ENDBRANCH  19  22
ENDBRANCH   4  18
BRANCH   5  25
HETATM   25  C   UNL     1      25.531  45.614  52.431  1.00  0.00     0.169 C 
BRANCH  25  26
HETATM   26  C   UNL     1      25.454  46.659  51.343  1.00  0.00    -0.040 A 
HETATM   27  C   UNL     1      24.310  46.934  50.584  1.00  0.00     0.011 A 
HETATM   28  C   UNL     1      24.352  47.877  49.550  1.00  0.00     0.037 A 
HETATM   29  C   UNL     1      25.531  48.560  49.248  1.00  0.00     0.068 A 
HETATM   30  C   UNL     1      26.672  48.304  50.002  1.00  0.00     0.037 A 
HETATM   31  C   UNL     1      26.631  47.366  51.039  1.00  0.00     0.011 A 
BRANCH  29  32
HETATM   32  O   UNL     1      25.436  49.436  48.203  1.00  0.00    -0.356 OA
HETATM   33  C   UNL     1      24.191  50.104  48.032  1.00  0.00     0.210 C 
ENDBRANCH  29  32
ENDBRANCH  25  26
ENDBRANCH   5  25
TORSDOF 6
ENDMDL
MODEL 8
REMARK VINA RESULT:      -8.1      3.164      6.211
REMARK  6 active torsions:
REMARK  status: ('A' for Active; 'I' for Inactive)
REMARK    1  A    between atoms: C_3  and  C_4 
REMARK    2  A    between atoms: C_14  and  N_15 
REMARK       I    between atoms: N_15  and  C_16 
REMARK    3  A    between atoms: C_16  and  C_17 
REMARK    4  A    between atoms: N_21  and  C_22 
REMARK    5  A    between atoms: C_22  and  C_23 
REMARK    6  A    between atoms: C_26  and  O_27 
ROOT
HETATM    1  C   UNL     1      21.935  44.691  47.968  1.00  0.00     0.051 C 
HETATM    2  C   UNL     1      21.026  45.868  48.079  1.00  0.00    -0.022 A 
HETATM    3  C   UNL     1      21.374  47.203  48.431  1.00  0.00     0.062 A 
HETATM    4  C   UNL     1      20.214  47.961  48.512  1.00  0.00     0.125 A 
HETATM    5  N   UNL     1      19.162  47.146  48.134  1.00  0.00    -0.332 N 
HETATM    6  C   UNL     1      19.651  45.862  47.882  1.00  0.00     0.017 A 
HETATM    7  C   UNL     1      18.757  44.717  47.517  1.00  0.00     0.069 C 
ENDROOT
BRANCH   3   8
HETATM    8  C   UNL     1      22.732  47.786  48.684  1.00  0.00     0.143 A 
HETATM    9  N   UNL     1      23.200  48.833  48.022  1.00  0.00    -0.228 NA
HETATM   10  C   UNL     1      24.507  48.971  48.436  1.00  0.00     0.086 A 
HETATM   11  C   UNL     1      24.822  48.026  49.405  1.00  0.00     0.062 A 
HETATM   12  C   UNL     1      25.495  49.874  48.017  1.00  0.00     0.034 A 
HETATM   13  N   UNL     1      23.669  47.304  49.560  1.00  0.00    -0.338 N 
HETATM   14  C   UNL     1      26.082  47.921  49.999  1.00  0.00     0.032 A 
HETATM   15  H   UNL     1      23.564  46.506  50.165  1.00  0.00     0.167 HD
HETATM   16  C   UNL     1      27.056  48.825  49.564  1.00  0.00     0.002 A 
HETATM   17  C   UNL     1      26.772  49.785  48.589  1.00  0.00     0.002 A 
ENDBRANCH   3   8
BRANCH   4  18
HETATM   18  N   UNL     1      20.275  49.262  49.005  1.00  0.00    -0.312 N 
HETATM   19  C   UNL     1      20.184  50.489  48.296  1.00  0.00     0.226 C 
HETATM   20  O   UNL     1      20.505  50.558  47.121  1.00  0.00    -0.273 OA
HETATM   21  H   UNL     1      20.518  49.305  50.000  1.00  0.00     0.170 HD
BRANCH  19  22
HETATM   22  C   UNL     1      19.684  51.679  49.091  1.00  0.00     0.070 C 
HETATM   23  C   UNL     1      19.051  52.681  48.131  1.00  0.00     0.019 C 
HETATM   24  C   UNL     1      18.726  51.288  50.209  1.00  0.00     0.019 C 
ENDBRANCH  19  22
ENDBRANCH   4  18
BRANCH   5  25
HETATM   25  C   UNL     1      17.740  47.474  48.060  1.00  0.00     0.169 C 
BRANCH  25  26
HETATM   26  C   UNL     1      17.376  48.622  47.148  1.00  0.00    -0.040 A 
HETATM   27  C   UNL     1      17.861  48.786  45.844  1.00  0.00     0.011 A 
HETATM   28  C   UNL     1      17.519  49.918  45.096  1.00  0.00     0.037 A 
HETATM   29  C   UNL     1      16.693  50.908  45.628  1.00  0.00     0.068 A 
HETATM   30  C   UNL     1      16.195  50.752  46.918  1.00  0.00     0.037 A 
HETATM   31  C   UNL     1      16.532  49.619  47.666  1.00  0.00     0.011 A 
BRANCH  29  32
HETATM   32  O   UNL     1      16.456  51.968  44.797  1.00  0.00    -0.356 OA
HETATM   33  C   UNL     1      15.656  53.026  45.313  1.00  0.00     0.210 C 
ENDBRANCH  29  32
ENDBRANCH  25  26
ENDBRANCH   5  25
TORSDOF 6
ENDMDL
MODEL 9
REMARK VINA RESULT:      -7.9      2.834      8.372
REMARK  6 active torsions:
REMARK  status: ('A' for Active; 'I' for Inactive)
REMARK    1  A    between atoms: C_3  and  C_4 
REMARK    2  A    between atoms: C_14  and  N_15 
REMARK       I    between atoms: N_15  and  C_16 
REMARK    3  A    between atoms: C_16  and  C_17 
REMARK    4  A    between atoms: N_21  and  C_22 
REMARK    5  A    between atoms: C_22  and  C_23 
REMARK    6  A    between atoms: C_26  and  O_27 
ROOT
HETATM    1  C   UNL     1      26.025  47.149  52.913  1.00  0.00     0.051 C 
HETATM    2  C   UNL     1      25.594  45.985  52.086  1.00  0.00    -0.022 A 
HETATM    3  C   UNL     1      24.852  46.010  50.871  1.00  0.00     0.062 A 
HETATM    4  C   UNL     1      24.583  44.704  50.484  1.00  0.00     0.125 A 
HETATM    5  N   UNL     1      25.215  43.868  51.387  1.00  0.00    -0.332 N 
HETATM    6  C   UNL     1      25.824  44.645  52.376  1.00  0.00     0.017 A 
HETATM    7  C   UNL     1      26.538  44.044  53.547  1.00  0.00     0.069 C 
ENDROOT
BRANCH   3   8
HETATM    8  C   UNL     1      24.398  47.193  50.070  1.00  0.00     0.143 A 
HETATM    9  N   UNL     1      25.236  47.978  49.409  1.00  0.00    -0.228 NA
HETATM   10  C   UNL     1      24.462  49.011  48.926  1.00  0.00     0.086 A 
HETATM   11  C   UNL     1      23.125  48.824  49.255  1.00  0.00     0.062 A 
HETATM   12  C   UNL     1      24.834  50.158  48.211  1.00  0.00     0.034 A 
HETATM   13  N   UNL     1      23.111  47.649  49.958  1.00  0.00    -0.338 N 
HETATM   14  C   UNL     1      22.112  49.720  48.906  1.00  0.00     0.032 A 
HETATM   15  H   UNL     1      22.295  47.239  50.384  1.00  0.00     0.167 HD
HETATM   16  C   UNL     1      22.502  50.861  48.198  1.00  0.00     0.002 A 
HETATM   17  C   UNL     1      23.839  51.080  47.856  1.00  0.00     0.002 A 
ENDBRANCH   3   8
BRANCH   4  18
HETATM   18  N   UNL     1      23.723  44.467  49.414  1.00  0.00    -0.312 N 
HETATM   19  C   UNL     1      22.352  44.097  49.439  1.00  0.00     0.226 C 
HETATM   20  O   UNL     1      21.884  43.492  50.389  1.00  0.00    -0.273 OA
HETATM   21  H   UNL     1      24.198  44.471  48.507  1.00  0.00     0.170 HD
BRANCH  19  22
HETATM   22  C   UNL     1      21.538  44.488  48.220  1.00  0.00     0.070 C 
HETATM   23  C   UNL     1      20.349  45.329  48.672  1.00  0.00     0.019 C 
HETATM   24  C   UNL     1      22.363  45.202  47.158  1.00  0.00     0.019 C 
ENDBRANCH  19  22
ENDBRANCH   4  18
BRANCH   5  25
HETATM   25  C   UNL     1      25.228  42.407  51.416  1.00  0.00     0.169 C 
BRANCH  25  26
HETATM   26  C   UNL     1      26.335  41.743  50.632  1.00  0.00    -0.040 A 
HETATM   27  C   UNL     1      26.472  41.806  49.240  1.00  0.00     0.011 A 
HETATM   28  C   UNL     1      27.494  41.102  48.593  1.00  0.00     0.037 A 
HETATM   29  C   UNL     1      28.396  40.320  49.316  1.00  0.00     0.068 A 
HETATM   30  C   UNL     1      28.278  40.258  50.701  1.00  0.00     0.037 A 
HETATM   31  C   UNL     1      27.260  40.964  51.350  1.00  0.00     0.011 A 
BRANCH  29  32
HETATM   32  O   UNL     1      29.330  39.671  48.557  1.00  0.00    -0.356 OA
HETATM   33  C   UNL     1      29.692  38.357  48.965  1.00  0.00     0.210 C 
ENDBRANCH  29  32
ENDBRANCH  25  26
ENDBRANCH   5  25
TORSDOF 6
ENDMDL
MODEL 10
REMARK VINA RESULT:      -7.7      3.247      5.789
REMARK  6 active torsions:
REMARK  status: ('A' for Active; 'I' for Inactive)
REMARK    1  A    between atoms: C_3  and  C_4 
REMARK    2  A    between atoms: C_14  and  N_15 
REMARK       I    between atoms: N_15  and  C_16 
REMARK    3  A    between atoms: C_16  and  C_17 
REMARK    4  A    between atoms: N_21  and  C_22 
REMARK    5  A    between atoms: C_22  and  C_23 
REMARK    6  A    between atoms: C_26  and  O_27 
ROOT
HETATM    1  C   UNL     1      20.778  51.541  48.782  1.00  0.00     0.051 C 
HETATM    2  C   UNL     1      20.370  50.109  48.857  1.00  0.00    -0.022 A 
HETATM    3  C   UNL     1      21.215  48.963  48.834  1.00  0.00     0.062 A 
HETATM    4  C   UNL     1      20.423  47.823  48.828  1.00  0.00     0.125 A 
HETATM    5  N   UNL     1      19.107  48.235  48.934  1.00  0.00    -0.332 N 
HETATM    6  C   UNL     1      19.068  49.631  48.938  1.00  0.00     0.017 A 
HETATM    7  C   UNL     1      17.783  50.401  48.972  1.00  0.00     0.069 C 
ENDROOT
BRANCH   3   8
HETATM    8  C   UNL     1      22.713  48.898  48.823  1.00  0.00     0.143 A 
HETATM    9  N   UNL     1      23.403  48.064  49.587  1.00  0.00    -0.228 NA
HETATM   10  C   UNL     1      24.725  48.403  49.395  1.00  0.00     0.086 A 
HETATM   11  C   UNL     1      24.844  49.423  48.459  1.00  0.00     0.062 A 
HETATM   12  C   UNL     1      25.883  47.892  49.998  1.00  0.00     0.034 A 
HETATM   13  N   UNL     1      23.553  49.700  48.095  1.00  0.00    -0.338 N 
HETATM   14  C   UNL     1      26.066  49.978  48.074  1.00  0.00     0.032 A 
HETATM   15  H   UNL     1      23.276  50.427  47.455  1.00  0.00     0.167 HD
HETATM   16  C   UNL     1      27.210  49.461  48.690  1.00  0.00     0.002 A 
HETATM   17  C   UNL     1      27.124  48.437  49.637  1.00  0.00     0.002 A 
ENDBRANCH   3   8
BRANCH   4  18
HETATM   18  N   UNL     1      21.014  46.576  48.636  1.00  0.00    -0.312 N 
HETATM   19  C   UNL     1      21.502  45.997  47.435  1.00  0.00     0.226 C 
HETATM   20  O   UNL     1      21.047  46.326  46.352  1.00  0.00    -0.273 OA
HETATM   21  H   UNL     1      20.987  45.984  49.472  1.00  0.00     0.170 HD
BRANCH  19  22
HETATM   22  C   UNL     1      22.594  44.957  47.596  1.00  0.00     0.070 C 
HETATM   23  C   UNL     1      22.697  44.576  49.069  1.00  0.00     0.019 C 
HETATM   24  C   UNL     1      22.387  43.735  46.711  1.00  0.00     0.019 C 
ENDBRANCH  19  22
ENDBRANCH   4  18
BRANCH   5  25
HETATM   25  C   UNL     1      17.898  47.415  48.963  1.00  0.00     0.169 C 
BRANCH  25  26
HETATM   26  C   UNL     1      17.565  46.687  47.682  1.00  0.00    -0.040 A 
HETATM   27  C   UNL     1      17.876  45.346  47.425  1.00  0.00     0.011 A 
HETATM   28  C   UNL     1      17.586  44.776  46.180  1.00  0.00     0.037 A 
HETATM   29  C   UNL     1      16.986  45.525  45.168  1.00  0.00     0.068 A 
HETATM   30  C   UNL     1      16.661  46.856  45.415  1.00  0.00     0.037 A 
HETATM   31  C   UNL     1      16.946  47.427  46.659  1.00  0.00     0.011 A 
BRANCH  29  32
HETATM   32  O   UNL     1      16.778  44.849  43.998  1.00  0.00    -0.356 OA
HETATM   33  C   UNL     1      16.848  43.429  44.053  1.00  0.00     0.210 C 
ENDBRANCH  29  32
ENDBRANCH  25  26
ENDBRANCH   5  25
TORSDOF 6
ENDMDL
