MODEL 1
REMARK VINA RESULT:      -9.1      0.000      0.000
REMARK  3 active torsions:
REMARK  status: ('A' for Active; 'I' for Inactive)
REMARK    1  A    between atoms: C_3  and  N_4 
REMARK       I    between atoms: N_4  and  C_5 
REMARK    2  A    between atoms: C_5  and  C_6 
REMARK    3  A    between atoms: C_8  and  N_9 
REMARK       I    between atoms: N_9  and  C_10 
ROOT
HETATM    1  N   UNL     1      28.103  44.818  53.279  1.00  0.00    -0.321 N 
HETATM    2  C   UNL     1      26.755  44.502  53.285  1.00  0.00     0.256 C 
HETATM    3  O   UNL     1      26.151  43.851  54.129  1.00  0.00    -0.267 OA
HETATM    4  H   UNL     1      28.395  45.503  52.596  1.00  0.00     0.169 HD
ENDROOT
BRANCH   2   5
HETATM    5  C   UNL     1      25.963  45.066  52.154  1.00  0.00     0.034 A 
HETATM    6  C   UNL     1      26.275  46.310  51.586  1.00  0.00     0.046 A 
HETATM    7  C   UNL     1      25.514  46.822  50.533  1.00  0.00     0.035 A 
HETATM    8  C   UNL     1      24.405  46.096  50.081  1.00  0.00     0.029 A 
HETATM    9  C   UNL     1      24.072  44.869  50.661  1.00  0.00     0.003 A 
HETATM   10  C   UNL     1      24.849  44.353  51.696  1.00  0.00     0.017 A 
BRANCH   7  11
HETATM   11  N   UNL     1      25.787  48.054  49.903  1.00  0.00    -0.327 N 
HETATM   12  C   UNL     1      26.895  48.368  49.135  1.00  0.00     0.218 C 
HETATM   13  C   UNL     1      26.891  49.797  48.651  1.00  0.00     0.117 C 
HETATM   14  O   UNL     1      27.801  47.604  48.816  1.00  0.00    -0.274 OA
HETATM   15  H   UNL     1      25.067  48.762  49.981  1.00  0.00     0.169 HD
ENDBRANCH   7  11
ENDBRANCH   2   5
BRANCH   1  16
HETATM   16  C   UNL     1      29.040  44.561  54.315  1.00  0.00     0.065 A 
HETATM   17  C   UNL     1      29.897  43.451  54.364  1.00  0.00    -0.031 A 
HETATM   18  C   UNL     1      30.077  42.452  53.255  1.00  0.00     0.050 C 
HETATM   19  C   UNL     1      30.699  43.272  55.505  1.00  0.00     0.035 A 
HETATM   20  C   UNL     1      30.691  44.220  56.518  1.00  0.00     0.031 A 
HETATM   21  N   UNL     1      29.946  45.340  56.447  1.00  0.00    -0.256 NA
HETATM   22  C   UNL     1      31.530  44.027  57.744  1.00  0.00     0.070 C 
HETATM   23  C   UNL     1      29.141  45.503  55.364  1.00  0.00     0.058 A 
HETATM   24  C   UNL     1      28.313  46.760  55.392  1.00  0.00     0.073 C 
ENDBRANCH   1  16
TORSDOF 3
ENDMDL
MODEL 2
REMARK VINA RESULT:      -9.1      0.690      1.872
REMARK  3 active torsions:
REMARK  status: ('A' for Active; 'I' for Inactive)
REMARK    1  A    between atoms: C_3  and  N_4 
REMARK       I    between atoms: N_4  and  C_5 
REMARK    2  A    between atoms: C_5  and  C_6 
REMARK    3  A    between atoms: C_8  and  N_9 
REMARK       I    between atoms: N_9  and  C_10 
ROOT
HETATM    1  N   UNL     1      28.015  44.797  53.297  1.00  0.00    -0.321 N 
HETATM    2  C   UNL     1      26.638  44.657  53.337  1.00  0.00     0.256 C 
HETATM    3  O   UNL     1      25.969  44.181  54.245  1.00  0.00    -0.267 OA
HETATM    4  H   UNL     1      28.383  45.363  52.544  1.00  0.00     0.169 HD
ENDROOT
BRANCH   2   5
HETATM    5  C   UNL     1      25.910  45.194  52.151  1.00  0.00     0.034 A 
HETATM    6  C   UNL     1      26.234  46.436  51.588  1.00  0.00     0.046 A 
HETATM    7  C   UNL     1      25.532  46.922  50.484  1.00  0.00     0.035 A 
HETATM    8  C   UNL     1      24.467  46.170  49.971  1.00  0.00     0.029 A 
HETATM    9  C   UNL     1      24.120  44.944  50.544  1.00  0.00     0.003 A 
HETATM   10  C   UNL     1      24.840  44.455  51.633  1.00  0.00     0.017 A 
BRANCH   7  11
HETATM   11  N   UNL     1      25.822  48.152  49.857  1.00  0.00    -0.327 N 
HETATM   12  C   UNL     1      26.937  48.454  49.094  1.00  0.00     0.218 C 
HETATM   13  C   UNL     1      26.952  49.884  48.612  1.00  0.00     0.117 C 
HETATM   14  O   UNL     1      27.835  47.680  48.778  1.00  0.00    -0.274 OA
HETATM   15  H   UNL     1      25.110  48.868  49.932  1.00  0.00     0.169 HD
ENDBRANCH   7  11
ENDBRANCH   2   5
BRANCH   1  16
HETATM   16  C   UNL     1      28.926  44.535  54.355  1.00  0.00     0.065 A 
HETATM   17  C   UNL     1      29.142  45.380  55.455  1.00  0.00    -0.031 A 
HETATM   18  C   UNL     1      28.333  46.607  55.771  1.00  0.00     0.050 C 
HETATM   19  C   UNL     1      30.152  45.042  56.373  1.00  0.00     0.035 A 
HETATM   20  C   UNL     1      30.858  43.856  56.226  1.00  0.00     0.031 A 
HETATM   21  N   UNL     1      30.600  42.985  55.232  1.00  0.00    -0.256 NA
HETATM   22  C   UNL     1      31.947  43.498  57.192  1.00  0.00     0.070 C 
HETATM   23  C   UNL     1      29.650  43.322  54.320  1.00  0.00     0.058 A 
HETATM   24  C   UNL     1      29.462  42.311  53.221  1.00  0.00     0.073 C 
ENDBRANCH   1  16
TORSDOF 3
ENDMDL
MODEL 3
REMARK VINA RESULT:      -8.3      2.094      3.073
REMARK  3 active torsions:
REMARK  status: ('A' for Active; 'I' for Inactive)
REMARK    1  A    between atoms: C_3  and  N_4 
REMARK       I    between atoms: N_4  and  C_5 
REMARK    2  A    between atoms: C_5  and  C_6 
REMARK    3  A    between atoms: C_8  and  N_9 
REMARK       I    between atoms: N_9  and  C_10 
ROOT
HETATM    1  N   UNL     1      28.087  44.830  53.360  1.00  0.00    -0.321 N 
HETATM    2  C   UNL     1      26.753  44.461  53.371  1.00  0.00     0.256 C 
HETATM    3  O   UNL     1      26.190  43.745  54.190  1.00  0.00    -0.267 OA
HETATM    4  H   UNL     1      28.341  45.559  52.707  1.00  0.00     0.169 HD
ENDROOT
BRANCH   2   5
HETATM    5  C   UNL     1      25.920  45.049  52.282  1.00  0.00     0.034 A 
HETATM    6  C   UNL     1      25.390  44.258  51.252  1.00  0.00     0.046 A 
HETATM    7  C   UNL     1      24.622  44.833  50.238  1.00  0.00     0.035 A 
HETATM    8  C   UNL     1      24.425  46.220  50.238  1.00  0.00     0.029 A 
HETATM    9  C   UNL     1      24.974  47.017  51.245  1.00  0.00     0.003 A 
HETATM   10  C   UNL     1      25.721  46.434  52.266  1.00  0.00     0.017 A 
BRANCH   7  11
HETATM   11  N   UNL     1      24.041  44.091  49.188  1.00  0.00    -0.327 N 
HETATM   12  C   UNL     1      23.032  43.149  49.293  1.00  0.00     0.218 C 
HETATM   13  C   UNL     1      22.681  42.512  47.972  1.00  0.00     0.117 C 
HETATM   14  O   UNL     1      22.424  42.844  50.314  1.00  0.00    -0.274 OA
HETATM   15  H   UNL     1      24.363  44.316  48.255  1.00  0.00     0.169 HD
ENDBRANCH   7  11
ENDBRANCH   2   5
BRANCH   1  16
HETATM   16  C   UNL     1      29.051  44.559  54.367  1.00  0.00     0.065 A 
HETATM   17  C   UNL     1      29.908  43.447  54.379  1.00  0.00    -0.031 A 
HETATM   18  C   UNL     1      30.057  42.462  53.254  1.00  0.00     0.050 C 
HETATM   19  C   UNL     1      30.740  43.253  55.496  1.00  0.00     0.035 A 
HETATM   20  C   UNL     1      30.760  44.189  56.521  1.00  0.00     0.031 A 
HETATM   21  N   UNL     1      30.016  45.310  56.483  1.00  0.00    -0.256 NA
HETATM   22  C   UNL     1      31.632  43.979  57.721  1.00  0.00     0.070 C 
HETATM   23  C   UNL     1      29.182  45.488  55.424  1.00  0.00     0.058 A 
HETATM   24  C   UNL     1      28.357  46.745  55.490  1.00  0.00     0.073 C 
ENDBRANCH   1  16
TORSDOF 3
ENDMDL
MODEL 4
REMARK VINA RESULT:      -8.2      2.190      3.592
REMARK  3 active torsions:
REMARK  status: ('A' for Active; 'I' for Inactive)
REMARK    1  A    between atoms: C_3  and  N_4 
REMARK       I    between atoms: N_4  and  C_5 
REMARK    2  A    between atoms: C_5  and  C_6 
REMARK    3  A    between atoms: C_8  and  N_9 
REMARK       I    between atoms: N_9  and  C_10 
ROOT
HETATM    1  N   UNL     1      27.993  44.797  53.443  1.00  0.00    -0.321 N 
HETATM    2  C   UNL     1      26.620  44.632  53.512  1.00  0.00     0.256 C 
HETATM    3  O   UNL     1      25.980  44.131  54.428  1.00  0.00    -0.267 OA
HETATM    4  H   UNL     1      28.333  45.380  52.690  1.00  0.00     0.169 HD
ENDROOT
BRANCH   2   5
HETATM    5  C   UNL     1      25.854  45.171  52.350  1.00  0.00     0.034 A 
HETATM    6  C   UNL     1      25.358  44.333  51.342  1.00  0.00     0.046 A 
HETATM    7  C   UNL     1      24.653  44.862  50.260  1.00  0.00     0.035 A 
HETATM    8  C   UNL     1      24.485  46.250  50.172  1.00  0.00     0.029 A 
HETATM    9  C   UNL     1      25.001  47.093  51.158  1.00  0.00     0.003 A 
HETATM   10  C   UNL     1      25.685  46.557  52.247  1.00  0.00     0.017 A 
BRANCH   7  11
HETATM   11  N   UNL     1      24.108  44.072  49.226  1.00  0.00    -0.327 N 
HETATM   12  C   UNL     1      23.053  43.182  49.326  1.00  0.00     0.218 C 
HETATM   13  C   UNL     1      22.760  42.467  48.030  1.00  0.00     0.117 C 
HETATM   14  O   UNL     1      22.366  42.975  50.321  1.00  0.00    -0.274 OA
HETATM   15  H   UNL     1      24.501  44.217  48.303  1.00  0.00     0.169 HD
ENDBRANCH   7  11
ENDBRANCH   2   5
BRANCH   1  16
HETATM   16  C   UNL     1      28.932  44.537  54.476  1.00  0.00     0.065 A 
HETATM   17  C   UNL     1      29.153  45.366  55.587  1.00  0.00    -0.031 A 
HETATM   18  C   UNL     1      28.322  46.567  55.944  1.00  0.00     0.050 C 
HETATM   19  C   UNL     1      30.190  45.035  56.476  1.00  0.00     0.035 A 
HETATM   20  C   UNL     1      30.920  43.869  56.292  1.00  0.00     0.031 A 
HETATM   21  N   UNL     1      30.661  43.011  55.286  1.00  0.00    -0.256 NA
HETATM   22  C   UNL     1      32.038  43.519  57.227  1.00  0.00     0.070 C 
HETATM   23  C   UNL     1      29.684  43.342  54.401  1.00  0.00     0.058 A 
HETATM   24  C   UNL     1      29.496  42.348  53.287  1.00  0.00     0.073 C 
ENDBRANCH   1  16
TORSDOF 3
ENDMDL
MODEL 5
REMARK VINA RESULT:      -7.9      2.990      6.393
REMARK  3 active torsions:
REMARK  status: ('A' for Active; 'I' for Inactive)
REMARK    1  A    between atoms: C_3  and  N_4 
REMARK       I    between atoms: N_4  and  C_5 
REMARK    2  A    between atoms: C_5  and  C_6 
REMARK    3  A    between atoms: C_8  and  N_9 
REMARK       I    between atoms: N_9  and  C_10 
ROOT
HETATM    1  N   UNL     1      27.411  44.165  52.100  1.00  0.00    -0.321 N 
HETATM    2  C   UNL     1      26.371  44.518  52.944  1.00  0.00     0.256 C 
HETATM    3  O   UNL     1      25.253  44.019  52.989  1.00  0.00    -0.267 OA
HETATM    4  H   UNL     1      28.313  44.568  52.315  1.00  0.00     0.169 HD
ENDROOT
BRANCH   2   5
HETATM    5  C   UNL     1      26.686  45.596  53.926  1.00  0.00     0.034 A 
HETATM    6  C   UNL     1      27.540  45.372  55.015  1.00  0.00     0.046 A 
HETATM    7  C   UNL     1      27.812  46.393  55.927  1.00  0.00     0.035 A 
HETATM    8  C   UNL     1      27.184  47.635  55.764  1.00  0.00     0.029 A 
HETATM    9  C   UNL     1      26.310  47.856  54.697  1.00  0.00     0.003 A 
HETATM   10  C   UNL     1      26.060  46.839  53.778  1.00  0.00     0.017 A 
BRANCH   7  11
HETATM   11  N   UNL     1      28.679  46.241  57.029  1.00  0.00    -0.327 N 
HETATM   12  C   UNL     1      29.985  45.781  57.004  1.00  0.00     0.218 C 
HETATM   13  C   UNL     1      30.608  45.700  58.376  1.00  0.00     0.117 C 
HETATM   14  O   UNL     1      30.635  45.488  56.005  1.00  0.00    -0.274 OA
HETATM   15  H   UNL     1      28.320  46.553  57.923  1.00  0.00     0.169 HD
ENDBRANCH   7  11
ENDBRANCH   2   5
BRANCH   1  16
HETATM   16  C   UNL     1      27.439  43.067  51.200  1.00  0.00     0.065 A 
HETATM   17  C   UNL     1      27.906  41.781  51.519  1.00  0.00    -0.031 A 
HETATM   18  C   UNL     1      28.292  41.322  52.896  1.00  0.00     0.050 C 
HETATM   19  C   UNL     1      27.971  40.819  50.496  1.00  0.00     0.035 A 
HETATM   20  C   UNL     1      27.509  41.122  49.223  1.00  0.00     0.031 A 
HETATM   21  N   UNL     1      26.969  42.319  48.922  1.00  0.00    -0.256 NA
HETATM   22  C   UNL     1      27.591  40.107  48.124  1.00  0.00     0.070 C 
HETATM   23  C   UNL     1      26.935  43.267  49.896  1.00  0.00     0.058 A 
HETATM   24  C   UNL     1      26.358  44.585  49.455  1.00  0.00     0.073 C 
ENDBRANCH   1  16
TORSDOF 3
ENDMDL
MODEL 6
REMARK VINA RESULT:      -7.8      3.821      5.307
REMARK  3 active torsions:
REMARK  status: ('A' for Active; 'I' for Inactive)
REMARK    1  A    between atoms: C_3  and  N_4 
REMARK       I    between atoms: N_4  and  C_5 
REMARK    2  A    between atoms: C_5  and  C_6 
REMARK    3  A    between atoms: C_8  and  N_9 
REMARK       I    between atoms: N_9  and  C_10 
ROOT
HETATM    1  N   UNL     1      27.288  43.253  52.882  1.00  0.00    -0.321 N 
HETATM    2  C   UNL     1      27.233  43.589  51.539  1.00  0.00     0.256 C 
HETATM    3  O   UNL     1      27.726  44.573  51.002  1.00  0.00    -0.267 OA
HETATM    4  H   UNL     1      26.972  42.323  53.120  1.00  0.00     0.169 HD
ENDROOT
BRANCH   2   5
HETATM    5  C   UNL     1      26.530  42.606  50.665  1.00  0.00     0.034 A 
HETATM    6  C   UNL     1      26.744  41.226  50.790  1.00  0.00     0.046 A 
HETATM    7  C   UNL     1      26.081  40.325  49.954  1.00  0.00     0.035 A 
HETATM    8  C   UNL     1      25.232  40.822  48.957  1.00  0.00     0.029 A 
HETATM    9  C   UNL     1      25.036  42.197  48.809  1.00  0.00     0.003 A 
HETATM   10  C   UNL     1      25.683  43.090  49.661  1.00  0.00     0.017 A 
BRANCH   7  11
HETATM   11  N   UNL     1      26.235  38.925  50.042  1.00  0.00    -0.327 N 
HETATM   12  C   UNL     1      27.250  38.163  49.489  1.00  0.00     0.218 C 
HETATM   13  C   UNL     1      27.079  36.685  49.739  1.00  0.00     0.117 C 
HETATM   14  O   UNL     1      28.228  38.584  48.880  1.00  0.00    -0.274 OA
HETATM   15  H   UNL     1      25.557  38.440  50.617  1.00  0.00     0.169 HD
ENDBRANCH   7  11
ENDBRANCH   2   5
BRANCH   1  16
HETATM   16  C   UNL     1      28.036  43.914  53.892  1.00  0.00     0.065 A 
HETATM   17  C   UNL     1      29.375  43.634  54.211  1.00  0.00    -0.031 A 
HETATM   18  C   UNL     1      30.273  42.716  53.431  1.00  0.00     0.050 C 
HETATM   19  C   UNL     1      29.955  44.296  55.307  1.00  0.00     0.035 A 
HETATM   20  C   UNL     1      29.236  45.259  56.001  1.00  0.00     0.031 A 
HETATM   21  N   UNL     1      27.984  45.609  55.651  1.00  0.00    -0.256 NA
HETATM   22  C   UNL     1      29.844  45.956  57.180  1.00  0.00     0.070 C 
HETATM   23  C   UNL     1      27.402  44.949  54.615  1.00  0.00     0.058 A 
HETATM   24  C   UNL     1      25.988  45.375  54.326  1.00  0.00     0.073 C 
ENDBRANCH   1  16
TORSDOF 3
ENDMDL
MODEL 7
REMARK VINA RESULT:      -7.8      1.928      2.106
REMARK  3 active torsions:
REMARK  status: ('A' for Active; 'I' for Inactive)
REMARK    1  A    between atoms: C_3  and  N_4 
REMARK       I    between atoms: N_4  and  C_5 
REMARK    2  A    between atoms: C_5  and  C_6 
REMARK    3  A    between atoms: C_8  and  N_9 
REMARK       I    between atoms: N_9  and  C_10 
ROOT
HETATM    1  N   UNL     1      27.190  44.162  53.139  1.00  0.00    -0.321 N 
HETATM    2  C   UNL     1      27.178  44.277  51.759  1.00  0.00     0.256 C 
HETATM    3  O   UNL     1      28.147  44.371  51.016  1.00  0.00    -0.267 OA
HETATM    4  H   UNL     1      26.308  43.926  53.572  1.00  0.00     0.169 HD
ENDROOT
BRANCH   2   5
HETATM    5  C   UNL     1      25.826  44.235  51.128  1.00  0.00     0.034 A 
HETATM    6  C   UNL     1      25.210  45.391  50.631  1.00  0.00     0.046 A 
HETATM    7  C   UNL     1      23.940  45.328  50.053  1.00  0.00     0.035 A 
HETATM    8  C   UNL     1      23.270  44.099  50.017  1.00  0.00     0.029 A 
HETATM    9  C   UNL     1      23.867  42.947  50.537  1.00  0.00     0.003 A 
HETATM   10  C   UNL     1      25.144  43.013  51.092  1.00  0.00     0.017 A 
BRANCH   7  11
HETATM   11  N   UNL     1      23.275  46.449  49.514  1.00  0.00    -0.327 N 
HETATM   12  C   UNL     1      23.664  47.774  49.610  1.00  0.00     0.218 C 
HETATM   13  C   UNL     1      22.692  48.724  48.955  1.00  0.00     0.117 C 
HETATM   14  O   UNL     1      24.694  48.195  50.128  1.00  0.00    -0.274 OA
HETATM   15  H   UNL     1      22.455  46.251  48.953  1.00  0.00     0.169 HD
ENDBRANCH   7  11
ENDBRANCH   2   5
BRANCH   1  16
HETATM   16  C   UNL     1      28.332  43.999  53.967  1.00  0.00     0.065 A 
HETATM   17  C   UNL     1      29.137  42.850  54.007  1.00  0.00    -0.031 A 
HETATM   18  C   UNL     1      29.017  41.681  53.069  1.00  0.00     0.050 C 
HETATM   19  C   UNL     1      30.175  42.790  54.953  1.00  0.00     0.035 A 
HETATM   20  C   UNL     1      30.437  43.881  55.770  1.00  0.00     0.031 A 
HETATM   21  N   UNL     1      29.738  45.028  55.681  1.00  0.00    -0.256 NA
HETATM   22  C   UNL     1      31.532  43.817  56.792  1.00  0.00     0.070 C 
HETATM   23  C   UNL     1      28.709  45.082  54.794  1.00  0.00     0.058 A 
HETATM   24  C   UNL     1      27.957  46.385  54.796  1.00  0.00     0.073 C 
ENDBRANCH   1  16
TORSDOF 3
ENDMDL
MODEL 8
REMARK VINA RESULT:      -7.8      3.336      5.247
REMARK  3 active torsions:
REMARK  status: ('A' for Active; 'I' for Inactive)
REMARK    1  A    between atoms: C_3  and  N_4 
REMARK       I    between atoms: N_4  and  C_5 
REMARK    2  A    between atoms: C_5  and  C_6 
REMARK    3  A    between atoms: C_8  and  N_9 
REMARK       I    between atoms: N_9  and  C_10 
ROOT
HETATM    1  N   UNL     1      25.317  46.843  51.048  1.00  0.00    -0.321 N 
HETATM    2  C   UNL     1      25.707  47.799  50.124  1.00  0.00     0.256 C 
HETATM    3  O   UNL     1      26.851  48.122  49.832  1.00  0.00    -0.267 OA
HETATM    4  H   UNL     1      24.339  46.589  51.038  1.00  0.00     0.169 HD
ENDROOT
BRANCH   2   5
HETATM    5  C   UNL     1      24.592  48.461  49.386  1.00  0.00     0.034 A 
HETATM    6  C   UNL     1      23.290  47.943  49.400  1.00  0.00     0.046 A 
HETATM    7  C   UNL     1      22.265  48.575  48.693  1.00  0.00     0.035 A 
HETATM    8  C   UNL     1      22.566  49.712  47.932  1.00  0.00     0.029 A 
HETATM    9  C   UNL     1      23.867  50.218  47.891  1.00  0.00     0.003 A 
HETATM   10  C   UNL     1      24.881  49.594  48.616  1.00  0.00     0.017 A 
BRANCH   7  11
HETATM   11  N   UNL     1      20.930  48.119  48.684  1.00  0.00    -0.327 N 
HETATM   12  C   UNL     1      19.872  48.627  49.419  1.00  0.00     0.218 C 
HETATM   13  C   UNL     1      18.586  47.868  49.202  1.00  0.00     0.117 C 
HETATM   14  O   UNL     1      19.902  49.606  50.157  1.00  0.00    -0.274 OA
HETATM   15  H   UNL     1      20.719  47.377  48.029  1.00  0.00     0.169 HD
ENDBRANCH   7  11
ENDBRANCH   2   5
BRANCH   1  16
HETATM   16  C   UNL     1      26.166  45.950  51.754  1.00  0.00     0.065 A 
HETATM   17  C   UNL     1      26.784  44.820  51.195  1.00  0.00    -0.031 A 
HETATM   18  C   UNL     1      26.780  44.471  49.733  1.00  0.00     0.050 C 
HETATM   19  C   UNL     1      27.514  43.967  52.040  1.00  0.00     0.035 A 
HETATM   20  C   UNL     1      27.679  44.288  53.381  1.00  0.00     0.031 A 
HETATM   21  N   UNL     1      27.174  45.416  53.915  1.00  0.00    -0.256 NA
HETATM   22  C   UNL     1      28.442  43.374  54.291  1.00  0.00     0.070 C 
HETATM   23  C   UNL     1      26.436  46.228  53.112  1.00  0.00     0.058 A 
HETATM   24  C   UNL     1      25.876  47.440  53.807  1.00  0.00     0.073 C 
ENDBRANCH   1  16
TORSDOF 3
ENDMDL
MODEL 9
REMARK VINA RESULT:      -7.7      4.553      9.594
REMARK  3 active torsions:
REMARK  status: ('A' for Active; 'I' for Inactive)
REMARK    1  A    between atoms: C_3  and  N_4 
REMARK       I    between atoms: N_4  and  C_5 
REMARK    2  A    between atoms: C_5  and  C_6 
REMARK    3  A    between atoms: C_8  and  N_9 
REMARK       I    between atoms: N_9  and  C_10 
ROOT
HETATM    1  N   UNL     1      21.952  48.488  49.624  1.00  0.00    -0.321 N 
HETATM    2  C   UNL     1      22.699  47.663  48.800  1.00  0.00     0.256 C 
HETATM    3  O   UNL     1      22.634  47.582  47.580  1.00  0.00    -0.267 OA
HETATM    4  H   UNL     1      22.255  48.546  50.586  1.00  0.00     0.169 HD
ENDROOT
BRANCH   2   5
HETATM    5  C   UNL     1      23.719  46.825  49.494  1.00  0.00     0.034 A 
HETATM    6  C   UNL     1      24.520  47.341  50.523  1.00  0.00     0.046 A 
HETATM    7  C   UNL     1      25.474  46.540  51.151  1.00  0.00     0.035 A 
HETATM    8  C   UNL     1      25.653  45.223  50.710  1.00  0.00     0.029 A 
HETATM    9  C   UNL     1      24.878  44.710  49.667  1.00  0.00     0.003 A 
HETATM   10  C   UNL     1      23.911  45.509  49.058  1.00  0.00     0.017 A 
BRANCH   7  11
HETATM   11  N   UNL     1      26.295  46.991  52.206  1.00  0.00    -0.327 N 
HETATM   12  C   UNL     1      26.201  46.639  53.542  1.00  0.00     0.218 C 
HETATM   13  C   UNL     1      27.213  47.346  54.410  1.00  0.00     0.117 C 
HETATM   14  O   UNL     1      25.426  45.822  54.028  1.00  0.00    -0.274 OA
HETATM   15  H   UNL     1      27.066  47.593  51.943  1.00  0.00     0.169 HD
ENDBRANCH   7  11
ENDBRANCH   2   5
BRANCH   1  16
HETATM   16  C   UNL     1      21.046  49.502  49.214  1.00  0.00     0.065 A 
HETATM   17  C   UNL     1      21.420  50.781  48.771  1.00  0.00    -0.031 A 
HETATM   18  C   UNL     1      22.833  51.221  48.504  1.00  0.00     0.050 C 
HETATM   19  C   UNL     1      20.410  51.719  48.497  1.00  0.00     0.035 A 
HETATM   20  C   UNL     1      19.074  51.352  48.590  1.00  0.00     0.031 A 
HETATM   21  N   UNL     1      18.695  50.103  48.922  1.00  0.00    -0.256 NA
HETATM   22  C   UNL     1      17.993  52.352  48.316  1.00  0.00     0.070 C 
HETATM   23  C   UNL     1      19.666  49.200  49.223  1.00  0.00     0.058 A 
HETATM   24  C   UNL     1      19.147  47.846  49.626  1.00  0.00     0.073 C 
ENDBRANCH   1  16
TORSDOF 3
ENDMDL
MODEL 10
REMARK VINA RESULT:      -7.6      1.893      7.572
REMARK  3 active torsions:
REMARK  status: ('A' for Active; 'I' for Inactive)
REMARK    1  A    between atoms: C_3  and  N_4 
REMARK       I    between atoms: N_4  and  C_5 
REMARK    2  A    between atoms: C_5  and  C_6 
REMARK    3  A    between atoms: C_8  and  N_9 
REMARK       I    between atoms: N_9  and  C_10 
ROOT
HETATM    1  N   UNL     1      26.643  44.806  51.503  1.00  0.00    -0.321 N 
HETATM    2  C   UNL     1      26.680  44.601  52.872  1.00  0.00     0.256 C 
HETATM    3  O   UNL     1      25.753  44.724  53.663  1.00  0.00    -0.267 OA
HETATM    4  H   UNL     1      27.454  44.495  50.986  1.00  0.00     0.169 HD
ENDROOT
BRANCH   2   5
HETATM    5  C   UNL     1      27.990  44.136  53.411  1.00  0.00     0.034 A 
HETATM    6  C   UNL     1      28.547  44.691  54.572  1.00  0.00     0.046 A 
HETATM    7  C   UNL     1      29.780  44.246  55.053  1.00  0.00     0.035 A 
HETATM    8  C   UNL     1      30.476  43.266  54.334  1.00  0.00     0.029 A 
HETATM    9  C   UNL     1      29.940  42.728  53.161  1.00  0.00     0.003 A 
HETATM   10  C   UNL     1      28.699  43.161  52.699  1.00  0.00     0.017 A 
BRANCH   7  11
HETATM   11  N   UNL     1      30.384  44.746  56.226  1.00  0.00    -0.327 N 
HETATM   12  C   UNL     1      31.025  44.012  57.209  1.00  0.00     0.218 C 
HETATM   13  C   UNL     1      31.517  44.864  58.353  1.00  0.00     0.117 C 
HETATM   14  O   UNL     1      31.235  42.804  57.197  1.00  0.00    -0.274 OA
HETATM   15  H   UNL     1      30.392  45.753  56.326  1.00  0.00     0.169 HD
ENDBRANCH   7  11
ENDBRANCH   2   5
BRANCH   1  16
HETATM   16  C   UNL     1      25.493  45.077  50.715  1.00  0.00     0.065 A 
HETATM   17  C   UNL     1      24.557  44.114  50.304  1.00  0.00    -0.031 A 
HETATM   18  C   UNL     1      24.534  42.684  50.765  1.00  0.00     0.050 C 
HETATM   19  C   UNL     1      23.523  44.511  49.438  1.00  0.00     0.035 A 
HETATM   20  C   UNL     1      23.395  45.843  49.069  1.00  0.00     0.031 A 
HETATM   21  N   UNL     1      24.226  46.797  49.530  1.00  0.00    -0.256 NA
HETATM   22  C   UNL     1      22.305  46.269  48.134  1.00  0.00     0.070 C 
HETATM   23  C   UNL     1      25.250  46.417  50.338  1.00  0.00     0.058 A 
HETATM   24  C   UNL     1      26.152  47.543  50.766  1.00  0.00     0.073 C 
ENDBRANCH   1  16
TORSDOF 3
ENDMDL
