MODEL 1
REMARK VINA RESULT:      -8.6      0.000      0.000
REMARK  5 active torsions:
REMARK  status: ('A' for Active; 'I' for Inactive)
REMARK    1  A    between atoms: C_9  and  C_10 
REMARK       I    between atoms: C_10  and  N_11 
REMARK    2  A    between atoms: N_11  and  C_12 
REMARK    3  A    between atoms: C_12  and  C_13 
REMARK    4  A    between atoms: C_12  and  C_16 
REMARK    5  A    between atoms: C_19  and  O_20 
ROOT
HETATM    1  C   UNL     1      28.021  44.714  53.275  1.00  0.00     0.273 C 
HETATM    2  N   UNL     1      26.920  45.181  52.601  1.00  0.00    -0.346 N 
HETATM    3  O   UNL     1      28.770  43.842  52.843  1.00  0.00    -0.266 OA
HETATM    4  H   UNL     1      26.404  45.920  53.065  1.00  0.00     0.163 HD
ENDROOT
BRANCH   2   5
HETATM    5  C   UNL     1      26.548  44.759  51.275  1.00  0.00     0.122 C 
BRANCH   5   6
HETATM    6  C   UNL     1      25.683  43.517  51.286  1.00  0.00     0.013 A 
HETATM    7  C   UNL     1      25.461  42.710  50.025  1.00  0.00     0.007 A 
HETATM    8  C   UNL     1      26.223  42.106  51.172  1.00  0.00     0.007 A 
ENDBRANCH   5   6
BRANCH   5   9
HETATM    9  C   UNL     1      25.836  45.899  50.564  1.00  0.00    -0.035 A 
HETATM   10  C   UNL     1      26.550  47.048  50.196  1.00  0.00     0.012 A 
HETATM   11  C   UNL     1      25.904  48.115  49.568  1.00  0.00     0.037 A 
HETATM   12  C   UNL     1      24.535  48.065  49.302  1.00  0.00     0.068 A 
HETATM   13  C   UNL     1      23.813  46.930  49.668  1.00  0.00     0.037 A 
HETATM   14  C   UNL     1      24.458  45.857  50.295  1.00  0.00     0.012 A 
BRANCH  12  15
HETATM   15  O   UNL     1      24.029  49.178  48.689  1.00  0.00    -0.356 OA
HETATM   16  C   UNL     1      24.965  50.047  48.064  1.00  0.00     0.210 C 
ENDBRANCH  12  15
ENDBRANCH   5   9
ENDBRANCH   2   5
BRANCH   1  17
HETATM   17  C   UNL     1      28.213  45.379  54.575  1.00  0.00     0.157 A 
HETATM   18  C   UNL     1      29.183  45.068  55.574  1.00  0.00     0.029 A 
HETATM   19  C   UNL     1      30.218  44.123  55.727  1.00  0.00     0.023 A 
HETATM   20  C   UNL     1      28.963  45.989  56.591  1.00  0.00     0.063 A 
HETATM   21  C   UNL     1      30.997  44.132  56.896  1.00  0.00    -0.061 A 
HETATM   22  C   UNL     1      32.109  43.140  57.077  1.00  0.00     0.048 C 
HETATM   23  C   UNL     1      30.744  45.081  57.895  1.00  0.00     0.009 A 
HETATM   24  C   UNL     1      29.721  46.028  57.764  1.00  0.00     0.032 A 
HETATM   25  N   UNL     1      27.917  46.757  56.161  1.00  0.00    -0.277 N 
HETATM   26  H   UNL     1      27.488  47.533  56.651  1.00  0.00     0.189 HD
HETATM   27  N   UNL     1      27.435  46.419  54.953  1.00  0.00    -0.168 NA
ENDBRANCH   1  17
TORSDOF 5
ENDMDL
MODEL 2
REMARK VINA RESULT:      -8.4      2.182      7.471
REMARK  5 active torsions:
REMARK  status: ('A' for Active; 'I' for Inactive)
REMARK    1  A    between atoms: C_9  and  C_10 
REMARK       I    between atoms: C_10  and  N_11 
REMARK    2  A    between atoms: N_11  and  C_12 
REMARK    3  A    between atoms: C_12  and  C_13 
REMARK    4  A    between atoms: C_12  and  C_16 
REMARK    5  A    between atoms: C_19  and  O_20 
ROOT
HETATM    1  C   UNL     1      26.795  44.507  51.369  1.00  0.00     0.273 C 
HETATM    2  N   UNL     1      26.514  43.837  52.533  1.00  0.00    -0.346 N 
HETATM    3  O   UNL     1      27.891  44.487  50.814  1.00  0.00    -0.266 OA
HETATM    4  H   UNL     1      25.560  43.921  52.867  1.00  0.00     0.163 HD
ENDROOT
BRANCH   2   5
HETATM    5  C   UNL     1      27.446  42.973  53.211  1.00  0.00     0.122 C 
BRANCH   5   6
HETATM    6  C   UNL     1      28.345  42.225  52.251  1.00  0.00     0.013 A 
HETATM    7  C   UNL     1      28.875  40.849  52.591  1.00  0.00     0.007 A 
HETATM    8  C   UNL     1      27.909  41.015  51.450  1.00  0.00     0.007 A 
ENDBRANCH   5   6
BRANCH   5   9
HETATM    9  C   UNL     1      28.275  43.793  54.188  1.00  0.00    -0.035 A 
HETATM   10  C   UNL     1      29.540  43.338  54.586  1.00  0.00     0.012 A 
HETATM   11  C   UNL     1      30.300  44.065  55.505  1.00  0.00     0.037 A 
HETATM   12  C   UNL     1      29.813  45.253  56.053  1.00  0.00     0.068 A 
HETATM   13  C   UNL     1      28.555  45.713  55.670  1.00  0.00     0.037 A 
HETATM   14  C   UNL     1      27.791  44.987  54.747  1.00  0.00     0.012 A 
BRANCH  12  15
HETATM   15  O   UNL     1      30.657  45.861  56.943  1.00  0.00    -0.356 OA
HETATM   16  C   UNL     1      30.651  45.363  58.274  1.00  0.00     0.210 C 
ENDBRANCH  12  15
ENDBRANCH   5   9
ENDBRANCH   2   5
BRANCH   1  17
HETATM   17  C   UNL     1      25.634  45.248  50.847  1.00  0.00     0.157 A 
HETATM   18  C   UNL     1      25.634  46.529  50.218  1.00  0.00     0.029 A 
HETATM   19  C   UNL     1      26.602  47.497  49.883  1.00  0.00     0.023 A 
HETATM   20  C   UNL     1      24.305  46.773  49.897  1.00  0.00     0.063 A 
HETATM   21  C   UNL     1      26.204  48.680  49.237  1.00  0.00    -0.061 A 
HETATM   22  C   UNL     1      27.220  49.721  48.863  1.00  0.00     0.048 C 
HETATM   23  C   UNL     1      24.853  48.883  48.926  1.00  0.00     0.009 A 
HETATM   24  C   UNL     1      23.875  47.936  49.251  1.00  0.00     0.032 A 
HETATM   25  N   UNL     1      23.619  45.676  50.338  1.00  0.00    -0.277 N 
HETATM   26  H   UNL     1      22.623  45.509  50.267  1.00  0.00     0.189 HD
HETATM   27  N   UNL     1      24.384  44.736  50.919  1.00  0.00    -0.168 NA
ENDBRANCH   1  17
TORSDOF 5
ENDMDL
MODEL 3
REMARK VINA RESULT:      -8.4      2.319      2.824
REMARK  5 active torsions:
REMARK  status: ('A' for Active; 'I' for Inactive)
REMARK    1  A    between atoms: C_9  and  C_10 
REMARK       I    between atoms: C_10  and  N_11 
REMARK    2  A    between atoms: N_11  and  C_12 
REMARK    3  A    between atoms: C_12  and  C_13 
REMARK    4  A    between atoms: C_12  and  C_16 
REMARK    5  A    between atoms: C_19  and  O_20 
ROOT
HETATM    1  C   UNL     1      28.350  43.825  52.711  1.00  0.00     0.273 C 
HETATM    2  N   UNL     1      27.108  43.567  52.184  1.00  0.00    -0.346 N 
HETATM    3  O   UNL     1      29.397  43.390  52.240  1.00  0.00    -0.266 OA
HETATM    4  H   UNL     1      26.331  44.011  52.661  1.00  0.00     0.163 HD
ENDROOT
BRANCH   2   5
HETATM    5  C   UNL     1      26.885  42.814  50.977  1.00  0.00     0.122 C 
BRANCH   5   6
HETATM    6  C   UNL     1      26.946  41.320  51.208  1.00  0.00     0.013 A 
HETATM    7  C   UNL     1      26.859  40.348  50.051  1.00  0.00     0.007 A 
HETATM    8  C   UNL     1      28.133  40.453  50.843  1.00  0.00     0.007 A 
ENDBRANCH   5   6
BRANCH   5   9
HETATM    9  C   UNL     1      25.544  43.208  50.378  1.00  0.00    -0.035 A 
HETATM   10  C   UNL     1      24.365  42.617  50.854  1.00  0.00     0.012 A 
HETATM   11  C   UNL     1      23.129  42.946  50.294  1.00  0.00     0.037 A 
HETATM   12  C   UNL     1      23.042  43.862  49.244  1.00  0.00     0.068 A 
HETATM   13  C   UNL     1      24.207  44.452  48.758  1.00  0.00     0.037 A 
HETATM   14  C   UNL     1      25.448  44.126  49.319  1.00  0.00     0.012 A 
BRANCH  12  15
HETATM   15  O   UNL     1      21.773  44.089  48.786  1.00  0.00    -0.356 OA
HETATM   16  C   UNL     1      21.459  45.421  48.401  1.00  0.00     0.210 C 
ENDBRANCH  12  15
ENDBRANCH   5   9
ENDBRANCH   2   5
BRANCH   1  17
HETATM   17  C   UNL     1      28.291  44.690  53.902  1.00  0.00     0.157 A 
HETATM   18  C   UNL     1      29.155  44.662  55.037  1.00  0.00     0.029 A 
HETATM   19  C   UNL     1      30.267  43.901  55.450  1.00  0.00     0.023 A 
HETATM   20  C   UNL     1      28.697  45.680  55.864  1.00  0.00     0.063 A 
HETATM   21  C   UNL     1      30.881  44.184  56.682  1.00  0.00    -0.061 A 
HETATM   22  C   UNL     1      32.071  43.390  57.139  1.00  0.00     0.048 C 
HETATM   23  C   UNL     1      30.390  45.223  57.483  1.00  0.00     0.009 A 
HETATM   24  C   UNL     1      29.287  45.992  57.092  1.00  0.00     0.032 A 
HETATM   25  N   UNL     1      27.631  46.228  55.206  1.00  0.00    -0.277 N 
HETATM   26  H   UNL     1      27.052  47.000  55.516  1.00  0.00     0.189 HD
HETATM   27  N   UNL     1      27.353  45.657  54.021  1.00  0.00    -0.168 NA
ENDBRANCH   1  17
TORSDOF 5
ENDMDL
MODEL 4
REMARK VINA RESULT:      -8.4      3.344      7.863
REMARK  5 active torsions:
REMARK  status: ('A' for Active; 'I' for Inactive)
REMARK    1  A    between atoms: C_9  and  C_10 
REMARK       I    between atoms: C_10  and  N_11 
REMARK    2  A    between atoms: N_11  and  C_12 
REMARK    3  A    between atoms: C_12  and  C_13 
REMARK    4  A    between atoms: C_12  and  C_16 
REMARK    5  A    between atoms: C_19  and  O_20 
ROOT
HETATM    1  C   UNL     1      26.876  42.778  49.984  1.00  0.00     0.273 C 
HETATM    2  N   UNL     1      26.857  42.959  51.345  1.00  0.00    -0.346 N 
HETATM    3  O   UNL     1      27.189  43.652  49.181  1.00  0.00    -0.266 OA
HETATM    4  H   UNL     1      26.602  42.143  51.891  1.00  0.00     0.163 HD
ENDROOT
BRANCH   2   5
HETATM    5  C   UNL     1      27.268  44.172  52.002  1.00  0.00     0.122 C 
BRANCH   5   6
HETATM    6  C   UNL     1      26.113  44.886  52.672  1.00  0.00     0.013 A 
HETATM    7  C   UNL     1      25.939  46.383  52.539  1.00  0.00     0.007 A 
HETATM    8  C   UNL     1      24.923  45.457  51.929  1.00  0.00     0.007 A 
ENDBRANCH   5   6
BRANCH   5   9
HETATM    9  C   UNL     1      28.358  43.854  53.014  1.00  0.00    -0.035 A 
HETATM   10  C   UNL     1      28.405  44.547  54.231  1.00  0.00     0.012 A 
HETATM   11  C   UNL     1      29.417  44.287  55.158  1.00  0.00     0.037 A 
HETATM   12  C   UNL     1      30.406  43.339  54.888  1.00  0.00     0.068 A 
HETATM   13  C   UNL     1      30.373  42.647  53.679  1.00  0.00     0.037 A 
HETATM   14  C   UNL     1      29.358  42.904  52.749  1.00  0.00     0.012 A 
BRANCH  12  15
HETATM   15  O   UNL     1      31.339  43.186  55.878  1.00  0.00    -0.356 OA
HETATM   16  C   UNL     1      31.206  44.024  57.019  1.00  0.00     0.210 C 
ENDBRANCH  12  15
ENDBRANCH   5   9
ENDBRANCH   2   5
BRANCH   1  17
HETATM   17  C   UNL     1      26.488  41.413  49.589  1.00  0.00     0.157 A 
HETATM   18  C   UNL     1      27.254  40.218  49.728  1.00  0.00     0.029 A 
HETATM   19  C   UNL     1      28.530  39.880  50.223  1.00  0.00     0.023 A 
HETATM   20  C   UNL     1      26.442  39.207  49.227  1.00  0.00     0.063 A 
HETATM   21  C   UNL     1      28.950  38.539  50.197  1.00  0.00    -0.061 A 
HETATM   22  C   UNL     1      30.303  38.156  50.726  1.00  0.00     0.048 C 
HETATM   23  C   UNL     1      28.098  37.551  49.688  1.00  0.00     0.009 A 
HETATM   24  C   UNL     1      26.827  37.865  49.191  1.00  0.00     0.032 A 
HETATM   25  N   UNL     1      25.292  39.832  48.831  1.00  0.00    -0.277 N 
HETATM   26  H   UNL     1      24.474  39.400  48.419  1.00  0.00     0.189 HD
HETATM   27  N   UNL     1      25.282  41.161  49.029  1.00  0.00    -0.168 NA
ENDBRANCH   1  17
TORSDOF 5
ENDMDL
MODEL 5
REMARK VINA RESULT:      -8.4      2.240      7.854
REMARK  5 active torsions:
REMARK  status: ('A' for Active; 'I' for Inactive)
REMARK    1  A    between atoms: C_9  and  C_10 
REMARK       I    between atoms: C_10  and  N_11 
REMARK    2  A    between atoms: N_11  and  C_12 
REMARK    3  A    between atoms: C_12  and  C_13 
REMARK    4  A    between atoms: C_12  and  C_16 
REMARK    5  A    between atoms: C_19  and  O_20 
ROOT
HETATM    1  C   UNL     1      26.052  45.661  50.580  1.00  0.00     0.273 C 
HETATM    2  N   UNL     1      27.046  44.716  50.644  1.00  0.00    -0.346 N 
HETATM    3  O   UNL     1      24.955  45.537  51.116  1.00  0.00    -0.266 OA
HETATM    4  H   UNL     1      27.912  44.961  50.175  1.00  0.00     0.163 HD
ENDROOT
BRANCH   2   5
HETATM    5  C   UNL     1      26.952  43.496  51.402  1.00  0.00     0.122 C 
BRANCH   5   6
HETATM    6  C   UNL     1      27.079  42.264  50.533  1.00  0.00     0.013 A 
HETATM    7  C   UNL     1      26.549  40.925  50.997  1.00  0.00     0.007 A 
HETATM    8  C   UNL     1      25.917  41.608  49.816  1.00  0.00     0.007 A 
ENDBRANCH   5   6
BRANCH   5   9
HETATM    9  C   UNL     1      28.014  43.495  52.490  1.00  0.00    -0.035 A 
HETATM   10  C   UNL     1      27.834  44.268  53.645  1.00  0.00     0.012 A 
HETATM   11  C   UNL     1      28.814  44.300  54.640  1.00  0.00     0.037 A 
HETATM   12  C   UNL     1      29.997  43.571  54.500  1.00  0.00     0.068 A 
HETATM   13  C   UNL     1      30.190  42.802  53.354  1.00  0.00     0.037 A 
HETATM   14  C   UNL     1      29.208  42.766  52.357  1.00  0.00     0.012 A 
BRANCH  12  15
HETATM   15  O   UNL     1      30.872  43.695  55.544  1.00  0.00    -0.356 OA
HETATM   16  C   UNL     1      30.649  44.772  56.444  1.00  0.00     0.210 C 
ENDBRANCH  12  15
ENDBRANCH   5   9
ENDBRANCH   2   5
BRANCH   1  17
HETATM   17  C   UNL     1      26.448  46.849  49.804  1.00  0.00     0.157 A 
HETATM   18  C   UNL     1      25.617  47.932  49.392  1.00  0.00     0.029 A 
HETATM   19  C   UNL     1      24.257  48.277  49.523  1.00  0.00     0.023 A 
HETATM   20  C   UNL     1      26.464  48.799  48.711  1.00  0.00     0.063 A 
HETATM   21  C   UNL     1      23.790  49.479  48.965  1.00  0.00    -0.061 A 
HETATM   22  C   UNL     1      22.346  49.870  49.099  1.00  0.00     0.048 C 
HETATM   23  C   UNL     1      24.679  50.326  48.290  1.00  0.00     0.009 A 
HETATM   24  C   UNL     1      26.034  50.003  48.148  1.00  0.00     0.032 A 
HETATM   25  N   UNL     1      27.694  48.205  48.750  1.00  0.00    -0.277 N 
HETATM   26  H   UNL     1      28.557  48.559  48.354  1.00  0.00     0.189 HD
HETATM   27  N   UNL     1      27.726  47.027  49.397  1.00  0.00    -0.168 NA
ENDBRANCH   1  17
TORSDOF 5
ENDMDL
MODEL 6
REMARK VINA RESULT:      -8.3      2.551      4.394
REMARK  5 active torsions:
REMARK  status: ('A' for Active; 'I' for Inactive)
REMARK    1  A    between atoms: C_9  and  C_10 
REMARK       I    between atoms: C_10  and  N_11 
REMARK    2  A    between atoms: N_11  and  C_12 
REMARK    3  A    between atoms: C_12  and  C_13 
REMARK    4  A    between atoms: C_12  and  C_16 
REMARK    5  A    between atoms: C_19  and  O_20 
ROOT
HETATM    1  C   UNL     1      25.732  46.585  51.976  1.00  0.00     0.273 C 
HETATM    2  N   UNL     1      25.819  46.823  50.627  1.00  0.00    -0.346 N 
HETATM    3  O   UNL     1      25.366  47.421  52.797  1.00  0.00    -0.266 OA
HETATM    4  H   UNL     1      26.114  46.033  50.062  1.00  0.00     0.163 HD
ENDROOT
BRANCH   2   5
HETATM    5  C   UNL     1      25.425  48.057  49.999  1.00  0.00     0.122 C 
BRANCH   5   6
HETATM    6  C   UNL     1      26.371  48.470  48.892  1.00  0.00     0.013 A 
HETATM    7  C   UNL     1      26.452  49.910  48.433  1.00  0.00     0.007 A 
HETATM    8  C   UNL     1      27.634  49.276  49.113  1.00  0.00     0.007 A 
ENDBRANCH   5   6
BRANCH   5   9
HETATM    9  C   UNL     1      24.007  47.922  49.467  1.00  0.00    -0.035 A 
HETATM   10  C   UNL     1      23.152  49.033  49.465  1.00  0.00     0.012 A 
HETATM   11  C   UNL     1      21.838  48.918  49.007  1.00  0.00     0.037 A 
HETATM   12  C   UNL     1      21.346  47.694  48.550  1.00  0.00     0.068 A 
HETATM   13  C   UNL     1      22.184  46.581  48.552  1.00  0.00     0.037 A 
HETATM   14  C   UNL     1      23.503  46.694  49.008  1.00  0.00     0.012 A 
BRANCH  12  15
HETATM   15  O   UNL     1      20.042  47.720  48.135  1.00  0.00    -0.356 OA
HETATM   16  C   UNL     1      19.065  48.059  49.110  1.00  0.00     0.210 C 
ENDBRANCH  12  15
ENDBRANCH   5   9
ENDBRANCH   2   5
BRANCH   1  17
HETATM   17  C   UNL     1      26.120  45.210  52.335  1.00  0.00     0.157 A 
HETATM   18  C   UNL     1      27.124  44.806  53.265  1.00  0.00     0.029 A 
HETATM   19  C   UNL     1      28.046  45.455  54.111  1.00  0.00     0.023 A 
HETATM   20  C   UNL     1      27.087  43.417  53.257  1.00  0.00     0.063 A 
HETATM   21  C   UNL     1      28.904  44.689  54.919  1.00  0.00    -0.061 A 
HETATM   22  C   UNL     1      29.889  45.359  55.832  1.00  0.00     0.048 C 
HETATM   23  C   UNL     1      28.829  43.291  54.883  1.00  0.00     0.009 A 
HETATM   24  C   UNL     1      27.921  42.625  54.051  1.00  0.00     0.032 A 
HETATM   25  N   UNL     1      26.111  43.088  52.359  1.00  0.00    -0.277 N 
HETATM   26  H   UNL     1      25.808  42.156  52.099  1.00  0.00     0.189 HD
HETATM   27  N   UNL     1      25.507  44.139  51.779  1.00  0.00    -0.168 NA
ENDBRANCH   1  17
TORSDOF 5
ENDMDL
MODEL 7
REMARK VINA RESULT:      -8.2      3.299      8.435
REMARK  5 active torsions:
REMARK  status: ('A' for Active; 'I' for Inactive)
REMARK    1  A    between atoms: C_9  and  C_10 
REMARK       I    between atoms: C_10  and  N_11 
REMARK    2  A    between atoms: N_11  and  C_12 
REMARK    3  A    between atoms: C_12  and  C_13 
REMARK    4  A    between atoms: C_12  and  C_16 
REMARK    5  A    between atoms: C_19  and  O_20 
ROOT
HETATM    1  C   UNL     1      27.000  42.825  50.374  1.00  0.00     0.273 C 
HETATM    2  N   UNL     1      27.150  43.044  51.720  1.00  0.00    -0.346 N 
HETATM    3  O   UNL     1      27.062  43.709  49.525  1.00  0.00    -0.266 OA
HETATM    4  H   UNL     1      27.099  42.218  52.306  1.00  0.00     0.163 HD
ENDROOT
BRANCH   2   5
HETATM    5  C   UNL     1      27.470  44.324  52.298  1.00  0.00     0.122 C 
BRANCH   5   6
HETATM    6  C   UNL     1      26.249  45.030  52.848  1.00  0.00     0.013 A 
HETATM    7  C   UNL     1      26.046  46.515  52.636  1.00  0.00     0.007 A 
HETATM    8  C   UNL     1      25.104  45.533  51.995  1.00  0.00     0.007 A 
ENDBRANCH   5   6
BRANCH   5   9
HETATM    9  C   UNL     1      28.516  44.140  53.386  1.00  0.00    -0.035 A 
HETATM   10  C   UNL     1      29.485  43.134  53.261  1.00  0.00     0.012 A 
HETATM   11  C   UNL     1      30.434  42.934  54.266  1.00  0.00     0.037 A 
HETATM   12  C   UNL     1      30.433  43.723  55.417  1.00  0.00     0.068 A 
HETATM   13  C   UNL     1      29.472  44.723  55.555  1.00  0.00     0.037 A 
HETATM   14  C   UNL     1      28.520  44.928  54.548  1.00  0.00     0.012 A 
BRANCH  12  15
HETATM   15  O   UNL     1      31.413  43.418  56.322  1.00  0.00    -0.356 OA
HETATM   16  C   UNL     1      31.363  44.091  57.573  1.00  0.00     0.210 C 
ENDBRANCH  12  15
ENDBRANCH   5   9
ENDBRANCH   2   5
BRANCH   1  17
HETATM   17  C   UNL     1      26.762  41.407  50.054  1.00  0.00     0.157 A 
HETATM   18  C   UNL     1      27.020  40.740  48.819  1.00  0.00     0.029 A 
HETATM   19  C   UNL     1      27.531  41.102  47.556  1.00  0.00     0.023 A 
HETATM   20  C   UNL     1      26.645  39.420  49.035  1.00  0.00     0.063 A 
HETATM   21  C   UNL     1      27.647  40.128  46.551  1.00  0.00    -0.061 A 
HETATM   22  C   UNL     1      28.195  40.489  45.200  1.00  0.00     0.048 C 
HETATM   23  C   UNL     1      27.261  38.807  46.813  1.00  0.00     0.009 A 
HETATM   24  C   UNL     1      26.751  38.426  48.060  1.00  0.00     0.032 A 
HETATM   25  N   UNL     1      26.199  39.379  50.327  1.00  0.00    -0.277 N 
HETATM   26  H   UNL     1      25.848  38.570  50.827  1.00  0.00     0.189 HD
HETATM   27  N   UNL     1      26.250  40.556  50.974  1.00  0.00    -0.168 NA
ENDBRANCH   1  17
TORSDOF 5
ENDMDL
MODEL 8
REMARK VINA RESULT:      -8.1      2.536      5.369
REMARK  5 active torsions:
REMARK  status: ('A' for Active; 'I' for Inactive)
REMARK    1  A    between atoms: C_9  and  C_10 
REMARK       I    between atoms: C_10  and  N_11 
REMARK    2  A    between atoms: N_11  and  C_12 
REMARK    3  A    between atoms: C_12  and  C_13 
REMARK    4  A    between atoms: C_12  and  C_16 
REMARK    5  A    between atoms: C_19  and  O_20 
ROOT
HETATM    1  C   UNL     1      25.584  44.596  52.815  1.00  0.00     0.273 C 
HETATM    2  N   UNL     1      26.427  43.993  51.915  1.00  0.00    -0.346 N 
HETATM    3  O   UNL     1      24.365  44.454  52.814  1.00  0.00    -0.266 OA
HETATM    4  H   UNL     1      27.415  44.180  52.048  1.00  0.00     0.163 HD
ENDROOT
BRANCH   2   5
HETATM    5  C   UNL     1      25.994  43.064  50.903  1.00  0.00     0.122 C 
BRANCH   5   6
HETATM    6  C   UNL     1      25.875  43.709  49.539  1.00  0.00     0.013 A 
HETATM    7  C   UNL     1      24.620  43.550  48.709  1.00  0.00     0.007 A 
HETATM    8  C   UNL     1      24.997  44.906  49.241  1.00  0.00     0.007 A 
ENDBRANCH   5   6
BRANCH   5   9
HETATM    9  C   UNL     1      26.955  41.886  50.855  1.00  0.00    -0.035 A 
HETATM   10  C   UNL     1      26.934  41.010  49.761  1.00  0.00     0.012 A 
HETATM   11  C   UNL     1      27.790  39.908  49.716  1.00  0.00     0.037 A 
HETATM   12  C   UNL     1      28.678  39.650  50.763  1.00  0.00     0.068 A 
HETATM   13  C   UNL     1      28.705  40.511  51.859  1.00  0.00     0.037 A 
HETATM   14  C   UNL     1      27.849  41.618  51.905  1.00  0.00     0.012 A 
BRANCH  12  15
HETATM   15  O   UNL     1      29.454  38.537  50.594  1.00  0.00    -0.356 OA
HETATM   16  C   UNL     1      29.797  38.191  49.258  1.00  0.00     0.210 C 
ENDBRANCH  12  15
ENDBRANCH   5   9
ENDBRANCH   2   5
BRANCH   1  17
HETATM   17  C   UNL     1      26.303  45.432  53.792  1.00  0.00     0.157 A 
HETATM   18  C   UNL     1      27.554  45.152  54.419  1.00  0.00     0.029 A 
HETATM   19  C   UNL     1      28.496  44.104  54.385  1.00  0.00     0.023 A 
HETATM   20  C   UNL     1      27.804  46.250  55.233  1.00  0.00     0.063 A 
HETATM   21  C   UNL     1      29.658  44.192  55.170  1.00  0.00    -0.061 A 
HETATM   22  C   UNL     1      30.679  43.090  55.143  1.00  0.00     0.048 C 
HETATM   23  C   UNL     1      29.874  45.319  55.972  1.00  0.00     0.009 A 
HETATM   24  C   UNL     1      28.951  46.371  56.022  1.00  0.00     0.032 A 
HETATM   25  N   UNL     1      26.734  47.081  55.056  1.00  0.00    -0.277 N 
HETATM   26  H   UNL     1      26.581  47.982  55.494  1.00  0.00     0.189 HD
HETATM   27  N   UNL     1      25.806  46.623  54.198  1.00  0.00    -0.168 NA
ENDBRANCH   1  17
TORSDOF 5
ENDMDL
MODEL 9
REMARK VINA RESULT:      -8.1      2.423      4.253
REMARK  5 active torsions:
REMARK  status: ('A' for Active; 'I' for Inactive)
REMARK    1  A    between atoms: C_9  and  C_10 
REMARK       I    between atoms: C_10  and  N_11 
REMARK    2  A    between atoms: N_11  and  C_12 
REMARK    3  A    between atoms: C_12  and  C_13 
REMARK    4  A    between atoms: C_12  and  C_16 
REMARK    5  A    between atoms: C_19  and  O_20 
ROOT
HETATM    1  C   UNL     1      26.909  44.938  52.891  1.00  0.00     0.273 C 
HETATM    2  N   UNL     1      26.674  44.929  51.538  1.00  0.00    -0.346 N 
HETATM    3  O   UNL     1      26.190  45.507  53.707  1.00  0.00    -0.266 OA
HETATM    4  H   UNL     1      27.337  44.399  50.983  1.00  0.00     0.163 HD
ENDROOT
BRANCH   2   5
HETATM    5  C   UNL     1      25.520  45.525  50.916  1.00  0.00     0.122 C 
BRANCH   5   6
HETATM    6  C   UNL     1      25.893  46.547  49.864  1.00  0.00     0.013 A 
HETATM    7  C   UNL     1      25.072  47.803  49.671  1.00  0.00     0.007 A 
HETATM    8  C   UNL     1      26.485  47.906  50.175  1.00  0.00     0.007 A 
ENDBRANCH   5   6
BRANCH   5   9
HETATM    9  C   UNL     1      24.651  44.432  50.314  1.00  0.00    -0.035 A 
HETATM   10  C   UNL     1      25.187  43.156  50.091  1.00  0.00     0.012 A 
HETATM   11  C   UNL     1      24.410  42.150  49.512  1.00  0.00     0.037 A 
HETATM   12  C   UNL     1      23.089  42.396  49.135  1.00  0.00     0.068 A 
HETATM   13  C   UNL     1      22.546  43.662  49.347  1.00  0.00     0.037 A 
HETATM   14  C   UNL     1      23.322  44.672  49.930  1.00  0.00     0.012 A 
BRANCH  12  15
HETATM   15  O   UNL     1      22.444  41.327  48.576  1.00  0.00    -0.356 OA
HETATM   16  C   UNL     1      23.115  40.655  47.518  1.00  0.00     0.210 C 
ENDBRANCH  12  15
ENDBRANCH   5   9
ENDBRANCH   2   5
BRANCH   1  17
HETATM   17  C   UNL     1      28.118  44.182  53.261  1.00  0.00     0.157 A 
HETATM   18  C   UNL     1      28.942  44.372  54.409  1.00  0.00     0.029 A 
HETATM   19  C   UNL     1      28.958  45.245  55.516  1.00  0.00     0.023 A 
HETATM   20  C   UNL     1      29.933  43.403  54.308  1.00  0.00     0.063 A 
HETATM   21  C   UNL     1      29.968  45.117  56.485  1.00  0.00    -0.061 A 
HETATM   22  C   UNL     1      30.000  46.031  57.676  1.00  0.00     0.048 C 
HETATM   23  C   UNL     1      30.945  44.122  56.346  1.00  0.00     0.009 A 
HETATM   24  C   UNL     1      30.948  43.245  55.254  1.00  0.00     0.032 A 
HETATM   25  N   UNL     1      29.656  42.724  53.154  1.00  0.00    -0.277 N 
HETATM   26  H   UNL     1      30.173  41.944  52.765  1.00  0.00     0.189 HD
HETATM   27  N   UNL     1      28.572  43.165  52.492  1.00  0.00    -0.168 NA
ENDBRANCH   1  17
TORSDOF 5
ENDMDL
MODEL 10
REMARK VINA RESULT:      -7.9      4.179      9.471
REMARK  5 active torsions:
REMARK  status: ('A' for Active; 'I' for Inactive)
REMARK    1  A    between atoms: C_9  and  C_10 
REMARK       I    between atoms: C_10  and  N_11 
REMARK    2  A    between atoms: N_11  and  C_12 
REMARK    3  A    between atoms: C_12  and  C_13 
REMARK    4  A    between atoms: C_12  and  C_16 
REMARK    5  A    between atoms: C_19  and  O_20 
ROOT
HETATM    1  C   UNL     1      23.045  48.957  48.885  1.00  0.00     0.273 C 
HETATM    2  N   UNL     1      23.784  48.470  49.934  1.00  0.00    -0.346 N 
HETATM    3  O   UNL     1      23.401  48.900  47.712  1.00  0.00    -0.266 OA
HETATM    4  H   UNL     1      23.357  48.563  50.850  1.00  0.00     0.163 HD
ENDROOT
BRANCH   2   5
HETATM    5  C   UNL     1      25.033  47.770  49.784  1.00  0.00     0.122 C 
BRANCH   5   6
HETATM    6  C   UNL     1      26.219  48.709  49.724  1.00  0.00     0.013 A 
HETATM    7  C   UNL     1      27.504  48.299  49.039  1.00  0.00     0.007 A 
HETATM    8  C   UNL     1      26.677  49.417  48.466  1.00  0.00     0.007 A 
ENDBRANCH   5   6
BRANCH   5   9
HETATM    9  C   UNL     1      25.195  46.777  50.924  1.00  0.00    -0.035 A 
HETATM   10  C   UNL     1      24.685  45.477  50.798  1.00  0.00     0.012 A 
HETATM   11  C   UNL     1      24.801  44.563  51.848  1.00  0.00     0.037 A 
HETATM   12  C   UNL     1      25.417  44.927  53.047  1.00  0.00     0.068 A 
HETATM   13  C   UNL     1      25.923  46.218  53.186  1.00  0.00     0.037 A 
HETATM   14  C   UNL     1      25.811  47.135  52.135  1.00  0.00     0.012 A 
BRANCH  12  15
HETATM   15  O   UNL     1      25.458  43.939  53.992  1.00  0.00    -0.356 OA
HETATM   16  C   UNL     1      26.734  43.618  54.530  1.00  0.00     0.210 C 
ENDBRANCH  12  15
ENDBRANCH   5   9
ENDBRANCH   2   5
BRANCH   1  17
HETATM   17  C   UNL     1      21.769  49.553  49.319  1.00  0.00     0.157 A 
HETATM   18  C   UNL     1      20.464  48.991  49.197  1.00  0.00     0.029 A 
HETATM   19  C   UNL     1      19.913  47.802  48.676  1.00  0.00     0.023 A 
HETATM   20  C   UNL     1      19.612  49.928  49.769  1.00  0.00     0.063 A 
HETATM   21  C   UNL     1      18.525  47.593  48.745  1.00  0.00    -0.061 A 
HETATM   22  C   UNL     1      17.918  46.331  48.203  1.00  0.00     0.048 C 
HETATM   23  C   UNL     1      17.704  48.562  49.335  1.00  0.00     0.009 A 
HETATM   24  C   UNL     1      18.229  49.750  49.858  1.00  0.00     0.032 A 
HETATM   25  N   UNL     1      20.422  50.950  50.176  1.00  0.00    -0.277 N 
HETATM   26  H   UNL     1      20.140  51.806  50.640  1.00  0.00     0.189 HD
HETATM   27  N   UNL     1      21.729  50.764  49.920  1.00  0.00    -0.168 NA
ENDBRANCH   1  17
TORSDOF 5
ENDMDL
