MODEL 1
REMARK VINA RESULT:      -9.2      0.000      0.000
REMARK  6 active torsions:
REMARK  status: ('A' for Active; 'I' for Inactive)
REMARK    1  A    between atoms: N_2  and  C_4 
REMARK    2  A    between atoms: C_4  and  C_5 
REMARK    3  A    between atoms: C_7  and  N_8 
REMARK       I    between atoms: N_8  and  C_9 
REMARK    4  A    between atoms: C_9  and  C_10 
REMARK    5  A    between atoms: C_12  and  C_13 
REMARK    6  A    between atoms: C_20  and  C_21 
ROOT
HETATM    1  N   UNL     1      26.343  47.060  50.774  1.00  0.00    -0.322 N 
HETATM    2  C   UNL     1      26.006  46.939  52.114  1.00  0.00     0.277 C 
HETATM    3  O   UNL     1      25.170  47.627  52.693  1.00  0.00    -0.266 OA
HETATM    4  H   UNL     1      27.149  46.506  50.490  1.00  0.00     0.169 HD
ENDROOT
BRANCH   2   5
HETATM    5  C   UNL     1      26.796  45.916  52.791  1.00  0.00     0.157 A 
HETATM    6  N   UNL     1      27.692  46.220  53.814  1.00  0.00    -0.216 NA
HETATM    7  C   UNL     1      28.206  45.048  54.145  1.00  0.00     0.180 A 
HETATM    8  O   UNL     1      27.707  43.998  53.425  1.00  0.00    -0.293 OA
HETATM    9  C   UNL     1      26.806  44.554  52.561  1.00  0.00     0.094 A 
BRANCH   7  10
HETATM   10  C   UNL     1      29.217  44.722  55.148  1.00  0.00     0.017 A 
HETATM   11  C   UNL     1      29.444  45.593  56.224  1.00  0.00     0.016 A 
HETATM   12  C   UNL     1      30.410  45.300  57.191  1.00  0.00     0.001 A 
HETATM   13  C   UNL     1      31.163  44.132  57.093  1.00  0.00     0.000 A 
HETATM   14  C   UNL     1      30.952  43.257  56.031  1.00  0.00     0.001 A 
HETATM   15  C   UNL     1      29.985  43.549  55.066  1.00  0.00     0.016 A 
ENDBRANCH   7  10
BRANCH   9  16
HETATM   16  C   UNL     1      26.000  43.756  51.552  1.00  0.00     0.046 A 
HETATM   17  C   UNL     1      26.650  43.443  50.220  1.00  0.00     0.012 A 
HETATM   18  C   UNL     1      26.472  42.355  51.222  1.00  0.00     0.012 A 
ENDBRANCH   9  16
ENDBRANCH   2   5
BRANCH   1  19
HETATM   19  C   UNL     1      25.764  47.937  49.839  1.00  0.00     0.035 A 
HETATM   20  C   UNL     1      24.405  47.905  49.520  1.00  0.00     0.038 A 
HETATM   21  C   UNL     1      23.828  48.852  48.660  1.00  0.00    -0.030 A 
HETATM   22  C   UNL     1      24.651  49.818  48.073  1.00  0.00     0.009 A 
HETATM   23  C   UNL     1      26.022  49.819  48.337  1.00  0.00     0.003 A 
HETATM   24  C   UNL     1      26.577  48.881  49.215  1.00  0.00     0.029 A 
BRANCH  21  25
HETATM   25  C   UNL     1      22.341  48.827  48.434  1.00  0.00     0.272 C 
BRANCH  25  26
HETATM   26  N   UNL     1      21.532  49.251  49.643  1.00  0.00    -0.075 N 
HETATM   27  C   UNL     1      20.082  48.845  49.579  1.00  0.00     0.269 C 
HETATM   28  H   UNL     1      21.937  48.759  50.447  1.00  0.00     0.279 HD
HETATM   29  C   UNL     1      21.668  50.726  49.894  1.00  0.00     0.269 C 
ENDBRANCH  25  26
ENDBRANCH  21  25
ENDBRANCH   1  19
TORSDOF 6
ENDMDL
MODEL 2
REMARK VINA RESULT:      -8.7      2.229      9.031
REMARK  6 active torsions:
REMARK  status: ('A' for Active; 'I' for Inactive)
REMARK    1  A    between atoms: N_2  and  C_4 
REMARK    2  A    between atoms: C_4  and  C_5 
REMARK    3  A    between atoms: C_7  and  N_8 
REMARK       I    between atoms: N_8  and  C_9 
REMARK    4  A    between atoms: C_9  and  C_10 
REMARK    5  A    between atoms: C_12  and  C_13 
REMARK    6  A    between atoms: C_20  and  C_21 
ROOT
HETATM    1  N   UNL     1      25.224  46.851  52.142  1.00  0.00    -0.322 N 
HETATM    2  C   UNL     1      25.522  47.296  50.863  1.00  0.00     0.277 C 
HETATM    3  O   UNL     1      26.650  47.560  50.455  1.00  0.00    -0.266 OA
HETATM    4  H   UNL     1      24.229  46.812  52.354  1.00  0.00     0.169 HD
ENDROOT
BRANCH   2   5
HETATM    5  C   UNL     1      24.325  47.466  50.045  1.00  0.00     0.157 A 
HETATM    6  N   UNL     1      23.699  48.699  49.883  1.00  0.00    -0.216 NA
HETATM    7  C   UNL     1      22.667  48.433  49.101  1.00  0.00     0.180 A 
HETATM    8  O   UNL     1      22.575  47.120  48.729  1.00  0.00    -0.293 OA
HETATM    9  C   UNL     1      23.635  46.503  49.333  1.00  0.00     0.094 A 
BRANCH   7  10
HETATM   10  C   UNL     1      21.627  49.323  48.591  1.00  0.00     0.017 A 
HETATM   11  C   UNL     1      21.550  50.646  49.051  1.00  0.00     0.016 A 
HETATM   12  C   UNL     1      20.559  51.511  48.579  1.00  0.00     0.001 A 
HETATM   13  C   UNL     1      19.631  51.063  47.641  1.00  0.00     0.000 A 
HETATM   14  C   UNL     1      19.693  49.753  47.174  1.00  0.00     0.001 A 
HETATM   15  C   UNL     1      20.685  48.889  47.646  1.00  0.00     0.016 A 
ENDBRANCH   7  10
BRANCH   9  16
HETATM   16  C   UNL     1      23.936  45.021  49.203  1.00  0.00     0.046 A 
HETATM   17  C   UNL     1      23.528  44.116  50.348  1.00  0.00     0.012 A 
HETATM   18  C   UNL     1      22.762  44.072  49.071  1.00  0.00     0.012 A 
ENDBRANCH   9  16
ENDBRANCH   2   5
BRANCH   1  19
HETATM   19  C   UNL     1      26.145  46.574  53.169  1.00  0.00     0.035 A 
HETATM   20  C   UNL     1      26.673  45.299  53.381  1.00  0.00     0.038 A 
HETATM   21  C   UNL     1      27.664  45.064  54.347  1.00  0.00    -0.030 A 
HETATM   22  C   UNL     1      28.091  46.128  55.147  1.00  0.00     0.009 A 
HETATM   23  C   UNL     1      27.523  47.394  54.984  1.00  0.00     0.003 A 
HETATM   24  C   UNL     1      26.552  47.616  54.001  1.00  0.00     0.029 A 
BRANCH  21  25
HETATM   25  C   UNL     1      28.266  43.690  54.459  1.00  0.00     0.272 C 
BRANCH  25  26
HETATM   26  N   UNL     1      29.750  43.646  54.158  1.00  0.00    -0.075 N 
HETATM   27  C   UNL     1      30.116  42.718  53.029  1.00  0.00     0.269 C 
HETATM   28  H   UNL     1      30.009  44.592  53.853  1.00  0.00     0.279 HD
HETATM   29  C   UNL     1      30.545  43.332  55.393  1.00  0.00     0.269 C 
ENDBRANCH  25  26
ENDBRANCH  21  25
ENDBRANCH   1  19
TORSDOF 6
ENDMDL
MODEL 3
REMARK VINA RESULT:      -8.6      2.980      9.098
REMARK  6 active torsions:
REMARK  status: ('A' for Active; 'I' for Inactive)
REMARK    1  A    between atoms: N_2  and  C_4 
REMARK    2  A    between atoms: C_4  and  C_5 
REMARK    3  A    between atoms: C_7  and  N_8 
REMARK       I    between atoms: N_8  and  C_9 
REMARK    4  A    between atoms: C_9  and  C_10 
REMARK    5  A    between atoms: C_12  and  C_13 
REMARK    6  A    between atoms: C_20  and  C_21 
ROOT
HETATM    1  N   UNL     1      26.791  44.008  51.521  1.00  0.00    -0.322 N 
HETATM    2  C   UNL     1      25.430  44.274  51.539  1.00  0.00     0.277 C 
HETATM    3  O   UNL     1      24.554  43.443  51.765  1.00  0.00    -0.266 OA
HETATM    4  H   UNL     1      27.367  44.777  51.182  1.00  0.00     0.169 HD
ENDROOT
BRANCH   2   5
HETATM    5  C   UNL     1      25.136  45.664  51.209  1.00  0.00     0.157 A 
HETATM    6  N   UNL     1      24.334  46.022  50.128  1.00  0.00    -0.216 NA
HETATM    7  C   UNL     1      24.324  47.344  50.161  1.00  0.00     0.180 A 
HETATM    8  O   UNL     1      25.050  47.879  51.190  1.00  0.00    -0.293 OA
HETATM    9  C   UNL     1      25.567  46.805  51.858  1.00  0.00     0.094 A 
BRANCH   7  10
HETATM   10  C   UNL     1      23.666  48.296  49.270  1.00  0.00     0.017 A 
HETATM   11  C   UNL     1      24.373  49.409  48.788  1.00  0.00     0.016 A 
HETATM   12  C   UNL     1      23.758  50.333  47.940  1.00  0.00     0.001 A 
HETATM   13  C   UNL     1      22.428  50.158  47.563  1.00  0.00     0.000 A 
HETATM   14  C   UNL     1      21.712  49.061  48.033  1.00  0.00     0.001 A 
HETATM   15  C   UNL     1      22.327  48.136  48.881  1.00  0.00     0.016 A 
ENDBRANCH   7  10
BRANCH   9  16
HETATM   16  C   UNL     1      26.455  46.921  53.085  1.00  0.00     0.046 A 
HETATM   17  C   UNL     1      25.924  47.705  54.267  1.00  0.00     0.012 A 
HETATM   18  C   UNL     1      26.004  46.220  54.350  1.00  0.00     0.012 A 
ENDBRANCH   9  16
ENDBRANCH   2   5
BRANCH   1  19
HETATM   19  C   UNL     1      27.409  42.777  51.806  1.00  0.00     0.035 A 
HETATM   20  C   UNL     1      27.593  41.787  50.839  1.00  0.00     0.038 A 
HETATM   21  C   UNL     1      28.300  40.607  51.118  1.00  0.00    -0.030 A 
HETATM   22  C   UNL     1      28.785  40.402  52.413  1.00  0.00     0.009 A 
HETATM   23  C   UNL     1      28.551  41.359  53.404  1.00  0.00     0.003 A 
HETATM   24  C   UNL     1      27.864  42.540  53.102  1.00  0.00     0.029 A 
BRANCH  21  25
HETATM   25  C   UNL     1      28.551  39.623  50.007  1.00  0.00     0.272 C 
BRANCH  25  26
HETATM   26  N   UNL     1      28.398  38.175  50.427  1.00  0.00    -0.075 N 
HETATM   27  C   UNL     1      29.704  37.436  50.553  1.00  0.00     0.269 C 
HETATM   28  H   UNL     1      27.980  38.192  51.365  1.00  0.00     0.279 HD
HETATM   29  C   UNL     1      27.451  37.445  49.518  1.00  0.00     0.269 C 
ENDBRANCH  25  26
ENDBRANCH  21  25
ENDBRANCH   1  19
TORSDOF 6
ENDMDL
MODEL 4
REMARK VINA RESULT:      -8.6      3.638      6.780
REMARK  6 active torsions:
REMARK  status: ('A' for Active; 'I' for Inactive)
REMARK    1  A    between atoms: N_2  and  C_4 
REMARK    2  A    between atoms: C_4  and  C_5 
REMARK    3  A    between atoms: C_7  and  N_8 
REMARK       I    between atoms: N_8  and  C_9 
REMARK    4  A    between atoms: C_9  and  C_10 
REMARK    5  A    between atoms: C_12  and  C_13 
REMARK    6  A    between atoms: C_20  and  C_21 
ROOT
HETATM    1  N   UNL     1      26.732  42.754  51.804  1.00  0.00    -0.322 N 
HETATM    2  C   UNL     1      27.448  43.941  51.747  1.00  0.00     0.277 C 
HETATM    3  O   UNL     1      27.773  44.517  50.712  1.00  0.00    -0.266 OA
HETATM    4  H   UNL     1      26.668  42.345  52.734  1.00  0.00     0.169 HD
ENDROOT
BRANCH   2   5
HETATM    5  C   UNL     1      27.824  44.423  53.072  1.00  0.00     0.157 A 
HETATM    6  N   UNL     1      28.983  44.002  53.719  1.00  0.00    -0.216 NA
HETATM    7  C   UNL     1      28.954  44.644  54.875  1.00  0.00     0.180 A 
HETATM    8  O   UNL     1      27.868  45.462  55.029  1.00  0.00    -0.293 OA
HETATM    9  C   UNL     1      27.148  45.320  53.877  1.00  0.00     0.094 A 
BRANCH   7  10
HETATM   10  C   UNL     1      29.894  44.600  55.992  1.00  0.00     0.017 A 
HETATM   11  C   UNL     1      30.862  43.586  56.054  1.00  0.00     0.016 A 
HETATM   12  C   UNL     1      31.767  43.526  57.118  1.00  0.00     0.001 A 
HETATM   13  C   UNL     1      31.714  44.478  58.134  1.00  0.00     0.000 A 
HETATM   14  C   UNL     1      30.760  45.490  58.088  1.00  0.00     0.001 A 
HETATM   15  C   UNL     1      29.856  45.551  57.024  1.00  0.00     0.016 A 
ENDBRANCH   7  10
BRANCH   9  16
HETATM   16  C   UNL     1      25.843  46.046  53.601  1.00  0.00     0.046 A 
HETATM   17  C   UNL     1      25.797  47.537  53.867  1.00  0.00     0.012 A 
HETATM   18  C   UNL     1      25.819  47.043  52.461  1.00  0.00     0.012 A 
ENDBRANCH   9  16
ENDBRANCH   2   5
BRANCH   1  19
HETATM   19  C   UNL     1      26.211  42.036  50.713  1.00  0.00     0.035 A 
HETATM   20  C   UNL     1      26.872  40.943  50.149  1.00  0.00     0.038 A 
HETATM   21  C   UNL     1      26.290  40.178  49.126  1.00  0.00    -0.030 A 
HETATM   22  C   UNL     1      25.039  40.558  48.630  1.00  0.00     0.009 A 
HETATM   23  C   UNL     1      24.398  41.687  49.145  1.00  0.00     0.003 A 
HETATM   24  C   UNL     1      24.983  42.425  50.181  1.00  0.00     0.029 A 
BRANCH  21  25
HETATM   25  C   UNL     1      27.007  38.953  48.628  1.00  0.00     0.272 C 
BRANCH  25  26
HETATM   26  N   UNL     1      27.584  38.092  49.733  1.00  0.00    -0.075 N 
HETATM   27  C   UNL     1      29.089  38.008  49.717  1.00  0.00     0.269 C 
HETATM   28  H   UNL     1      27.327  38.548  50.616  1.00  0.00     0.279 HD
HETATM   29  C   UNL     1      26.968  36.722  49.731  1.00  0.00     0.269 C 
ENDBRANCH  25  26
ENDBRANCH  21  25
ENDBRANCH   1  19
TORSDOF 6
ENDMDL
MODEL 5
REMARK VINA RESULT:      -8.4      2.158      3.135
REMARK  6 active torsions:
REMARK  status: ('A' for Active; 'I' for Inactive)
REMARK    1  A    between atoms: N_2  and  C_4 
REMARK    2  A    between atoms: C_4  and  C_5 
REMARK    3  A    between atoms: C_7  and  N_8 
REMARK       I    between atoms: N_8  and  C_9 
REMARK    4  A    between atoms: C_9  and  C_10 
REMARK    5  A    between atoms: C_12  and  C_13 
REMARK    6  A    between atoms: C_20  and  C_21 
ROOT
HETATM    1  N   UNL     1      25.193  44.185  50.916  1.00  0.00    -0.322 N 
HETATM    2  C   UNL     1      26.513  44.000  50.531  1.00  0.00     0.277 C 
HETATM    3  O   UNL     1      26.941  44.161  49.391  1.00  0.00    -0.266 OA
HETATM    4  H   UNL     1      24.984  43.876  51.864  1.00  0.00     0.169 HD
ENDROOT
BRANCH   2   5
HETATM    5  C   UNL     1      27.351  43.541  51.633  1.00  0.00     0.157 A 
HETATM    6  N   UNL     1      27.870  44.411  52.590  1.00  0.00    -0.216 NA
HETATM    7  C   UNL     1      28.570  43.625  53.390  1.00  0.00     0.180 A 
HETATM    8  O   UNL     1      28.539  42.304  53.037  1.00  0.00    -0.293 OA
HETATM    9  C   UNL     1      27.761  42.252  51.915  1.00  0.00     0.094 A 
BRANCH   7  10
HETATM   10  C   UNL     1      29.360  43.960  54.572  1.00  0.00     0.017 A 
HETATM   11  C   UNL     1      30.369  43.089  55.010  1.00  0.00     0.016 A 
HETATM   12  C   UNL     1      31.132  43.391  56.142  1.00  0.00     0.001 A 
HETATM   13  C   UNL     1      30.894  44.566  56.851  1.00  0.00     0.000 A 
HETATM   14  C   UNL     1      29.896  45.440  56.431  1.00  0.00     0.001 A 
HETATM   15  C   UNL     1      29.134  45.140  55.299  1.00  0.00     0.016 A 
ENDBRANCH   7  10
BRANCH   9  16
HETATM   16  C   UNL     1      27.447  40.971  51.162  1.00  0.00     0.046 A 
HETATM   17  C   UNL     1      28.137  40.750  49.831  1.00  0.00     0.012 A 
HETATM   18  C   UNL     1      28.556  39.950  51.017  1.00  0.00     0.012 A 
ENDBRANCH   9  16
ENDBRANCH   2   5
BRANCH   1  19
HETATM   19  C   UNL     1      24.137  44.632  50.103  1.00  0.00     0.035 A 
HETATM   20  C   UNL     1      23.938  45.981  49.804  1.00  0.00     0.038 A 
HETATM   21  C   UNL     1      22.938  46.399  48.912  1.00  0.00    -0.030 A 
HETATM   22  C   UNL     1      22.092  45.437  48.351  1.00  0.00     0.009 A 
HETATM   23  C   UNL     1      22.243  44.091  48.693  1.00  0.00     0.003 A 
HETATM   24  C   UNL     1      23.260  43.690  49.567  1.00  0.00     0.029 A 
BRANCH  21  25
HETATM   25  C   UNL     1      22.838  47.856  48.553  1.00  0.00     0.272 C 
BRANCH  25  26
HETATM   26  N   UNL     1      21.947  48.654  49.483  1.00  0.00    -0.075 N 
HETATM   27  C   UNL     1      20.476  48.509  49.190  1.00  0.00     0.269 C 
HETATM   28  H   UNL     1      22.096  48.270  50.423  1.00  0.00     0.279 HD
HETATM   29  C   UNL     1      22.351  50.101  49.510  1.00  0.00     0.269 C 
ENDBRANCH  25  26
ENDBRANCH  21  25
ENDBRANCH   1  19
TORSDOF 6
ENDMDL
MODEL 6
REMARK VINA RESULT:      -8.4      3.471      5.474
REMARK  6 active torsions:
REMARK  status: ('A' for Active; 'I' for Inactive)
REMARK    1  A    between atoms: N_2  and  C_4 
REMARK    2  A    between atoms: C_4  and  C_5 
REMARK    3  A    between atoms: C_7  and  N_8 
REMARK       I    between atoms: N_8  and  C_9 
REMARK    4  A    between atoms: C_9  and  C_10 
REMARK    5  A    between atoms: C_12  and  C_13 
REMARK    6  A    between atoms: C_20  and  C_21 
ROOT
HETATM    1  N   UNL     1      26.978  42.450  51.794  1.00  0.00    -0.322 N 
HETATM    2  C   UNL     1      27.500  43.732  51.702  1.00  0.00     0.277 C 
HETATM    3  O   UNL     1      27.677  44.346  50.653  1.00  0.00    -0.266 OA
HETATM    4  H   UNL     1      27.028  42.040  52.724  1.00  0.00     0.169 HD
ENDROOT
BRANCH   2   5
HETATM    5  C   UNL     1      27.869  44.272  53.006  1.00  0.00     0.157 A 
HETATM    6  N   UNL     1      29.012  43.862  53.689  1.00  0.00    -0.216 NA
HETATM    7  C   UNL     1      28.981  44.561  54.811  1.00  0.00     0.180 A 
HETATM    8  O   UNL     1      27.911  45.406  54.910  1.00  0.00    -0.293 OA
HETATM    9  C   UNL     1      27.202  45.221  53.757  1.00  0.00     0.094 A 
BRANCH   7  10
HETATM   10  C   UNL     1      29.907  44.555  55.941  1.00  0.00     0.017 A 
HETATM   11  C   UNL     1      30.891  43.559  56.036  1.00  0.00     0.016 A 
HETATM   12  C   UNL     1      31.782  43.534  57.112  1.00  0.00     0.001 A 
HETATM   13  C   UNL     1      31.700  44.504  58.109  1.00  0.00     0.000 A 
HETATM   14  C   UNL     1      30.729  45.499  58.031  1.00  0.00     0.001 A 
HETATM   15  C   UNL     1      29.839  45.524  56.954  1.00  0.00     0.016 A 
ENDBRANCH   7  10
BRANCH   9  16
HETATM   16  C   UNL     1      25.915  45.958  53.428  1.00  0.00     0.046 A 
HETATM   17  C   UNL     1      25.841  47.432  53.769  1.00  0.00     0.012 A 
HETATM   18  C   UNL     1      25.965  47.014  52.344  1.00  0.00     0.012 A 
ENDBRANCH   9  16
ENDBRANCH   2   5
BRANCH   1  19
HETATM   19  C   UNL     1      26.515  41.655  50.730  1.00  0.00     0.035 A 
HETATM   20  C   UNL     1      25.350  41.955  50.020  1.00  0.00     0.038 A 
HETATM   21  C   UNL     1      24.958  41.207  48.900  1.00  0.00    -0.030 A 
HETATM   22  C   UNL     1      25.730  40.104  48.522  1.00  0.00     0.009 A 
HETATM   23  C   UNL     1      26.862  39.759  49.264  1.00  0.00     0.003 A 
HETATM   24  C   UNL     1      27.252  40.530  50.364  1.00  0.00     0.029 A 
BRANCH  21  25
HETATM   25  C   UNL     1      23.748  41.639  48.117  1.00  0.00     0.272 C 
BRANCH  25  26
HETATM   26  N   UNL     1      24.019  42.778  47.154  1.00  0.00    -0.075 N 
HETATM   27  C   UNL     1      23.428  44.095  47.586  1.00  0.00     0.269 C 
HETATM   28  H   UNL     1      25.037  42.906  47.140  1.00  0.00     0.279 HD
HETATM   29  C   UNL     1      23.584  42.423  45.760  1.00  0.00     0.269 C 
ENDBRANCH  25  26
ENDBRANCH  21  25
ENDBRANCH   1  19
TORSDOF 6
ENDMDL
MODEL 7
REMARK VINA RESULT:      -8.2      4.266      7.539
REMARK  6 active torsions:
REMARK  status: ('A' for Active; 'I' for Inactive)
REMARK    1  A    between atoms: N_2  and  C_4 
REMARK    2  A    between atoms: C_4  and  C_5 
REMARK    3  A    between atoms: C_7  and  N_8 
REMARK       I    between atoms: N_8  and  C_9 
REMARK    4  A    between atoms: C_9  and  C_10 
REMARK    5  A    between atoms: C_12  and  C_13 
REMARK    6  A    between atoms: C_20  and  C_21 
ROOT
HETATM    1  N   UNL     1      28.498  41.111  50.555  1.00  0.00    -0.322 N 
HETATM    2  C   UNL     1      27.425  41.628  51.265  1.00  0.00     0.277 C 
HETATM    3  O   UNL     1      26.252  41.302  51.104  1.00  0.00    -0.266 OA
HETATM    4  H   UNL     1      29.382  41.589  50.718  1.00  0.00     0.169 HD
ENDROOT
BRANCH   2   5
HETATM    5  C   UNL     1      27.837  42.657  52.215  1.00  0.00     0.157 A 
HETATM    6  N   UNL     1      28.742  42.405  53.244  1.00  0.00    -0.216 NA
HETATM    7  C   UNL     1      28.838  43.562  53.875  1.00  0.00     0.180 A 
HETATM    8  O   UNL     1      28.074  44.557  53.331  1.00  0.00    -0.293 OA
HETATM    9  C   UNL     1      27.435  43.978  52.271  1.00  0.00     0.094 A 
BRANCH   7  10
HETATM   10  C   UNL     1      29.625  43.922  55.052  1.00  0.00     0.017 A 
HETATM   11  C   UNL     1      29.408  45.152  55.691  1.00  0.00     0.016 A 
HETATM   12  C   UNL     1      30.155  45.516  56.815  1.00  0.00     0.001 A 
HETATM   13  C   UNL     1      31.131  44.655  57.313  1.00  0.00     0.000 A 
HETATM   14  C   UNL     1      31.360  43.431  56.690  1.00  0.00     0.001 A 
HETATM   15  C   UNL     1      30.612  43.067  55.567  1.00  0.00     0.016 A 
ENDBRANCH   7  10
BRANCH   9  16
HETATM   16  C   UNL     1      26.466  44.714  51.362  1.00  0.00     0.046 A 
HETATM   17  C   UNL     1      25.036  44.869  51.835  1.00  0.00     0.012 A 
HETATM   18  C   UNL     1      25.939  46.054  51.831  1.00  0.00     0.012 A 
ENDBRANCH   9  16
ENDBRANCH   2   5
BRANCH   1  19
HETATM   19  C   UNL     1      28.448  40.101  49.578  1.00  0.00     0.035 A 
HETATM   20  C   UNL     1      28.126  40.361  48.244  1.00  0.00     0.038 A 
HETATM   21  C   UNL     1      28.178  39.356  47.265  1.00  0.00    -0.030 A 
HETATM   22  C   UNL     1      28.511  38.055  47.651  1.00  0.00     0.009 A 
HETATM   23  C   UNL     1      28.773  37.773  48.994  1.00  0.00     0.003 A 
HETATM   24  C   UNL     1      28.739  38.790  49.954  1.00  0.00     0.029 A 
BRANCH  21  25
HETATM   25  C   UNL     1      27.918  39.720  45.828  1.00  0.00     0.272 C 
BRANCH  25  26
HETATM   26  N   UNL     1      27.433  38.559  44.983  1.00  0.00    -0.075 N 
HETATM   27  C   UNL     1      28.335  38.235  43.819  1.00  0.00     0.269 C 
HETATM   28  H   UNL     1      27.441  37.736  45.595  1.00  0.00     0.279 HD
HETATM   29  C   UNL     1      26.019  38.776  44.525  1.00  0.00     0.269 C 
ENDBRANCH  25  26
ENDBRANCH  21  25
ENDBRANCH   1  19
TORSDOF 6
ENDMDL
MODEL 8
REMARK VINA RESULT:      -8.1      2.073      2.751
REMARK  6 active torsions:
REMARK  status: ('A' for Active; 'I' for Inactive)
REMARK    1  A    between atoms: N_2  and  C_4 
REMARK    2  A    between atoms: C_4  and  C_5 
REMARK    3  A    between atoms: C_7  and  N_8 
REMARK       I    between atoms: N_8  and  C_9 
REMARK    4  A    between atoms: C_9  and  C_10 
REMARK    5  A    between atoms: C_12  and  C_13 
REMARK    6  A    between atoms: C_20  and  C_21 
ROOT
HETATM    1  N   UNL     1      25.340  45.669  50.605  1.00  0.00    -0.322 N 
HETATM    2  C   UNL     1      25.111  44.729  51.600  1.00  0.00     0.277 C 
HETATM    3  O   UNL     1      24.002  44.369  51.985  1.00  0.00    -0.266 OA
HETATM    4  H   UNL     1      26.314  45.950  50.507  1.00  0.00     0.169 HD
ENDROOT
BRANCH   2   5
HETATM    5  C   UNL     1      26.352  44.234  52.187  1.00  0.00     0.157 A 
HETATM    6  N   UNL     1      26.907  44.789  53.338  1.00  0.00    -0.216 NA
HETATM    7  C   UNL     1      28.009  44.084  53.531  1.00  0.00     0.180 A 
HETATM    8  O   UNL     1      28.212  43.103  52.601  1.00  0.00    -0.293 OA
HETATM    9  C   UNL     1      27.153  43.200  51.743  1.00  0.00     0.094 A 
BRANCH   7  10
HETATM   10  C   UNL     1      29.024  44.206  54.575  1.00  0.00     0.017 A 
HETATM   11  C   UNL     1      29.921  43.152  54.806  1.00  0.00     0.016 A 
HETATM   12  C   UNL     1      30.896  43.248  55.803  1.00  0.00     0.001 A 
HETATM   13  C   UNL     1      30.985  44.400  56.584  1.00  0.00     0.000 A 
HETATM   14  C   UNL     1      30.102  45.454  56.368  1.00  0.00     0.001 A 
HETATM   15  C   UNL     1      29.128  45.358  55.370  1.00  0.00     0.016 A 
ENDBRANCH   7  10
BRANCH   9  16
HETATM   16  C   UNL     1      26.959  42.300  50.535  1.00  0.00     0.046 A 
HETATM   17  C   UNL     1      26.988  40.803  50.760  1.00  0.00     0.012 A 
HETATM   18  C   UNL     1      25.691  41.475  50.467  1.00  0.00     0.012 A 
ENDBRANCH   9  16
ENDBRANCH   2   5
BRANCH   1  19
HETATM   19  C   UNL     1      24.366  46.328  49.834  1.00  0.00     0.035 A 
HETATM   20  C   UNL     1      23.530  45.652  48.943  1.00  0.00     0.038 A 
HETATM   21  C   UNL     1      22.499  46.312  48.256  1.00  0.00    -0.030 A 
HETATM   22  C   UNL     1      22.344  47.690  48.436  1.00  0.00     0.009 A 
HETATM   23  C   UNL     1      23.216  48.385  49.276  1.00  0.00     0.003 A 
HETATM   24  C   UNL     1      24.224  47.708  49.971  1.00  0.00     0.029 A 
BRANCH  21  25
HETATM   25  C   UNL     1      21.567  45.511  47.388  1.00  0.00     0.272 C 
BRANCH  25  26
HETATM   26  N   UNL     1      20.167  46.085  47.301  1.00  0.00    -0.075 N 
HETATM   27  C   UNL     1      19.108  45.203  47.910  1.00  0.00     0.269 C 
HETATM   28  H   UNL     1      20.178  46.951  47.853  1.00  0.00     0.279 HD
HETATM   29  C   UNL     1      19.818  46.449  45.887  1.00  0.00     0.269 C 
ENDBRANCH  25  26
ENDBRANCH  21  25
ENDBRANCH   1  19
TORSDOF 6
ENDMDL
MODEL 9
REMARK VINA RESULT:      -7.9      3.006      9.560
REMARK  6 active torsions:
REMARK  status: ('A' for Active; 'I' for Inactive)
REMARK    1  A    between atoms: N_2  and  C_4 
REMARK    2  A    between atoms: C_4  and  C_5 
REMARK    3  A    between atoms: C_7  and  N_8 
REMARK       I    between atoms: N_8  and  C_9 
REMARK    4  A    between atoms: C_9  and  C_10 
REMARK    5  A    between atoms: C_12  and  C_13 
REMARK    6  A    between atoms: C_20  and  C_21 
ROOT
HETATM    1  N   UNL     1      24.130  46.683  50.546  1.00  0.00    -0.322 N 
HETATM    2  C   UNL     1      24.283  47.813  49.756  1.00  0.00     0.277 C 
HETATM    3  O   UNL     1      25.304  48.493  49.693  1.00  0.00    -0.266 OA
HETATM    4  H   UNL     1      23.179  46.321  50.584  1.00  0.00     0.169 HD
ENDROOT
BRANCH   2   5
HETATM    5  C   UNL     1      23.064  48.146  49.027  1.00  0.00     0.157 A 
HETATM    6  N   UNL     1      22.457  49.396  49.115  1.00  0.00    -0.216 NA
HETATM    7  C   UNL     1      21.396  49.292  48.334  1.00  0.00     0.180 A 
HETATM    8  O   UNL     1      21.267  48.071  47.731  1.00  0.00    -0.293 OA
HETATM    9  C   UNL     1      22.333  47.340  48.174  1.00  0.00     0.094 A 
BRANCH   7  10
HETATM   10  C   UNL     1      20.357  50.274  48.033  1.00  0.00     0.017 A 
HETATM   11  C   UNL     1      20.236  51.430  48.820  1.00  0.00     0.016 A 
HETATM   12  C   UNL     1      19.246  52.378  48.550  1.00  0.00     0.001 A 
HETATM   13  C   UNL     1      18.362  52.182  47.490  1.00  0.00     0.000 A 
HETATM   14  C   UNL     1      18.468  51.041  46.701  1.00  0.00     0.001 A 
HETATM   15  C   UNL     1      19.459  50.093  46.970  1.00  0.00     0.016 A 
ENDBRANCH   7  10
BRANCH   9  16
HETATM   16  C   UNL     1      22.601  45.903  47.764  1.00  0.00     0.046 A 
HETATM   17  C   UNL     1      21.789  44.815  48.436  1.00  0.00     0.012 A 
HETATM   18  C   UNL     1      21.509  45.168  47.015  1.00  0.00     0.012 A 
ENDBRANCH   9  16
ENDBRANCH   2   5
BRANCH   1  19
HETATM   19  C   UNL     1      25.111  46.089  51.359  1.00  0.00     0.035 A 
HETATM   20  C   UNL     1      25.736  44.886  51.026  1.00  0.00     0.038 A 
HETATM   21  C   UNL     1      26.783  44.360  51.800  1.00  0.00    -0.030 A 
HETATM   22  C   UNL     1      27.168  45.038  52.960  1.00  0.00     0.009 A 
HETATM   23  C   UNL     1      26.505  46.209  53.336  1.00  0.00     0.003 A 
HETATM   24  C   UNL     1      25.480  46.731  52.540  1.00  0.00     0.029 A 
BRANCH  21  25
HETATM   25  C   UNL     1      27.484  43.113  51.334  1.00  0.00     0.272 C 
BRANCH  25  26
HETATM   26  N   UNL     1      27.001  41.850  52.017  1.00  0.00    -0.075 N 
HETATM   27  C   UNL     1      27.981  41.283  53.013  1.00  0.00     0.269 C 
HETATM   28  H   UNL     1      26.164  42.113  52.550  1.00  0.00     0.279 HD
HETATM   29  C   UNL     1      26.594  40.811  51.011  1.00  0.00     0.269 C 
ENDBRANCH  25  26
ENDBRANCH  21  25
ENDBRANCH   1  19
TORSDOF 6
ENDMDL
MODEL 10
REMARK VINA RESULT:      -7.7      4.031      7.392
REMARK  6 active torsions:
REMARK  status: ('A' for Active; 'I' for Inactive)
REMARK    1  A    between atoms: N_2  and  C_4 
REMARK    2  A    between atoms: C_4  and  C_5 
REMARK    3  A    between atoms: C_7  and  N_8 
REMARK       I    between atoms: N_8  and  C_9 
REMARK    4  A    between atoms: C_9  and  C_10 
REMARK    5  A    between atoms: C_12  and  C_13 
REMARK    6  A    between atoms: C_20  and  C_21 
ROOT
HETATM    1  N   UNL     1      28.072  42.024  50.467  1.00  0.00    -0.322 N 
HETATM    2  C   UNL     1      27.596  41.783  51.748  1.00  0.00     0.277 C 
HETATM    3  O   UNL     1      26.859  40.851  52.060  1.00  0.00    -0.266 OA
HETATM    4  H   UNL     1      28.557  42.913  50.358  1.00  0.00     0.169 HD
ENDROOT
BRANCH   2   5
HETATM    5  C   UNL     1      28.035  42.798  52.699  1.00  0.00     0.157 A 
HETATM    6  N   UNL     1      28.961  42.531  53.704  1.00  0.00    -0.216 NA
HETATM    7  C   UNL     1      29.077  43.681  54.346  1.00  0.00     0.180 A 
HETATM    8  O   UNL     1      28.305  44.685  53.830  1.00  0.00    -0.293 OA
HETATM    9  C   UNL     1      27.640  44.120  52.778  1.00  0.00     0.094 A 
BRANCH   7  10
HETATM   10  C   UNL     1      29.892  44.024  55.509  1.00  0.00     0.017 A 
HETATM   11  C   UNL     1      30.882  43.136  55.957  1.00  0.00     0.016 A 
HETATM   12  C   UNL     1      31.668  43.445  57.071  1.00  0.00     0.001 A 
HETATM   13  C   UNL     1      31.473  44.645  57.752  1.00  0.00     0.000 A 
HETATM   14  C   UNL     1      30.495  45.537  57.320  1.00  0.00     0.001 A 
HETATM   15  C   UNL     1      29.709  45.228  56.206  1.00  0.00     0.016 A 
ENDBRANCH   7  10
BRANCH   9  16
HETATM   16  C   UNL     1      26.655  44.871  51.900  1.00  0.00     0.046 A 
HETATM   17  C   UNL     1      25.246  45.059  52.423  1.00  0.00     0.012 A 
HETATM   18  C   UNL     1      26.173  46.225  52.379  1.00  0.00     0.012 A 
ENDBRANCH   9  16
ENDBRANCH   2   5
BRANCH   1  19
HETATM   19  C   UNL     1      27.847  41.233  49.326  1.00  0.00     0.035 A 
HETATM   20  C   UNL     1      28.499  40.017  49.114  1.00  0.00     0.038 A 
HETATM   21  C   UNL     1      28.188  39.195  48.020  1.00  0.00    -0.030 A 
HETATM   22  C   UNL     1      27.237  39.636  47.095  1.00  0.00     0.009 A 
HETATM   23  C   UNL     1      26.625  40.880  47.265  1.00  0.00     0.003 A 
HETATM   24  C   UNL     1      26.930  41.677  48.374  1.00  0.00     0.029 A 
BRANCH  21  25
HETATM   25  C   UNL     1      28.853  37.851  47.901  1.00  0.00     0.272 C 
BRANCH  25  26
HETATM   26  N   UNL     1      27.939  36.686  48.229  1.00  0.00    -0.075 N 
HETATM   27  C   UNL     1      27.059  36.261  47.083  1.00  0.00     0.269 C 
HETATM   28  H   UNL     1      28.553  35.890  48.436  1.00  0.00     0.279 HD
HETATM   29  C   UNL     1      27.124  36.968  49.459  1.00  0.00     0.269 C 
ENDBRANCH  25  26
ENDBRANCH  21  25
ENDBRANCH   1  19
TORSDOF 6
ENDMDL
