MODEL 1
REMARK VINA RESULT:     -10.9      0.000      0.000
REMARK  7 active torsions:
REMARK  status: ('A' for Active; 'I' for Inactive)
REMARK    1  A    between atoms: C_3  and  C_4 
REMARK    2  A    between atoms: C_4  and  S_5 
REMARK    3  A    between atoms: S_5  and  C_6 
REMARK    4  A    between atoms: C_6  and  C_7 
REMARK    5  A    between atoms: C_16  and  C_17 
REMARK       I    between atoms: C_17  and  N_18 
REMARK    6  A    between atoms: N_18  and  C_19 
REMARK    7  A    between atoms: C_19  and  C_20 
ROOT
HETATM    1  C   UNL     1      26.091  44.797  51.974  1.00  0.00     0.162 C 
HETATM    2  N   UNL     1      26.820  45.636  50.983  1.00  0.00    -0.277 NA
HETATM    3  C   UNL     1      26.045  46.658  50.403  1.00  0.00     0.036 A 
HETATM    4  C   UNL     1      24.648  46.528  50.270  1.00  0.00     0.057 A 
HETATM    5  N   UNL     1      24.009  45.386  50.770  1.00  0.00    -0.324 N 
HETATM    6  C   UNL     1      24.685  44.420  51.474  1.00  0.00     0.240 C 
HETATM    7  O   UNL     1      24.143  43.349  51.746  1.00  0.00    -0.271 OA
HETATM    8  C   UNL     1      26.674  47.750  49.797  1.00  0.00     0.027 A 
HETATM    9  C   UNL     1      25.919  48.735  49.154  1.00  0.00     0.019 A 
HETATM   10  C   UNL     1      24.525  48.626  49.086  1.00  0.00     0.034 A 
HETATM   11  C   UNL     1      23.888  47.500  49.619  1.00  0.00     0.048 A 
HETATM   12  H   UNL     1      27.729  45.958  51.302  1.00  0.00     0.128 HD
HETATM   13  H   UNL     1      23.048  45.180  50.531  1.00  0.00     0.169 HD
ENDROOT
BRANCH  10  14
HETATM   14  C   UNL     1      23.757  49.704  48.408  1.00  0.00     0.252 C 
HETATM   15  N   UNL     1      22.643  50.159  49.074  1.00  0.00    -0.353 N 
HETATM   16  H   UNL     1      22.432  49.834  50.007  1.00  0.00     0.163 HD
HETATM   17  O   UNL     1      24.140  50.157  47.336  1.00  0.00    -0.268 OA
BRANCH  15  18
HETATM   18  C   UNL     1      21.776  51.149  48.482  1.00  0.00     0.163 C 
BRANCH  18  19
HETATM   19  C   UNL     1      20.327  50.861  48.782  1.00  0.00    -0.019 A 
HETATM   20  C   UNL     1      19.672  49.713  48.307  1.00  0.00     0.042 A 
HETATM   21 CL   UNL     1      20.483  48.534  47.338  1.00  0.00    -0.084 Cl
HETATM   22  C   UNL     1      18.330  49.476  48.624  1.00  0.00     0.024 A 
HETATM   23  C   UNL     1      17.628  50.378  49.422  1.00  0.00     0.002 A 
HETATM   24  C   UNL     1      18.266  51.518  49.905  1.00  0.00     0.001 A 
HETATM   25  C   UNL     1      19.605  51.756  49.591  1.00  0.00     0.010 A 
ENDBRANCH  18  19
ENDBRANCH  15  18
ENDBRANCH  10  14
BRANCH   1  26
HETATM   26  C   UNL     1      26.034  45.536  53.328  1.00  0.00     0.103 C 
BRANCH  26  27
HETATM   27  S   UNL     1      26.906  44.787  54.747  1.00  0.00    -0.162 SA
BRANCH  27  28
HETATM   28  C   UNL     1      28.538  45.579  54.579  1.00  0.00     0.112 C 
BRANCH  28  29
HETATM   29  C   UNL     1      29.519  45.029  55.590  1.00  0.00    -0.043 A 
HETATM   30  C   UNL     1      30.254  43.844  55.364  1.00  0.00    -0.055 A 
HETATM   31  C   UNL     1      30.126  43.057  54.087  1.00  0.00     0.049 C 
HETATM   32  C   UNL     1      31.145  43.390  56.352  1.00  0.00     0.007 A 
HETATM   33  C   UNL     1      31.296  44.080  57.553  1.00  0.00     0.001 A 
HETATM   34  C   UNL     1      30.560  45.237  57.786  1.00  0.00     0.001 A 
HETATM   35  C   UNL     1      29.679  45.707  56.813  1.00  0.00     0.008 A 
ENDBRANCH  28  29
ENDBRANCH  27  28
ENDBRANCH  26  27
ENDBRANCH   1  26
TORSDOF 7
ENDMDL
MODEL 2
REMARK VINA RESULT:     -10.5      1.931      2.559
REMARK  7 active torsions:
REMARK  status: ('A' for Active; 'I' for Inactive)
REMARK    1  A    between atoms: C_3  and  C_4 
REMARK    2  A    between atoms: C_4  and  S_5 
REMARK    3  A    between atoms: S_5  and  C_6 
REMARK    4  A    between atoms: C_6  and  C_7 
REMARK    5  A    between atoms: C_16  and  C_17 
REMARK       I    between atoms: C_17  and  N_18 
REMARK    6  A    between atoms: N_18  and  C_19 
REMARK    7  A    between atoms: C_19  and  C_20 
ROOT
HETATM    1  C   UNL     1      27.134  44.072  51.049  1.00  0.00     0.162 C 
HETATM    2  N   UNL     1      26.896  45.539  50.955  1.00  0.00    -0.277 NA
HETATM    3  C   UNL     1      25.683  45.894  50.334  1.00  0.00     0.036 A 
HETATM    4  C   UNL     1      25.083  45.056  49.374  1.00  0.00     0.057 A 
HETATM    5  N   UNL     1      25.674  43.823  49.066  1.00  0.00    -0.324 N 
HETATM    6  C   UNL     1      26.775  43.352  49.737  1.00  0.00     0.240 C 
HETATM    7  O   UNL     1      27.378  42.358  49.333  1.00  0.00    -0.271 OA
HETATM    8  C   UNL     1      25.142  47.166  50.542  1.00  0.00     0.027 A 
HETATM    9  C   UNL     1      23.977  47.557  49.876  1.00  0.00     0.019 A 
HETATM   10  C   UNL     1      23.354  46.688  48.971  1.00  0.00     0.034 A 
HETATM   11  C   UNL     1      23.928  45.443  48.694  1.00  0.00     0.048 A 
HETATM   12  H   UNL     1      27.062  46.042  51.822  1.00  0.00     0.128 HD
HETATM   13  H   UNL     1      25.374  43.289  48.261  1.00  0.00     0.169 HD
ENDROOT
BRANCH  10  14
HETATM   14  C   UNL     1      22.107  47.136  48.295  1.00  0.00     0.252 C 
HETATM   15  N   UNL     1      21.061  47.468  49.124  1.00  0.00    -0.353 N 
HETATM   16  H   UNL     1      21.184  47.490  50.126  1.00  0.00     0.163 HD
HETATM   17  O   UNL     1      22.061  47.222  47.074  1.00  0.00    -0.268 OA
BRANCH  15  18
HETATM   18  C   UNL     1      19.776  47.845  48.583  1.00  0.00     0.163 C 
BRANCH  18  19
HETATM   19  C   UNL     1      19.516  49.318  48.763  1.00  0.00    -0.019 A 
HETATM   20  C   UNL     1      19.006  49.856  49.956  1.00  0.00     0.042 A 
HETATM   21 CL   UNL     1      18.637  48.860  51.320  1.00  0.00    -0.084 Cl
HETATM   22  C   UNL     1      18.796  51.232  50.085  1.00  0.00     0.024 A 
HETATM   23  C   UNL     1      19.096  52.090  49.027  1.00  0.00     0.002 A 
HETATM   24  C   UNL     1      19.608  51.573  47.841  1.00  0.00     0.001 A 
HETATM   25  C   UNL     1      19.820  50.199  47.710  1.00  0.00     0.010 A 
ENDBRANCH  18  19
ENDBRANCH  15  18
ENDBRANCH  10  14
BRANCH   1  26
HETATM   26  C   UNL     1      26.343  43.501  52.246  1.00  0.00     0.103 C 
BRANCH  26  27
HETATM   27  S   UNL     1      27.279  43.034  53.743  1.00  0.00    -0.162 SA
BRANCH  27  28
HETATM   28  C   UNL     1      28.796  44.010  53.496  1.00  0.00     0.112 C 
BRANCH  28  29
HETATM   29  C   UNL     1      29.551  44.186  54.795  1.00  0.00    -0.043 A 
HETATM   30  C   UNL     1      29.411  45.337  55.602  1.00  0.00    -0.055 A 
HETATM   31  C   UNL     1      28.481  46.462  55.233  1.00  0.00     0.049 C 
HETATM   32  C   UNL     1      30.150  45.433  56.794  1.00  0.00     0.007 A 
HETATM   33  C   UNL     1      31.028  44.420  57.177  1.00  0.00     0.001 A 
HETATM   34  C   UNL     1      31.181  43.295  56.376  1.00  0.00     0.001 A 
HETATM   35  C   UNL     1      30.449  43.178  55.194  1.00  0.00     0.008 A 
ENDBRANCH  28  29
ENDBRANCH  27  28
ENDBRANCH  26  27
ENDBRANCH   1  26
TORSDOF 7
ENDMDL
MODEL 3
REMARK VINA RESULT:      -9.9      1.842      2.490
REMARK  7 active torsions:
REMARK  status: ('A' for Active; 'I' for Inactive)
REMARK    1  A    between atoms: C_3  and  C_4 
REMARK    2  A    between atoms: C_4  and  S_5 
REMARK    3  A    between atoms: S_5  and  C_6 
REMARK    4  A    between atoms: C_6  and  C_7 
REMARK    5  A    between atoms: C_16  and  C_17 
REMARK       I    between atoms: C_17  and  N_18 
REMARK    6  A    between atoms: N_18  and  C_19 
REMARK    7  A    between atoms: C_19  and  C_20 
ROOT
HETATM    1  C   UNL     1      26.899  43.403  50.774  1.00  0.00     0.162 C 
HETATM    2  N   UNL     1      27.313  44.663  50.096  1.00  0.00    -0.277 NA
HETATM    3  C   UNL     1      26.297  45.633  49.997  1.00  0.00     0.036 A 
HETATM    4  C   UNL     1      24.939  45.264  49.950  1.00  0.00     0.057 A 
HETATM    5  N   UNL     1      24.585  43.912  50.054  1.00  0.00    -0.324 N 
HETATM    6  C   UNL     1      25.514  42.930  50.297  1.00  0.00     0.240 C 
HETATM    7  O   UNL     1      25.208  41.742  50.207  1.00  0.00    -0.271 OA
HETATM    8  C   UNL     1      26.634  46.972  49.777  1.00  0.00     0.027 A 
HETATM    9  C   UNL     1      25.634  47.934  49.605  1.00  0.00     0.019 A 
HETATM   10  C   UNL     1      24.284  47.562  49.625  1.00  0.00     0.034 A 
HETATM   11  C   UNL     1      23.935  46.215  49.766  1.00  0.00     0.048 A 
HETATM   12  H   UNL     1      28.195  45.042  50.429  1.00  0.00     0.128 HD
HETATM   13  H   UNL     1      23.646  43.601  49.842  1.00  0.00     0.169 HD
ENDROOT
BRANCH  10  14
HETATM   14  C   UNL     1      23.250  48.618  49.455  1.00  0.00     0.252 C 
HETATM   15  N   UNL     1      21.955  48.175  49.322  1.00  0.00    -0.353 N 
HETATM   16  H   UNL     1      21.731  47.196  49.432  1.00  0.00     0.163 HD
HETATM   17  O   UNL     1      23.566  49.802  49.468  1.00  0.00    -0.268 OA
BRANCH  15  18
HETATM   18  C   UNL     1      20.875  49.101  49.077  1.00  0.00     0.163 C 
BRANCH  18  19
HETATM   19  C   UNL     1      19.626  48.382  48.635  1.00  0.00    -0.019 A 
HETATM   20  C   UNL     1      18.566  48.102  49.512  1.00  0.00     0.042 A 
HETATM   21 CL   UNL     1      18.612  48.567  51.176  1.00  0.00    -0.084 Cl
HETATM   22  C   UNL     1      17.417  47.448  49.055  1.00  0.00     0.024 A 
HETATM   23  C   UNL     1      17.311  47.069  47.718  1.00  0.00     0.002 A 
HETATM   24  C   UNL     1      18.351  47.345  46.835  1.00  0.00     0.001 A 
HETATM   25  C   UNL     1      19.498  47.999  47.288  1.00  0.00     0.010 A 
ENDBRANCH  18  19
ENDBRANCH  15  18
ENDBRANCH  10  14
BRANCH   1  26
HETATM   26  C   UNL     1      26.934  43.609  52.303  1.00  0.00     0.103 C 
BRANCH  26  27
HETATM   27  S   UNL     1      28.486  43.219  53.182  1.00  0.00    -0.162 SA
BRANCH  27  28
HETATM   28  C   UNL     1      28.684  44.730  54.178  1.00  0.00     0.112 C 
BRANCH  28  29
HETATM   29  C   UNL     1      29.609  44.495  55.351  1.00  0.00    -0.043 A 
HETATM   30  C   UNL     1      29.576  45.296  56.514  1.00  0.00    -0.055 A 
HETATM   31  C   UNL     1      28.598  46.430  56.674  1.00  0.00     0.049 C 
HETATM   32  C   UNL     1      30.470  45.021  57.563  1.00  0.00     0.007 A 
HETATM   33  C   UNL     1      31.398  43.986  57.462  1.00  0.00     0.001 A 
HETATM   34  C   UNL     1      31.446  43.207  56.311  1.00  0.00     0.001 A 
HETATM   35  C   UNL     1      30.559  43.460  55.264  1.00  0.00     0.008 A 
ENDBRANCH  28  29
ENDBRANCH  27  28
ENDBRANCH  26  27
ENDBRANCH   1  26
TORSDOF 7
ENDMDL
MODEL 4
REMARK VINA RESULT:      -9.9      2.035      2.900
REMARK  7 active torsions:
REMARK  status: ('A' for Active; 'I' for Inactive)
REMARK    1  A    between atoms: C_3  and  C_4 
REMARK    2  A    between atoms: C_4  and  S_5 
REMARK    3  A    between atoms: S_5  and  C_6 
REMARK    4  A    between atoms: C_6  and  C_7 
REMARK    5  A    between atoms: C_16  and  C_17 
REMARK       I    between atoms: C_17  and  N_18 
REMARK    6  A    between atoms: N_18  and  C_19 
REMARK    7  A    between atoms: C_19  and  C_20 
ROOT
HETATM    1  C   UNL     1      26.832  42.776  53.287  1.00  0.00     0.162 C 
HETATM    2  N   UNL     1      26.261  42.641  51.918  1.00  0.00    -0.277 NA
HETATM    3  C   UNL     1      25.820  43.851  51.349  1.00  0.00     0.036 A 
HETATM    4  C   UNL     1      25.379  44.918  52.156  1.00  0.00     0.057 A 
HETATM    5  N   UNL     1      25.425  44.796  53.551  1.00  0.00    -0.324 N 
HETATM    6  C   UNL     1      25.978  43.702  54.171  1.00  0.00     0.240 C 
HETATM    7  O   UNL     1      25.847  43.537  55.383  1.00  0.00    -0.271 OA
HETATM    8  C   UNL     1      25.658  43.949  49.964  1.00  0.00     0.027 A 
HETATM    9  C   UNL     1      25.153  45.120  49.391  1.00  0.00     0.019 A 
HETATM   10  C   UNL     1      24.779  46.199  50.202  1.00  0.00     0.034 A 
HETATM   11  C   UNL     1      24.861  46.086  51.594  1.00  0.00     0.048 A 
HETATM   12  H   UNL     1      26.830  42.086  51.285  1.00  0.00     0.128 HD
HETATM   13  H   UNL     1      24.952  45.461  54.148  1.00  0.00     0.169 HD
ENDROOT
BRANCH  10  14
HETATM   14  C   UNL     1      24.261  47.433  49.553  1.00  0.00     0.252 C 
HETATM   15  N   UNL     1      23.081  47.298  48.860  1.00  0.00    -0.353 N 
HETATM   16  H   UNL     1      22.566  46.429  48.884  1.00  0.00     0.163 HD
HETATM   17  O   UNL     1      24.860  48.495  49.675  1.00  0.00    -0.268 OA
BRANCH  15  18
HETATM   18  C   UNL     1      22.519  48.407  48.126  1.00  0.00     0.163 C 
BRANCH  18  19
HETATM   19  C   UNL     1      21.442  49.101  48.920  1.00  0.00    -0.019 A 
HETATM   20  C   UNL     1      21.577  50.419  49.385  1.00  0.00     0.042 A 
HETATM   21 CL   UNL     1      22.999  51.353  49.078  1.00  0.00    -0.084 Cl
HETATM   22  C   UNL     1      20.545  51.031  50.103  1.00  0.00     0.024 A 
HETATM   23  C   UNL     1      19.364  50.337  50.363  1.00  0.00     0.002 A 
HETATM   24  C   UNL     1      19.213  49.032  49.903  1.00  0.00     0.001 A 
HETATM   25  C   UNL     1      20.241  48.419  49.184  1.00  0.00     0.010 A 
ENDBRANCH  18  19
ENDBRANCH  15  18
ENDBRANCH  10  14
BRANCH   1  26
HETATM   26  C   UNL     1      28.290  43.271  53.187  1.00  0.00     0.103 C 
BRANCH  26  27
HETATM   27  S   UNL     1      29.535  42.485  54.268  1.00  0.00    -0.162 SA
BRANCH  27  28
HETATM   28  C   UNL     1      30.644  43.898  54.567  1.00  0.00     0.112 C 
BRANCH  28  29
HETATM   29  C   UNL     1      30.297  44.601  55.861  1.00  0.00    -0.043 A 
HETATM   30  C   UNL     1      30.977  44.338  57.071  1.00  0.00    -0.055 A 
HETATM   31  C   UNL     1      32.111  43.352  57.150  1.00  0.00     0.049 C 
HETATM   32  C   UNL     1      30.596  45.027  58.235  1.00  0.00     0.007 A 
HETATM   33  C   UNL     1      29.549  45.947  58.215  1.00  0.00     0.001 A 
HETATM   34  C   UNL     1      28.866  46.194  57.029  1.00  0.00     0.001 A 
HETATM   35  C   UNL     1      29.236  45.527  55.862  1.00  0.00     0.008 A 
ENDBRANCH  28  29
ENDBRANCH  27  28
ENDBRANCH  26  27
ENDBRANCH   1  26
TORSDOF 7
ENDMDL
MODEL 5
REMARK VINA RESULT:      -9.8      2.106      2.990
REMARK  7 active torsions:
REMARK  status: ('A' for Active; 'I' for Inactive)
REMARK    1  A    between atoms: C_3  and  C_4 
REMARK    2  A    between atoms: C_4  and  S_5 
REMARK    3  A    between atoms: S_5  and  C_6 
REMARK    4  A    between atoms: C_6  and  C_7 
REMARK    5  A    between atoms: C_16  and  C_17 
REMARK       I    between atoms: C_17  and  N_18 
REMARK    6  A    between atoms: N_18  and  C_19 
REMARK    7  A    between atoms: C_19  and  C_20 
ROOT
HETATM    1  C   UNL     1      26.749  43.191  49.905  1.00  0.00     0.162 C 
HETATM    2  N   UNL     1      27.239  44.573  49.642  1.00  0.00    -0.277 NA
HETATM    3  C   UNL     1      26.234  45.559  49.647  1.00  0.00     0.036 A 
HETATM    4  C   UNL     1      24.903  45.245  49.308  1.00  0.00     0.057 A 
HETATM    5  N   UNL     1      24.559  43.920  49.009  1.00  0.00    -0.324 N 
HETATM    6  C   UNL     1      25.457  42.887  49.125  1.00  0.00     0.240 C 
HETATM    7  O   UNL     1      25.186  41.769  48.689  1.00  0.00    -0.271 OA
HETATM    8  C   UNL     1      26.578  46.901  49.829  1.00  0.00     0.027 A 
HETATM    9  C   UNL     1      25.599  47.898  49.766  1.00  0.00     0.019 A 
HETATM   10  C   UNL     1      24.267  47.564  49.492  1.00  0.00     0.034 A 
HETATM   11  C   UNL     1      23.922  46.234  49.229  1.00  0.00     0.048 A 
HETATM   12  H   UNL     1      28.056  44.833  50.186  1.00  0.00     0.128 HD
HETATM   13  H   UNL     1      23.667  43.696  48.589  1.00  0.00     0.169 HD
ENDROOT
BRANCH  10  14
HETATM   14  C   UNL     1      23.254  48.652  49.448  1.00  0.00     0.252 C 
HETATM   15  N   UNL     1      21.941  48.248  49.375  1.00  0.00    -0.353 N 
HETATM   16  H   UNL     1      21.699  47.270  49.444  1.00  0.00     0.163 HD
HETATM   17  O   UNL     1      23.601  49.825  49.507  1.00  0.00    -0.268 OA
BRANCH  15  18
HETATM   18  C   UNL     1      20.873  49.211  49.252  1.00  0.00     0.163 C 
BRANCH  18  19
HETATM   19  C   UNL     1      19.583  48.550  48.839  1.00  0.00    -0.019 A 
HETATM   20  C   UNL     1      18.539  48.301  49.744  1.00  0.00     0.042 A 
HETATM   21 CL   UNL     1      18.654  48.738  51.412  1.00  0.00    -0.084 Cl
HETATM   22  C   UNL     1      17.351  47.700  49.314  1.00  0.00     0.024 A 
HETATM   23  C   UNL     1      17.189  47.345  47.975  1.00  0.00     0.002 A 
HETATM   24  C   UNL     1      18.213  47.592  47.065  1.00  0.00     0.001 A 
HETATM   25  C   UNL     1      19.399  48.193  47.492  1.00  0.00     0.010 A 
ENDBRANCH  18  19
ENDBRANCH  15  18
ENDBRANCH  10  14
BRANCH   1  26
HETATM   26  C   UNL     1      26.554  42.998  51.424  1.00  0.00     0.103 C 
BRANCH  26  27
HETATM   27  S   UNL     1      28.042  42.730  52.448  1.00  0.00    -0.162 SA
BRANCH  27  28
HETATM   28  C   UNL     1      27.390  43.170  54.090  1.00  0.00     0.112 C 
BRANCH  28  29
HETATM   29  C   UNL     1      27.588  44.641  54.381  1.00  0.00    -0.043 A 
HETATM   30  C   UNL     1      28.761  45.141  54.988  1.00  0.00    -0.055 A 
HETATM   31  C   UNL     1      29.907  44.242  55.369  1.00  0.00     0.049 C 
HETATM   32  C   UNL     1      28.873  46.521  55.233  1.00  0.00     0.007 A 
HETATM   33  C   UNL     1      27.838  47.394  54.904  1.00  0.00     0.001 A 
HETATM   34  C   UNL     1      26.674  46.902  54.323  1.00  0.00     0.001 A 
HETATM   35  C   UNL     1      26.550  45.537  54.064  1.00  0.00     0.008 A 
ENDBRANCH  28  29
ENDBRANCH  27  28
ENDBRANCH  26  27
ENDBRANCH   1  26
TORSDOF 7
ENDMDL
MODEL 6
REMARK VINA RESULT:      -9.6      3.422     10.962
REMARK  7 active torsions:
REMARK  status: ('A' for Active; 'I' for Inactive)
REMARK    1  A    between atoms: C_3  and  C_4 
REMARK    2  A    between atoms: C_4  and  S_5 
REMARK    3  A    between atoms: S_5  and  C_6 
REMARK    4  A    between atoms: C_6  and  C_7 
REMARK    5  A    between atoms: C_16  and  C_17 
REMARK       I    between atoms: C_17  and  N_18 
REMARK    6  A    between atoms: N_18  and  C_19 
REMARK    7  A    between atoms: C_19  and  C_20 
ROOT
HETATM    1  C   UNL     1      22.602  47.168  48.067  1.00  0.00     0.162 C 
HETATM    2  N   UNL     1      23.164  45.843  48.449  1.00  0.00    -0.277 NA
HETATM    3  C   UNL     1      23.751  45.806  49.728  1.00  0.00     0.036 A 
HETATM    4  C   UNL     1      24.311  46.962  50.307  1.00  0.00     0.057 A 
HETATM    5  N   UNL     1      24.238  48.183  49.624  1.00  0.00    -0.324 N 
HETATM    6  C   UNL     1      23.553  48.318  48.441  1.00  0.00     0.240 C 
HETATM    7  O   UNL     1      23.653  49.348  47.774  1.00  0.00    -0.271 OA
HETATM    8  C   UNL     1      23.936  44.579  50.373  1.00  0.00     0.027 A 
HETATM    9  C   UNL     1      24.583  44.521  51.611  1.00  0.00     0.019 A 
HETATM   10  C   UNL     1      25.077  45.688  52.207  1.00  0.00     0.034 A 
HETATM   11  C   UNL     1      24.969  46.911  51.536  1.00  0.00     0.048 A 
HETATM   12  H   UNL     1      22.538  45.062  48.275  1.00  0.00     0.128 HD
HETATM   13  H   UNL     1      24.782  48.980  49.923  1.00  0.00     0.169 HD
ENDROOT
BRANCH  10  14
HETATM   14  C   UNL     1      25.744  45.585  53.532  1.00  0.00     0.252 C 
HETATM   15  N   UNL     1      26.935  46.261  53.659  1.00  0.00    -0.353 N 
HETATM   16  H   UNL     1      27.269  46.860  52.917  1.00  0.00     0.163 HD
HETATM   17  O   UNL     1      25.221  44.954  54.442  1.00  0.00    -0.268 OA
BRANCH  15  18
HETATM   18  C   UNL     1      27.713  46.175  54.872  1.00  0.00     0.163 C 
BRANCH  18  19
HETATM   19  C   UNL     1      28.753  45.088  54.781  1.00  0.00    -0.019 A 
HETATM   20  C   UNL     1      29.756  44.920  55.750  1.00  0.00     0.042 A 
HETATM   21 CL   UNL     1      29.872  45.953  57.130  1.00  0.00    -0.084 Cl
HETATM   22  C   UNL     1      30.691  43.886  55.635  1.00  0.00     0.024 A 
HETATM   23  C   UNL     1      30.635  43.006  54.555  1.00  0.00     0.002 A 
HETATM   24  C   UNL     1      29.643  43.156  53.590  1.00  0.00     0.001 A 
HETATM   25  C   UNL     1      28.707  44.186  53.704  1.00  0.00     0.010 A 
ENDBRANCH  18  19
ENDBRANCH  15  18
ENDBRANCH  10  14
BRANCH   1  26
HETATM   26  C   UNL     1      21.214  47.343  48.720  1.00  0.00     0.103 C 
BRANCH  26  27
HETATM   27  S   UNL     1      19.789  47.667  47.624  1.00  0.00    -0.162 SA
BRANCH  27  28
HETATM   28  C   UNL     1      20.063  49.427  47.248  1.00  0.00     0.112 C 
BRANCH  28  29
HETATM   29  C   UNL     1      19.183  50.313  48.102  1.00  0.00    -0.043 A 
HETATM   30  C   UNL     1      19.699  51.104  49.152  1.00  0.00    -0.055 A 
HETATM   31  C   UNL     1      21.168  51.137  49.479  1.00  0.00     0.049 C 
HETATM   32  C   UNL     1      18.819  51.899  49.907  1.00  0.00     0.007 A 
HETATM   33  C   UNL     1      17.450  51.900  49.647  1.00  0.00     0.001 A 
HETATM   34  C   UNL     1      16.937  51.108  48.626  1.00  0.00     0.001 A 
HETATM   35  C   UNL     1      17.797  50.320  47.860  1.00  0.00     0.008 A 
ENDBRANCH  28  29
ENDBRANCH  27  28
ENDBRANCH  26  27
ENDBRANCH   1  26
TORSDOF 7
ENDMDL
MODEL 7
REMARK VINA RESULT:      -9.5      2.081      3.037
REMARK  7 active torsions:
REMARK  status: ('A' for Active; 'I' for Inactive)
REMARK    1  A    between atoms: C_3  and  C_4 
REMARK    2  A    between atoms: C_4  and  S_5 
REMARK    3  A    between atoms: S_5  and  C_6 
REMARK    4  A    between atoms: C_6  and  C_7 
REMARK    5  A    between atoms: C_16  and  C_17 
REMARK       I    between atoms: C_17  and  N_18 
REMARK    6  A    between atoms: N_18  and  C_19 
REMARK    7  A    between atoms: C_19  and  C_20 
ROOT
HETATM    1  C   UNL     1      26.037  46.868  50.662  1.00  0.00     0.162 C 
HETATM    2  N   UNL     1      25.679  48.119  49.937  1.00  0.00    -0.277 NA
HETATM    3  C   UNL     1      24.346  48.170  49.486  1.00  0.00     0.036 A 
HETATM    4  C   UNL     1      23.633  46.993  49.183  1.00  0.00     0.057 A 
HETATM    5  N   UNL     1      24.241  45.746  49.380  1.00  0.00    -0.324 N 
HETATM    6  C   UNL     1      25.483  45.620  49.952  1.00  0.00     0.240 C 
HETATM    7  O   UNL     1      26.066  44.537  49.951  1.00  0.00    -0.271 OA
HETATM    8  C   UNL     1      23.765  49.402  49.174  1.00  0.00     0.027 A 
HETATM    9  C   UNL     1      22.467  49.462  48.658  1.00  0.00     0.019 A 
HETATM   10  C   UNL     1      21.744  48.286  48.422  1.00  0.00     0.034 A 
HETATM   11  C   UNL     1      22.343  47.043  48.655  1.00  0.00     0.048 A 
HETATM   12  H   UNL     1      25.974  48.969  50.407  1.00  0.00     0.128 HD
HETATM   13  H   UNL     1      23.830  44.902  49.005  1.00  0.00     0.169 HD
ENDROOT
BRANCH  10  14
HETATM   14  C   UNL     1      20.361  48.393  47.888  1.00  0.00     0.252 C 
HETATM   15  N   UNL     1      19.962  49.652  47.503  1.00  0.00    -0.353 N 
HETATM   16  H   UNL     1      20.615  50.422  47.503  1.00  0.00     0.163 HD
HETATM   17  O   UNL     1      19.658  47.395  47.782  1.00  0.00    -0.268 OA
BRANCH  15  18
HETATM   18  C   UNL     1      18.616  49.895  47.039  1.00  0.00     0.163 C 
BRANCH  18  19
HETATM   19  C   UNL     1      17.861  50.788  47.990  1.00  0.00    -0.019 A 
HETATM   20  C   UNL     1      16.458  50.825  48.039  1.00  0.00     0.042 A 
HETATM   21 CL   UNL     1      15.484  49.839  47.007  1.00  0.00    -0.084 Cl
HETATM   22  C   UNL     1      15.798  51.656  48.949  1.00  0.00     0.024 A 
HETATM   23  C   UNL     1      16.529  52.458  49.824  1.00  0.00     0.002 A 
HETATM   24  C   UNL     1      17.921  52.429  49.792  1.00  0.00     0.001 A 
HETATM   25  C   UNL     1      18.582  51.598  48.885  1.00  0.00     0.010 A 
ENDBRANCH  18  19
ENDBRANCH  15  18
ENDBRANCH  10  14
BRANCH   1  26
HETATM   26  C   UNL     1      25.538  46.961  52.120  1.00  0.00     0.103 C 
BRANCH  26  27
HETATM   27  S   UNL     1      25.744  45.495  53.189  1.00  0.00    -0.162 SA
BRANCH  27  28
HETATM   28  C   UNL     1      27.148  46.036  54.215  1.00  0.00     0.112 C 
BRANCH  28  29
HETATM   29  C   UNL     1      28.236  44.985  54.252  1.00  0.00    -0.043 A 
HETATM   30  C   UNL     1      29.197  44.927  55.285  1.00  0.00    -0.055 A 
HETATM   31  C   UNL     1      29.191  45.898  56.435  1.00  0.00     0.049 C 
HETATM   32  C   UNL     1      30.182  43.925  55.250  1.00  0.00     0.007 A 
HETATM   33  C   UNL     1      30.233  43.006  54.203  1.00  0.00     0.001 A 
HETATM   34  C   UNL     1      29.300  43.072  53.175  1.00  0.00     0.001 A 
HETATM   35  C   UNL     1      28.309  44.054  53.199  1.00  0.00     0.008 A 
ENDBRANCH  28  29
ENDBRANCH  27  28
ENDBRANCH  26  27
ENDBRANCH   1  26
TORSDOF 7
ENDMDL
MODEL 8
REMARK VINA RESULT:      -9.4      4.655      6.467
REMARK  7 active torsions:
REMARK  status: ('A' for Active; 'I' for Inactive)
REMARK    1  A    between atoms: C_3  and  C_4 
REMARK    2  A    between atoms: C_4  and  S_5 
REMARK    3  A    between atoms: S_5  and  C_6 
REMARK    4  A    between atoms: C_6  and  C_7 
REMARK    5  A    between atoms: C_16  and  C_17 
REMARK       I    between atoms: C_17  and  N_18 
REMARK    6  A    between atoms: N_18  and  C_19 
REMARK    7  A    between atoms: C_19  and  C_20 
ROOT
HETATM    1  C   UNL     1      24.782  43.598  49.229  1.00  0.00     0.162 C 
HETATM    2  N   UNL     1      24.236  43.656  47.845  1.00  0.00    -0.277 NA
HETATM    3  C   UNL     1      23.123  44.505  47.693  1.00  0.00     0.036 A 
HETATM    4  C   UNL     1      22.250  44.762  48.768  1.00  0.00     0.057 A 
HETATM    5  N   UNL     1      22.519  44.206  50.026  1.00  0.00    -0.324 N 
HETATM    6  C   UNL     1      23.662  43.489  50.279  1.00  0.00     0.240 C 
HETATM    7  O   UNL     1      23.790  42.864  51.331  1.00  0.00    -0.271 OA
HETATM    8  C   UNL     1      22.775  44.975  46.423  1.00  0.00     0.027 A 
HETATM    9  C   UNL     1      21.631  45.760  46.247  1.00  0.00     0.019 A 
HETATM   10  C   UNL     1      20.806  46.062  47.338  1.00  0.00     0.034 A 
HETATM   11  C   UNL     1      21.100  45.533  48.600  1.00  0.00     0.048 A 
HETATM   12  H   UNL     1      24.941  43.792  47.126  1.00  0.00     0.128 HD
HETATM   13  H   UNL     1      21.824  44.220  50.761  1.00  0.00     0.169 HD
ENDROOT
BRANCH  10  14
HETATM   14  C   UNL     1      19.608  46.913  47.112  1.00  0.00     0.252 C 
HETATM   15  N   UNL     1      19.096  47.537  48.226  1.00  0.00    -0.353 N 
HETATM   16  H   UNL     1      19.575  47.483  49.113  1.00  0.00     0.163 HD
HETATM   17  O   UNL     1      19.150  47.052  45.984  1.00  0.00    -0.268 OA
BRANCH  15  18
HETATM   18  C   UNL     1      17.891  48.328  48.145  1.00  0.00     0.163 C 
BRANCH  18  19
HETATM   19  C   UNL     1      18.177  49.789  48.384  1.00  0.00    -0.019 A 
HETATM   20  C   UNL     1      18.561  50.288  49.639  1.00  0.00     0.042 A 
HETATM   21 CL   UNL     1      18.737  49.258  51.015  1.00  0.00    -0.084 Cl
HETATM   22  C   UNL     1      18.833  51.649  49.811  1.00  0.00     0.024 A 
HETATM   23  C   UNL     1      18.730  52.527  48.733  1.00  0.00     0.002 A 
HETATM   24  C   UNL     1      18.357  52.046  47.482  1.00  0.00     0.001 A 
HETATM   25  C   UNL     1      18.086  50.688  47.307  1.00  0.00     0.010 A 
ENDBRANCH  18  19
ENDBRANCH  15  18
ENDBRANCH  10  14
BRANCH   1  26
HETATM   26  C   UNL     1      25.677  44.831  49.479  1.00  0.00     0.103 C 
BRANCH  26  27
HETATM   27  S   UNL     1      25.009  46.175  50.519  1.00  0.00    -0.162 SA
BRANCH  27  28
HETATM   28  C   UNL     1      25.699  47.625  49.661  1.00  0.00     0.112 C 
BRANCH  28  29
HETATM   29  C   UNL     1      24.603  48.543  49.169  1.00  0.00    -0.043 A 
HETATM   30  C   UNL     1      24.871  49.696  48.398  1.00  0.00    -0.055 A 
HETATM   31  C   UNL     1      26.269  50.078  47.994  1.00  0.00     0.049 C 
HETATM   32  C   UNL     1      23.801  50.506  47.981  1.00  0.00     0.007 A 
HETATM   33  C   UNL     1      22.488  50.198  48.333  1.00  0.00     0.001 A 
HETATM   34  C   UNL     1      22.223  49.074  49.108  1.00  0.00     0.001 A 
HETATM   35  C   UNL     1      23.272  48.253  49.523  1.00  0.00     0.008 A 
ENDBRANCH  28  29
ENDBRANCH  27  28
ENDBRANCH  26  27
ENDBRANCH   1  26
TORSDOF 7
ENDMDL
MODEL 9
REMARK VINA RESULT:      -9.4      3.998      9.144
REMARK  7 active torsions:
REMARK  status: ('A' for Active; 'I' for Inactive)
REMARK    1  A    between atoms: C_3  and  C_4 
REMARK    2  A    between atoms: C_4  and  S_5 
REMARK    3  A    between atoms: S_5  and  C_6 
REMARK    4  A    between atoms: C_6  and  C_7 
REMARK    5  A    between atoms: C_16  and  C_17 
REMARK       I    between atoms: C_17  and  N_18 
REMARK    6  A    between atoms: N_18  and  C_19 
REMARK    7  A    between atoms: C_19  and  C_20 
ROOT
HETATM    1  C   UNL     1      21.260  44.972  47.571  1.00  0.00     0.162 C 
HETATM    2  N   UNL     1      21.390  43.823  48.510  1.00  0.00    -0.277 NA
HETATM    3  C   UNL     1      22.649  43.717  49.130  1.00  0.00     0.036 A 
HETATM    4  C   UNL     1      23.813  44.205  48.504  1.00  0.00     0.057 A 
HETATM    5  N   UNL     1      23.714  44.853  47.266  1.00  0.00    -0.324 N 
HETATM    6  C   UNL     1      22.502  45.118  46.675  1.00  0.00     0.240 C 
HETATM    7  O   UNL     1      22.447  45.524  45.515  1.00  0.00    -0.271 OA
HETATM    8  C   UNL     1      22.785  42.974  50.306  1.00  0.00     0.027 A 
HETATM    9  C   UNL     1      24.042  42.801  50.894  1.00  0.00     0.019 A 
HETATM   10  C   UNL     1      25.183  43.348  50.295  1.00  0.00     0.034 A 
HETATM   11  C   UNL     1      25.073  44.026  49.076  1.00  0.00     0.048 A 
HETATM   12  H   UNL     1      20.616  43.730  49.161  1.00  0.00     0.128 HD
HETATM   13  H   UNL     1      24.537  45.049  46.713  1.00  0.00     0.169 HD
ENDROOT
BRANCH  10  14
HETATM   14  C   UNL     1      26.500  43.155  50.960  1.00  0.00     0.252 C 
HETATM   15  N   UNL     1      26.480  43.132  52.335  1.00  0.00    -0.353 N 
HETATM   16  H   UNL     1      25.605  43.151  52.838  1.00  0.00     0.163 HD
HETATM   17  O   UNL     1      27.514  42.999  50.292  1.00  0.00    -0.268 OA
BRANCH  15  18
HETATM   18  C   UNL     1      27.704  43.026  53.094  1.00  0.00     0.163 C 
BRANCH  18  19
HETATM   19  C   UNL     1      27.958  44.273  53.901  1.00  0.00    -0.019 A 
HETATM   20  C   UNL     1      29.046  44.394  54.781  1.00  0.00     0.042 A 
HETATM   21 CL   UNL     1      30.186  43.114  55.003  1.00  0.00    -0.084 Cl
HETATM   22  C   UNL     1      29.254  45.577  55.498  1.00  0.00     0.024 A 
HETATM   23  C   UNL     1      28.382  46.654  55.343  1.00  0.00     0.002 A 
HETATM   24  C   UNL     1      27.303  46.551  54.471  1.00  0.00     0.001 A 
HETATM   25  C   UNL     1      27.094  45.372  53.752  1.00  0.00     0.010 A 
ENDBRANCH  18  19
ENDBRANCH  15  18
ENDBRANCH  10  14
BRANCH   1  26
HETATM   26  C   UNL     1      20.983  46.260  48.374  1.00  0.00     0.103 C 
BRANCH  26  27
HETATM   27  S   UNL     1      21.489  47.852  47.636  1.00  0.00    -0.162 SA
BRANCH  27  28
HETATM   28  C   UNL     1      22.102  48.716  49.117  1.00  0.00     0.112 C 
BRANCH  28  29
HETATM   29  C   UNL     1      23.612  48.676  49.188  1.00  0.00    -0.043 A 
HETATM   30  C   UNL     1      24.426  49.632  48.541  1.00  0.00    -0.055 A 
HETATM   31  C   UNL     1      23.842  50.772  47.751  1.00  0.00     0.049 C 
HETATM   32  C   UNL     1      25.824  49.528  48.647  1.00  0.00     0.007 A 
HETATM   33  C   UNL     1      26.413  48.487  49.363  1.00  0.00     0.001 A 
HETATM   34  C   UNL     1      25.615  47.534  49.985  1.00  0.00     0.001 A 
HETATM   35  C   UNL     1      24.226  47.627  49.899  1.00  0.00     0.008 A 
ENDBRANCH  28  29
ENDBRANCH  27  28
ENDBRANCH  26  27
ENDBRANCH   1  26
TORSDOF 7
ENDMDL
MODEL 10
REMARK VINA RESULT:      -9.4      3.441     10.999
REMARK  7 active torsions:
REMARK  status: ('A' for Active; 'I' for Inactive)
REMARK    1  A    between atoms: C_3  and  C_4 
REMARK    2  A    between atoms: C_4  and  S_5 
REMARK    3  A    between atoms: S_5  and  C_6 
REMARK    4  A    between atoms: C_6  and  C_7 
REMARK    5  A    between atoms: C_16  and  C_17 
REMARK       I    between atoms: C_17  and  N_18 
REMARK    6  A    between atoms: N_18  and  C_19 
REMARK    7  A    between atoms: C_19  and  C_20 
ROOT
HETATM    1  C   UNL     1      21.749  48.564  47.717  1.00  0.00     0.162 C 
HETATM    2  N   UNL     1      22.102  47.155  47.388  1.00  0.00    -0.277 NA
HETATM    3  C   UNL     1      22.796  46.475  48.406  1.00  0.00     0.036 A 
HETATM    4  C   UNL     1      23.606  47.169  49.326  1.00  0.00     0.057 A 
HETATM    5  N   UNL     1      23.684  48.567  49.261  1.00  0.00    -0.324 N 
HETATM    6  C   UNL     1      22.922  49.302  48.387  1.00  0.00     0.240 C 
HETATM    7  O   UNL     1      23.136  50.503  48.226  1.00  0.00    -0.271 OA
HETATM    8  C   UNL     1      22.823  45.077  48.415  1.00  0.00     0.027 A 
HETATM    9  C   UNL     1      23.567  44.389  49.378  1.00  0.00     0.019 A 
HETATM   10  C   UNL     1      24.317  45.094  50.328  1.00  0.00     0.034 A 
HETATM   11  C   UNL     1      24.363  46.491  50.282  1.00  0.00     0.048 A 
HETATM   12  H   UNL     1      21.333  46.616  47.000  1.00  0.00     0.128 HD
HETATM   13  H   UNL     1      24.388  49.073  49.781  1.00  0.00     0.169 HD
ENDROOT
BRANCH  10  14
HETATM   14  C   UNL     1      25.082  44.325  51.346  1.00  0.00     0.252 C 
HETATM   15  N   UNL     1      26.382  44.727  51.550  1.00  0.00    -0.353 N 
HETATM   16  H   UNL     1      26.743  45.554  51.096  1.00  0.00     0.163 HD
HETATM   17  O   UNL     1      24.547  43.415  51.967  1.00  0.00    -0.268 OA
BRANCH  15  18
HETATM   18  C   UNL     1      27.247  44.011  52.457  1.00  0.00     0.163 C 
BRANCH  18  19
HETATM   19  C   UNL     1      27.669  44.881  53.614  1.00  0.00    -0.019 A 
HETATM   20  C   UNL     1      28.745  44.550  54.453  1.00  0.00     0.042 A 
HETATM   21 CL   UNL     1      29.676  43.113  54.220  1.00  0.00    -0.084 Cl
HETATM   22  C   UNL     1      29.113  45.395  55.505  1.00  0.00     0.024 A 
HETATM   23  C   UNL     1      28.416  46.581  55.730  1.00  0.00     0.002 A 
HETATM   24  C   UNL     1      27.350  46.925  54.902  1.00  0.00     0.001 A 
HETATM   25  C   UNL     1      26.982  46.084  53.850  1.00  0.00     0.010 A 
ENDBRANCH  18  19
ENDBRANCH  15  18
ENDBRANCH  10  14
BRANCH   1  26
HETATM   26  C   UNL     1      20.485  48.582  48.604  1.00  0.00     0.103 C 
BRANCH  26  27
HETATM   27  S   UNL     1      18.875  48.271  47.801  1.00  0.00    -0.162 SA
BRANCH  27  28
HETATM   28  C   UNL     1      18.569  49.899  47.045  1.00  0.00     0.112 C 
BRANCH  28  29
HETATM   29  C   UNL     1      17.813  50.807  47.989  1.00  0.00    -0.043 A 
HETATM   30  C   UNL     1      18.453  51.819  48.739  1.00  0.00    -0.055 A 
HETATM   31  C   UNL     1      19.932  52.078  48.632  1.00  0.00     0.049 C 
HETATM   32  C   UNL     1      17.686  52.623  49.601  1.00  0.00     0.007 A 
HETATM   33  C   UNL     1      16.314  52.420  49.739  1.00  0.00     0.001 A 
HETATM   34  C   UNL     1      15.685  51.412  49.017  1.00  0.00     0.001 A 
HETATM   35  C   UNL     1      16.428  50.612  48.149  1.00  0.00     0.008 A 
ENDBRANCH  28  29
ENDBRANCH  27  28
ENDBRANCH  26  27
ENDBRANCH   1  26
TORSDOF 7
ENDMDL
