MODEL 1
REMARK VINA RESULT:      -7.8      0.000      0.000
REMARK  7 active torsions:
REMARK  status: ('A' for Active; 'I' for Inactive)
REMARK    1  A    between atoms: C_6  and  O_7 
REMARK    2  A    between atoms: O_7  and  C_8 
REMARK    3  A    between atoms: C_11  and  C_12 
REMARK       I    between atoms: C_12  and  N_13 
REMARK    4  A    between atoms: N_13  and  C_14 
REMARK    5  A    between atoms: N_22  and  C_23 
REMARK    6  A    between atoms: C_23  and  C_24 
REMARK    7  A    between atoms: C_24  and  O_25 
ROOT
HETATM    1  C           1      29.003  48.677  40.727  0.00  0.00     0.113 A 
HETATM    2  C           1      27.963  47.826  40.556  0.00  0.00     0.102 A 
HETATM    3  C           1      30.250  48.292  40.388  0.00  0.00     0.002 A 
HETATM    4  C           1      31.406  49.250  40.541  0.00  0.00     0.138 C 
HETATM    5  C           1      31.052  50.356  41.545  0.00  0.00     0.161 C 
HETATM    6  C           1      29.715  50.932  41.033  0.00  0.00     0.155 C 
HETATM    7  C           1      29.277  52.103  41.929  0.00  0.00     0.072 C 
HETATM    8  N           1      29.798  51.323  39.608  0.00  0.00    -0.323 N 
HETATM    9  C           1      30.841  50.899  38.794  0.00  0.00     0.172 C 
HETATM   10  S           1      31.109  51.436  37.332  0.00  0.00    -0.041 SA
HETATM   11  N           1      31.627  49.864  39.237  0.00  0.00    -0.357 N 
HETATM   12  O           1      28.735  49.936  41.205  0.00  0.00    -0.316 OA
HETATM   13  C           1      30.479  47.063  39.900  0.00  0.00     0.012 A 
HETATM   14  C           1      29.462  46.208  39.742  0.00  0.00     0.003 A 
HETATM   15  C           1      28.220  46.596  40.066  0.00  0.00     0.040 A 
HETATM   16  H           1      32.336  49.472  38.617  0.00  0.00     0.162 HD
ENDROOT
BRANCH   5  17
HETATM   17  C           1      32.209  51.341  41.760  0.00  0.00     0.233 C 
HETATM   18  N           1      33.269  50.816  42.440  0.00  0.00    -0.326 N 
HETATM   19  H           1      33.207  49.840  42.689  0.00  0.00     0.169 HD
HETATM   20  O           1      32.180  52.462  41.317  0.00  0.00    -0.273 OA
BRANCH  18  21
HETATM   21  C           1      34.448  51.319  42.865  0.00  0.00     0.040 A 
HETATM   22  C           1      35.542  51.000  42.140  0.00  0.00    -0.035 A 
HETATM   23  C           1      35.453  50.129  40.902  0.00  0.00     0.050 C 
HETATM   24  C           1      36.746  51.469  42.515  0.00  0.00     0.015 A 
HETATM   25  C           1      36.909  52.246  43.597  0.00  0.00    -0.061 A 
HETATM   26  C           1      38.279  52.753  43.982  0.00  0.00     0.048 C 
HETATM   27  C           1      35.816  52.557  44.312  0.00  0.00     0.009 A 
HETATM   28  C           1      34.609  52.098  43.950  0.00  0.00     0.030 A 
ENDBRANCH  18  21
ENDBRANCH   5  17
BRANCH   8  29
HETATM   29  C           1      28.636  52.035  39.062  0.00  0.00     0.154 C 
BRANCH  29  30
HETATM   30  C           1      27.418  51.128  38.858  0.00  0.00     0.187 C 
BRANCH  30  31
HETATM   31  O           1      27.674  50.267  37.775  0.00  0.00    -0.394 OA
HETATM   32  C           1      26.585  49.410  37.505  0.00  0.00     0.201 C 
ENDBRANCH  30  31
ENDBRANCH  29  30
ENDBRANCH   8  29
BRANCH   2  33
HETATM   33  O           1      26.708  48.278  40.896  0.00  0.00    -0.349 OA
BRANCH  33  34
HETATM   34  C           1      25.631  47.379  40.917  0.00  0.00     0.171 C 
HETATM   35  C           1      24.492  47.970  40.088  0.00  0.00     0.034 C 
ENDBRANCH  33  34
ENDBRANCH   2  33
TORSDOF 7
ENDMDL
MODEL 2
REMARK VINA RESULT:      -7.7      2.015      7.888
REMARK  7 active torsions:
REMARK  status: ('A' for Active; 'I' for Inactive)
REMARK    1  A    between atoms: C_6  and  O_7 
REMARK    2  A    between atoms: O_7  and  C_8 
REMARK    3  A    between atoms: C_11  and  C_12 
REMARK       I    between atoms: C_12  and  N_13 
REMARK    4  A    between atoms: N_13  and  C_14 
REMARK    5  A    between atoms: N_22  and  C_23 
REMARK    6  A    between atoms: C_23  and  C_24 
REMARK    7  A    between atoms: C_24  and  O_25 
ROOT
HETATM    1  C           1      33.092  50.561  42.093  0.00  0.00     0.113 A 
HETATM    2  C           1      34.408  50.833  42.267  0.00  0.00     0.102 A 
HETATM    3  C           1      32.185  51.038  42.971  0.00  0.00     0.002 A 
HETATM    4  C           1      30.715  50.768  42.759  0.00  0.00     0.138 C 
HETATM    5  C           1      30.522  49.552  41.843  0.00  0.00     0.161 C 
HETATM    6  C           1      31.372  49.868  40.594  0.00  0.00     0.155 C 
HETATM    7  C           1      31.215  48.740  39.560  0.00  0.00     0.072 C 
HETATM    8  N           1      31.039  51.194  40.027  0.00  0.00    -0.323 N 
HETATM    9  C           1      30.306  52.131  40.743  0.00  0.00     0.172 C 
HETATM   10  S           1      29.738  53.476  40.137  0.00  0.00    -0.041 SA
HETATM   11  N           1      30.158  51.940  42.095  0.00  0.00    -0.357 N 
HETATM   12  O           1      32.723  49.836  40.987  0.00  0.00    -0.316 OA
HETATM   13  C           1      32.572  51.764  44.030  0.00  0.00     0.012 A 
HETATM   14  C           1      33.870  52.026  44.220  0.00  0.00     0.003 A 
HETATM   15  C           1      34.770  51.564  43.341  0.00  0.00     0.040 A 
HETATM   16  H           1      29.707  52.663  42.656  0.00  0.00     0.162 HD
ENDROOT
BRANCH   5  17
HETATM   17  C           1      29.040  49.218  41.623  0.00  0.00     0.233 C 
HETATM   18  N           1      28.828  48.080  40.900  0.00  0.00    -0.326 N 
HETATM   19  H           1      29.647  47.559  40.627  0.00  0.00     0.169 HD
HETATM   20  O           1      28.160  49.892  42.094  0.00  0.00    -0.273 OA
BRANCH  18  21
HETATM   21  C           1      27.719  47.450  40.454  0.00  0.00     0.040 A 
HETATM   22  C           1      27.194  47.893  39.292  0.00  0.00    -0.035 A 
HETATM   23  C           1      27.822  49.035  38.517  0.00  0.00     0.050 C 
HETATM   24  C           1      26.088  47.307  38.797  0.00  0.00     0.015 A 
HETATM   25  C           1      25.474  46.290  39.422  0.00  0.00    -0.061 A 
HETATM   26  C           1      24.235  45.660  38.832  0.00  0.00     0.048 C 
HETATM   27  C           1      26.003  45.857  40.577  0.00  0.00     0.009 A 
HETATM   28  C           1      27.105  46.431  41.082  0.00  0.00     0.030 A 
ENDBRANCH  18  21
ENDBRANCH   5  17
BRANCH   8  29
HETATM   29  C           1      31.669  51.527  38.743  0.00  0.00     0.154 C 
BRANCH  29  30
HETATM   30  C           1      33.160  51.856  38.873  0.00  0.00     0.187 C 
BRANCH  30  31
HETATM   31  O           1      33.295  53.046  39.611  0.00  0.00    -0.394 OA
HETATM   32  C           1      34.474  53.749  39.280  0.00  0.00     0.201 C 
ENDBRANCH  30  31
ENDBRANCH  29  30
ENDBRANCH   8  29
BRANCH   2  33
HETATM   33  O           1      35.289  50.343  41.329  0.00  0.00    -0.349 OA
BRANCH  33  34
HETATM   34  C           1      36.452  51.067  41.028  0.00  0.00     0.171 C 
HETATM   35  C           1      36.807  50.824  39.563  0.00  0.00     0.034 C 
ENDBRANCH  33  34
ENDBRANCH   2  33
TORSDOF 7
ENDMDL
MODEL 3
REMARK VINA RESULT:      -7.2      1.610      2.348
REMARK  7 active torsions:
REMARK  status: ('A' for Active; 'I' for Inactive)
REMARK    1  A    between atoms: C_6  and  O_7 
REMARK    2  A    between atoms: O_7  and  C_8 
REMARK    3  A    between atoms: C_11  and  C_12 
REMARK       I    between atoms: C_12  and  N_13 
REMARK    4  A    between atoms: N_13  and  C_14 
REMARK    5  A    between atoms: N_22  and  C_23 
REMARK    6  A    between atoms: C_23  and  C_24 
REMARK    7  A    between atoms: C_24  and  O_25 
ROOT
HETATM    1  C           1      28.479  47.941  39.738  0.00  0.00     0.113 A 
HETATM    2  C           1      27.207  47.708  39.336  0.00  0.00     0.102 A 
HETATM    3  C           1      29.510  47.409  39.049  0.00  0.00     0.002 A 
HETATM    4  C           1      30.930  47.697  39.473  0.00  0.00     0.138 C 
HETATM    5  C           1      30.970  48.144  40.940  0.00  0.00     0.161 C 
HETATM    6  C           1      29.957  49.306  41.019  0.00  0.00     0.155 C 
HETATM    7  C           1      29.945  49.890  42.442  0.00  0.00     0.072 C 
HETATM    8  N           1      30.229  50.340  39.995  0.00  0.00    -0.323 N 
HETATM    9  C           1      31.073  50.097  38.919  0.00  0.00     0.172 C 
HETATM   10  S           1      31.573  51.204  37.907  0.00  0.00    -0.041 SA
HETATM   11  N           1      31.409  48.795  38.641  0.00  0.00    -0.357 N 
HETATM   12  O           1      28.674  48.759  40.823  0.00  0.00    -0.316 OA
HETATM   13  C           1      29.290  46.632  37.978  0.00  0.00     0.012 A 
HETATM   14  C           1      28.038  46.383  37.581  0.00  0.00     0.003 A 
HETATM   15  C           1      27.014  46.923  38.257  0.00  0.00     0.040 A 
HETATM   16  H           1      31.947  48.585  37.801  0.00  0.00     0.162 HD
ENDROOT
BRANCH   5  17
HETATM   17  C           1      32.399  48.419  41.427  0.00  0.00     0.233 C 
HETATM   18  N           1      32.636  49.724  41.749  0.00  0.00    -0.326 N 
HETATM   19  H           1      31.852  50.356  41.678  0.00  0.00     0.169 HD
HETATM   20  O           1      33.210  47.536  41.550  0.00  0.00    -0.273 OA
BRANCH  18  21
HETATM   21  C           1      33.726  50.398  42.174  0.00  0.00     0.040 A 
HETATM   22  C           1      33.551  51.239  43.216  0.00  0.00    -0.035 A 
HETATM   23  C           1      32.201  51.413  43.885  0.00  0.00     0.050 C 
HETATM   24  C           1      34.599  51.942  43.685  0.00  0.00     0.015 A 
HETATM   25  C           1      35.826  51.843  43.150  0.00  0.00    -0.061 A 
HETATM   26  C           1      36.976  52.649  43.707  0.00  0.00     0.048 C 
HETATM   27  C           1      35.989  51.006  42.113  0.00  0.00     0.009 A 
HETATM   28  C           1      34.955  50.299  41.636  0.00  0.00     0.030 A 
ENDBRANCH  18  21
ENDBRANCH   5  17
BRANCH   8  29
HETATM   29  C           1      29.429  51.568  40.085  0.00  0.00     0.154 C 
BRANCH  29  30
HETATM   30  C           1      28.332  51.649  39.018  0.00  0.00     0.187 C 
BRANCH  30  31
HETATM   31  O           1      28.393  52.915  38.406  0.00  0.00    -0.394 OA
HETATM   32  C           1      29.105  53.852  39.185  0.00  0.00     0.201 C 
ENDBRANCH  30  31
ENDBRANCH  29  30
ENDBRANCH   8  29
BRANCH   2  33
HETATM   33  O           1      26.193  48.294  40.060  0.00  0.00    -0.349 OA
BRANCH  33  34
HETATM   34  C           1      24.930  47.684  40.101  0.00  0.00     0.171 C 
HETATM   35  C           1      24.920  46.667  41.240  0.00  0.00     0.034 C 
ENDBRANCH  33  34
ENDBRANCH   2  33
TORSDOF 7
ENDMDL
MODEL 4
REMARK VINA RESULT:      -7.1      2.027      2.785
REMARK  7 active torsions:
REMARK  status: ('A' for Active; 'I' for Inactive)
REMARK    1  A    between atoms: C_6  and  O_7 
REMARK    2  A    between atoms: O_7  and  C_8 
REMARK    3  A    between atoms: C_11  and  C_12 
REMARK       I    between atoms: C_12  and  N_13 
REMARK    4  A    between atoms: N_13  and  C_14 
REMARK    5  A    between atoms: N_22  and  C_23 
REMARK    6  A    between atoms: C_23  and  C_24 
REMARK    7  A    between atoms: C_24  and  O_25 
ROOT
HETATM    1  C           1      30.789  49.241  41.784  0.00  0.00     0.113 A 
HETATM    2  C           1      29.587  48.643  41.605  0.00  0.00     0.102 A 
HETATM    3  C           1      31.873  48.783  41.122  0.00  0.00     0.002 A 
HETATM    4  C           1      33.206  49.469  41.291  0.00  0.00     0.138 C 
HETATM    5  C           1      33.229  50.279  42.594  0.00  0.00     0.161 C 
HETATM    6  C           1      31.975  51.175  42.517  0.00  0.00     0.155 C 
HETATM    7  C           1      31.913  52.090  43.751  0.00  0.00     0.072 C 
HETATM    8  N           1      31.928  51.943  41.251  0.00  0.00    -0.323 N 
HETATM    9  C           1      32.737  51.617  40.170  0.00  0.00     0.172 C 
HETATM   10  S           1      32.895  52.505  38.872  0.00  0.00    -0.041 SA
HETATM   11  N           1      33.356  50.392  40.171  0.00  0.00    -0.357 N 
HETATM   12  O           1      30.850  50.334  42.612  0.00  0.00    -0.316 OA
HETATM   13  C           1      31.778  47.727  40.301  0.00  0.00     0.012 A 
HETATM   14  C           1      30.599  47.120  40.127  0.00  0.00     0.003 A 
HETATM   15  C           1      29.520  47.583  40.775  0.00  0.00     0.040 A 
HETATM   16  H           1      33.875  50.092  39.346  0.00  0.00     0.162 HD
ENDROOT
BRANCH   5  17
HETATM   17  C           1      34.578  50.972  42.827  0.00  0.00     0.233 C 
HETATM   18  N           1      35.653  50.267  42.367  0.00  0.00    -0.326 N 
HETATM   19  H           1      35.454  49.401  41.890  0.00  0.00     0.169 HD
HETATM   20  O           1      34.653  52.063  43.333  0.00  0.00    -0.273 OA
BRANCH  18  21
HETATM   21  C           1      36.987  50.478  42.390  0.00  0.00     0.040 A 
HETATM   22  C           1      37.536  51.013  41.278  0.00  0.00    -0.035 A 
HETATM   23  C           1      36.698  51.372  40.067  0.00  0.00     0.050 C 
HETATM   24  C           1      38.861  51.244  41.239  0.00  0.00     0.015 A 
HETATM   25  C           1      39.671  50.957  42.269  0.00  0.00    -0.061 A 
HETATM   26  C           1      41.154  51.233  42.184  0.00  0.00     0.048 C 
HETATM   27  C           1      39.116  50.423  43.369  0.00  0.00     0.009 A 
HETATM   28  C           1      37.797  50.188  43.424  0.00  0.00     0.030 A 
ENDBRANCH  18  21
ENDBRANCH   5  17
BRANCH   8  29
HETATM   29  C           1      30.866  52.950  41.143  0.00  0.00     0.154 C 
BRANCH  29  30
HETATM   30  C           1      29.639  52.448  40.374  0.00  0.00     0.187 C 
BRANCH  30  31
HETATM   31  O           1      29.322  53.384  39.372  0.00  0.00    -0.394 OA
HETATM   32  C           1      28.906  52.764  38.174  0.00  0.00     0.201 C 
ENDBRANCH  30  31
ENDBRANCH  29  30
ENDBRANCH   8  29
BRANCH   2  33
HETATM   33  O           1      28.509  49.164  42.286  0.00  0.00    -0.349 OA
BRANCH  33  34
HETATM   34  C           1      27.651  50.065  41.637  0.00  0.00     0.171 C 
HETATM   35  C           1      26.910  49.316  40.532  0.00  0.00     0.034 C 
ENDBRANCH  33  34
ENDBRANCH   2  33
TORSDOF 7
ENDMDL
MODEL 5
REMARK VINA RESULT:      -7.1     24.929     27.466
REMARK  7 active torsions:
REMARK  status: ('A' for Active; 'I' for Inactive)
REMARK    1  A    between atoms: C_6  and  O_7 
REMARK    2  A    between atoms: O_7  and  C_8 
REMARK    3  A    between atoms: C_11  and  C_12 
REMARK       I    between atoms: C_12  and  N_13 
REMARK    4  A    between atoms: N_13  and  C_14 
REMARK    5  A    between atoms: N_22  and  C_23 
REMARK    6  A    between atoms: C_23  and  C_24 
REMARK    7  A    between atoms: C_24  and  O_25 
ROOT
HETATM    1  C           1      37.328  49.476  67.359  0.00  0.00     0.113 A 
HETATM    2  C           1      37.225  50.424  68.321  0.00  0.00     0.102 A 
HETATM    3  C           1      37.629  49.832  66.092  0.00  0.00     0.002 A 
HETATM    4  C           1      37.779  48.776  65.026  0.00  0.00     0.138 C 
HETATM    5  C           1      37.061  47.487  65.445  0.00  0.00     0.161 C 
HETATM    6  C           1      37.626  47.166  66.846  0.00  0.00     0.155 C 
HETATM    7  C           1      37.023  45.848  67.360  0.00  0.00     0.072 C 
HETATM    8  N           1      39.106  47.140  66.846  0.00  0.00    -0.323 N 
HETATM    9  C           1      39.845  47.668  65.796  0.00  0.00     0.172 C 
HETATM   10  S           1      41.407  47.495  65.626  0.00  0.00    -0.041 SA
HETATM   11  N           1      39.205  48.492  64.904  0.00  0.00    -0.357 N 
HETATM   12  O           1      37.161  48.163  67.724  0.00  0.00    -0.316 OA
HETATM   13  C           1      37.810  51.121  65.768  0.00  0.00     0.012 A 
HETATM   14  C           1      37.696  52.068  66.707  0.00  0.00     0.003 A 
HETATM   15  C           1      37.411  51.712  67.968  0.00  0.00     0.040 A 
HETATM   16  H           1      39.747  48.968  64.183  0.00  0.00     0.162 HD
ENDROOT
BRANCH   5  17
HETATM   17  C           1      37.160  46.389  64.377  0.00  0.00     0.233 C 
HETATM   18  N           1      37.908  45.312  64.753  0.00  0.00    -0.326 N 
HETATM   19  H           1      38.276  45.323  65.692  0.00  0.00     0.169 HD
HETATM   20  O           1      36.582  46.475  63.323  0.00  0.00    -0.273 OA
BRANCH  18  21
HETATM   21  C           1      38.276  44.169  64.135  0.00  0.00     0.040 A 
HETATM   22  C           1      37.497  43.086  64.345  0.00  0.00    -0.035 A 
HETATM   23  C           1      36.263  43.150  65.223  0.00  0.00     0.050 C 
HETATM   24  C           1      37.814  41.917  63.759  0.00  0.00     0.015 A 
HETATM   25  C           1      38.888  41.779  62.967  0.00  0.00    -0.061 A 
HETATM   26  C           1      39.208  40.449  62.326  0.00  0.00     0.048 C 
HETATM   27  C           1      39.658  42.861  62.765  0.00  0.00     0.009 A 
HETATM   28  C           1      39.354  44.032  63.342  0.00  0.00     0.030 A 
ENDBRANCH  18  21
ENDBRANCH   5  17
BRANCH   8  29
HETATM   29  C           1      39.746  46.683  68.086  0.00  0.00     0.154 C 
BRANCH  29  30
HETATM   30  C           1      40.173  47.836  69.001  0.00  0.00     0.187 C 
BRANCH  30  31
HETATM   31  O           1      40.012  47.431  70.339  0.00  0.00    -0.394 OA
HETATM   32  C           1      38.739  46.870  70.579  0.00  0.00     0.201 C 
ENDBRANCH  30  31
ENDBRANCH  29  30
ENDBRANCH   8  29
BRANCH   2  33
HETATM   33  O           1      36.939  50.003  69.600  0.00  0.00    -0.349 OA
BRANCH  33  34
HETATM   34  C           1      35.905  50.624  70.317  0.00  0.00     0.171 C 
HETATM   35  C           1      34.570  50.099  69.792  0.00  0.00     0.034 C 
ENDBRANCH  33  34
ENDBRANCH   2  33
TORSDOF 7
ENDMDL
MODEL 6
REMARK VINA RESULT:      -7.1     11.967     15.992
REMARK  7 active torsions:
REMARK  status: ('A' for Active; 'I' for Inactive)
REMARK    1  A    between atoms: C_6  and  O_7 
REMARK    2  A    between atoms: O_7  and  C_8 
REMARK    3  A    between atoms: C_11  and  C_12 
REMARK       I    between atoms: C_12  and  N_13 
REMARK    4  A    between atoms: N_13  and  C_14 
REMARK    5  A    between atoms: N_22  and  C_23 
REMARK    6  A    between atoms: C_23  and  C_24 
REMARK    7  A    between atoms: C_24  and  O_25 
ROOT
HETATM    1  C           1      21.103  49.123  48.785  0.00  0.00     0.113 A 
HETATM    2  C           1      22.386  48.695  48.861  0.00  0.00     0.102 A 
HETATM    3  C           1      20.839  50.399  48.436  0.00  0.00     0.002 A 
HETATM    4  C           1      19.410  50.870  48.315  0.00  0.00     0.138 C 
HETATM    5  C           1      18.475  49.947  49.108  0.00  0.00     0.161 C 
HETATM    6  C           1      18.801  48.529  48.593  0.00  0.00     0.155 C 
HETATM    7  C           1      17.878  47.504  49.274  0.00  0.00     0.072 C 
HETATM    8  N           1      18.726  48.452  47.117  0.00  0.00    -0.323 N 
HETATM    9  C           1      18.698  49.593  46.327  0.00  0.00     0.172 C 
HETATM   10  S           1      18.412  49.598  44.772  0.00  0.00    -0.041 SA
HETATM   11  N           1      19.053  50.788  46.903  0.00  0.00    -0.357 N 
HETATM   12  O           1      20.103  48.213  49.027  0.00  0.00    -0.316 OA
HETATM   13  C           1      21.836  51.260  48.182  0.00  0.00     0.012 A 
HETATM   14  C           1      23.108  50.852  48.269  0.00  0.00     0.003 A 
HETATM   15  C           1      23.369  49.580  48.602  0.00  0.00     0.040 A 
HETATM   16  H           1      19.134  51.621  46.320  0.00  0.00     0.162 HD
ENDROOT
BRANCH   5  17
HETATM   17  C           1      17.011  50.403  49.040  0.00  0.00     0.233 C 
HETATM   18  N           1      16.816  51.705  49.397  0.00  0.00    -0.326 N 
HETATM   19  H           1      17.641  52.240  49.621  0.00  0.00     0.169 HD
HETATM   20  O           1      16.134  49.669  48.659  0.00  0.00    -0.273 OA
BRANCH  18  21
HETATM   21  C           1      15.722  52.489  49.511  0.00  0.00     0.040 A 
HETATM   22  C           1      15.239  53.027  48.370  0.00  0.00    -0.035 A 
HETATM   23  C           1      15.885  52.759  47.025  0.00  0.00     0.050 C 
HETATM   24  C           1      14.152  53.820  48.419  0.00  0.00     0.015 A 
HETATM   25  C           1      13.523  54.104  49.570  0.00  0.00    -0.061 A 
HETATM   26  C           1      12.305  54.997  49.580  0.00  0.00     0.048 C 
HETATM   27  C           1      14.011  53.565  50.698  0.00  0.00     0.009 A 
HETATM   28  C           1      15.092  52.773  50.665  0.00  0.00     0.030 A 
ENDBRANCH  18  21
ENDBRANCH   5  17
BRANCH   8  29
HETATM   29  C           1      18.856  47.112  46.530  0.00  0.00     0.154 C 
BRANCH  29  30
HETATM   30  C           1      20.296  46.764  46.139  0.00  0.00     0.187 C 
BRANCH  30  31
HETATM   31  O           1      20.687  45.611  46.844  0.00  0.00    -0.394 OA
HETATM   32  C           1      19.582  44.884  47.336  0.00  0.00     0.201 C 
ENDBRANCH  30  31
ENDBRANCH  29  30
ENDBRANCH   8  29
BRANCH   2  33
HETATM   33  O           1      22.598  47.376  49.198  0.00  0.00    -0.349 OA
BRANCH  33  34
HETATM   34  C           1      23.884  46.956  49.571  0.00  0.00     0.171 C 
HETATM   35  C           1      23.908  45.430  49.588  0.00  0.00     0.034 C 
ENDBRANCH  33  34
ENDBRANCH   2  33
TORSDOF 7
ENDMDL
MODEL 7
REMARK VINA RESULT:      -7.1     11.603     14.814
REMARK  7 active torsions:
REMARK  status: ('A' for Active; 'I' for Inactive)
REMARK    1  A    between atoms: C_6  and  O_7 
REMARK    2  A    between atoms: O_7  and  C_8 
REMARK    3  A    between atoms: C_11  and  C_12 
REMARK       I    between atoms: C_12  and  N_13 
REMARK    4  A    between atoms: N_13  and  C_14 
REMARK    5  A    between atoms: N_22  and  C_23 
REMARK    6  A    between atoms: C_23  and  C_24 
REMARK    7  A    between atoms: C_24  and  O_25 
ROOT
HETATM    1  C           1      16.710  51.704  47.648  0.00  0.00     0.113 A 
HETATM    2  C           1      15.657  52.555  47.604  0.00  0.00     0.102 A 
HETATM    3  C           1      17.306  51.431  48.828  0.00  0.00     0.002 A 
HETATM    4  C           1      18.456  50.456  48.887  0.00  0.00     0.138 C 
HETATM    5  C           1      19.103  50.310  47.503  0.00  0.00     0.161 C 
HETATM    6  C           1      17.930  49.967  46.560  0.00  0.00     0.155 C 
HETATM    7  C           1      18.460  49.734  45.135  0.00  0.00     0.072 C 
HETATM    8  N           1      17.146  48.815  47.059  0.00  0.00    -0.323 N 
HETATM    9  C           1      17.274  48.354  48.363  0.00  0.00     0.172 C 
HETATM   10  S           1      16.632  47.016  48.906  0.00  0.00    -0.041 SA
HETATM   11  N           1      17.901  49.165  49.276  0.00  0.00    -0.357 N 
HETATM   12  O           1      17.110  51.109  46.477  0.00  0.00    -0.316 OA
HETATM   13  C           1      16.878  52.010  49.960  0.00  0.00     0.012 A 
HETATM   14  C           1      15.848  52.863  49.927  0.00  0.00     0.003 A 
HETATM   15  C           1      15.249  53.123  48.756  0.00  0.00     0.040 A 
HETATM   16  H           1      17.921  48.891  50.259  0.00  0.00     0.162 HD
ENDROOT
BRANCH   5  17
HETATM   17  C           1      20.300  49.350  47.518  0.00  0.00     0.233 C 
HETATM   18  N           1      21.262  49.672  48.430  0.00  0.00    -0.326 N 
HETATM   19  H           1      21.073  50.466  49.023  0.00  0.00     0.169 HD
HETATM   20  O           1      20.343  48.377  46.807  0.00  0.00    -0.273 OA
BRANCH  18  21
HETATM   21  C           1      22.461  49.140  48.751  0.00  0.00     0.040 A 
HETATM   22  C           1      23.540  49.936  48.591  0.00  0.00    -0.035 A 
HETATM   23  C           1      23.415  51.359  48.085  0.00  0.00     0.050 C 
HETATM   24  C           1      24.764  49.462  48.891  0.00  0.00     0.015 A 
HETATM   25  C           1      24.959  48.214  49.345  0.00  0.00    -0.061 A 
HETATM   26  C           1      26.349  47.721  49.671  0.00  0.00     0.048 C 
HETATM   27  C           1      23.880  47.430  49.500  0.00  0.00     0.009 A 
HETATM   28  C           1      22.654  47.889  49.205  0.00  0.00     0.030 A 
ENDBRANCH  18  21
ENDBRANCH   5  17
BRANCH   8  29
HETATM   29  C           1      16.107  48.299  46.158  0.00  0.00     0.154 C 
BRANCH  29  30
HETATM   30  C           1      14.704  48.807  46.506  0.00  0.00     0.187 C 
BRANCH  30  31
HETATM   31  O           1      13.765  47.827  46.134  0.00  0.00    -0.394 OA
HETATM   32  C           1      13.758  47.595  44.742  0.00  0.00     0.201 C 
ENDBRANCH  30  31
ENDBRANCH  29  30
ENDBRANCH   8  29
BRANCH   2  33
HETATM   33  O           1      15.072  52.779  46.377  0.00  0.00    -0.349 OA
BRANCH  33  34
HETATM   34  C           1      14.027  53.710  46.270  0.00  0.00     0.171 C 
HETATM   35  C           1      13.040  53.209  45.218  0.00  0.00     0.034 C 
ENDBRANCH  33  34
ENDBRANCH   2  33
TORSDOF 7
ENDMDL
MODEL 8
REMARK VINA RESULT:      -7.1      2.899      5.251
REMARK  7 active torsions:
REMARK  status: ('A' for Active; 'I' for Inactive)
REMARK    1  A    between atoms: C_6  and  O_7 
REMARK    2  A    between atoms: O_7  and  C_8 
REMARK    3  A    between atoms: C_11  and  C_12 
REMARK       I    between atoms: C_12  and  N_13 
REMARK    4  A    between atoms: N_13  and  C_14 
REMARK    5  A    between atoms: N_22  and  C_23 
REMARK    6  A    between atoms: C_23  and  C_24 
REMARK    7  A    between atoms: C_24  and  O_25 
ROOT
HETATM    1  C           1      24.166  48.310  39.876  0.00  0.00     0.113 A 
HETATM    2  C           1      22.818  48.225  39.770  0.00  0.00     0.102 A 
HETATM    3  C           1      24.837  47.427  40.645  0.00  0.00     0.002 A 
HETATM    4  C           1      26.341  47.496  40.737  0.00  0.00     0.138 C 
HETATM    5  C           1      26.838  48.891  40.336  0.00  0.00     0.161 C 
HETATM    6  C           1      26.200  49.148  38.954  0.00  0.00     0.155 C 
HETATM    7  C           1      26.672  50.505  38.408  0.00  0.00     0.072 C 
HETATM    8  N           1      26.475  48.041  38.011  0.00  0.00    -0.323 N 
HETATM    9  C           1      26.951  46.812  38.446  0.00  0.00     0.172 C 
HETATM   10  S           1      27.461  45.660  37.491  0.00  0.00    -0.041 SA
HETATM   11  N           1      26.872  46.525  39.787  0.00  0.00    -0.357 N 
HETATM   12  O           1      24.812  49.281  39.151  0.00  0.00    -0.316 OA
HETATM   13  C           1      24.181  46.474  41.324  0.00  0.00     0.012 A 
HETATM   14  C           1      22.849  46.390  41.239  0.00  0.00     0.003 A 
HETATM   15  C           1      22.184  47.259  40.464  0.00  0.00     0.040 A 
HETATM   16  H           1      27.125  45.594  40.116  0.00  0.00     0.162 HD
ENDROOT
BRANCH   5  17
HETATM   17  C           1      28.364  49.021  40.443  0.00  0.00     0.233 C 
HETATM   18  N           1      28.787  49.734  41.527  0.00  0.00    -0.326 N 
HETATM   19  H           1      28.073  50.059  42.160  0.00  0.00     0.169 HD
HETATM   20  O           1      29.103  48.492  39.652  0.00  0.00    -0.273 OA
BRANCH  18  21
HETATM   21  C           1      30.002  50.111  41.980  0.00  0.00     0.040 A 
HETATM   22  C           1      30.277  51.434  41.951  0.00  0.00    -0.035 A 
HETATM   23  C           1      29.269  52.447  41.446  0.00  0.00     0.050 C 
HETATM   24  C           1      31.472  51.872  42.387  0.00  0.00     0.015 A 
HETATM   25  C           1      32.417  51.040  42.850  0.00  0.00    -0.061 A 
HETATM   26  C           1      33.746  51.574  43.330  0.00  0.00     0.048 C 
HETATM   27  C           1      32.136  49.727  42.873  0.00  0.00     0.009 A 
HETATM   28  C           1      30.949  49.275  42.443  0.00  0.00     0.030 A 
ENDBRANCH  18  21
ENDBRANCH   5  17
BRANCH   8  29
HETATM   29  C           1      26.056  48.255  36.620  0.00  0.00     0.154 C 
BRANCH  29  30
HETATM   30  C           1      24.720  47.584  36.285  0.00  0.00     0.187 C 
BRANCH  30  31
HETATM   31  O           1      23.792  48.581  35.930  0.00  0.00    -0.394 OA
HETATM   32  C           1      22.503  48.054  35.701  0.00  0.00     0.201 C 
ENDBRANCH  30  31
ENDBRANCH  29  30
ENDBRANCH   8  29
BRANCH   2  33
HETATM   33  O           1      22.186  49.137  38.953  0.00  0.00    -0.349 OA
BRANCH  33  34
HETATM   34  C           1      21.109  49.883  39.454  0.00  0.00     0.171 C 
HETATM   35  C           1      21.654  51.185  40.039  0.00  0.00     0.034 C 
ENDBRANCH  33  34
ENDBRANCH   2  33
TORSDOF 7
ENDMDL
MODEL 9
REMARK VINA RESULT:      -6.8     28.325     30.740
REMARK  7 active torsions:
REMARK  status: ('A' for Active; 'I' for Inactive)
REMARK    1  A    between atoms: C_6  and  O_7 
REMARK    2  A    between atoms: O_7  and  C_8 
REMARK    3  A    between atoms: C_11  and  C_12 
REMARK       I    between atoms: C_12  and  N_13 
REMARK    4  A    between atoms: N_13  and  C_14 
REMARK    5  A    between atoms: N_22  and  C_23 
REMARK    6  A    between atoms: C_23  and  C_24 
REMARK    7  A    between atoms: C_24  and  O_25 
ROOT
HETATM    1  C           1      40.412  34.165  66.382  0.00  0.00     0.113 A 
HETATM    2  C           1      40.412  32.811  66.399  0.00  0.00     0.102 A 
HETATM    3  C           1      39.584  34.848  67.201  0.00  0.00     0.002 A 
HETATM    4  C           1      39.607  36.356  67.212  0.00  0.00     0.138 C 
HETATM    5  C           1      40.219  36.891  65.911  0.00  0.00     0.161 C 
HETATM    6  C           1      41.575  36.162  65.792  0.00  0.00     0.155 C 
HETATM    7  C           1      42.324  36.659  64.544  0.00  0.00     0.072 C 
HETATM    8  N           1      42.384  36.307  67.023  0.00  0.00    -0.323 N 
HETATM    9  C           1      41.827  36.752  68.214  0.00  0.00     0.172 C 
HETATM   10  S           1      42.658  37.127  69.505  0.00  0.00    -0.041 SA
HETATM   11  N           1      40.458  36.762  68.325  0.00  0.00    -0.357 N 
HETATM   12  O           1      41.300  34.802  65.551  0.00  0.00    -0.316 OA
HETATM   13  C           1      38.743  34.199  68.020  0.00  0.00     0.012 A 
HETATM   14  C           1      38.723  32.861  68.033  0.00  0.00     0.003 A 
HETATM   15  C           1      39.556  32.184  67.230  0.00  0.00     0.040 A 
HETATM   16  H           1      40.029  36.992  69.221  0.00  0.00     0.162 HD
ENDROOT
BRANCH   5  17
HETATM   17  C           1      40.237  38.425  65.861  0.00  0.00     0.233 C 
HETATM   18  N           1      39.451  38.960  64.882  0.00  0.00    -0.326 N 
HETATM   19  H           1      38.913  38.309  64.330  0.00  0.00     0.169 HD
HETATM   20  O           1      40.863  39.079  66.657  0.00  0.00    -0.273 OA
BRANCH  18  21
HETATM   21  C           1      39.201  40.221  64.469  0.00  0.00     0.040 A 
HETATM   22  C           1      39.265  40.448  63.140  0.00  0.00    -0.035 A 
HETATM   23  C           1      39.590  39.342  62.155  0.00  0.00     0.050 C 
HETATM   24  C           1      39.029  41.686  62.667  0.00  0.00     0.015 A 
HETATM   25  C           1      38.733  42.718  63.472  0.00  0.00    -0.061 A 
HETATM   26  C           1      38.474  44.092  62.900  0.00  0.00     0.048 C 
HETATM   27  C           1      38.674  42.482  64.792  0.00  0.00     0.009 A 
HETATM   28  C           1      38.906  41.254  65.278  0.00  0.00     0.030 A 
ENDBRANCH  18  21
ENDBRANCH   5  17
BRANCH   8  29
HETATM   29  C           1      43.758  35.793  66.960  0.00  0.00     0.154 C 
BRANCH  29  30
HETATM   30  C           1      43.881  34.345  67.446  0.00  0.00     0.187 C 
BRANCH  30  31
HETATM   31  O           1      44.434  33.568  66.412  0.00  0.00    -0.394 OA
HETATM   32  C           1      45.107  34.356  65.453  0.00  0.00     0.201 C 
ENDBRANCH  30  31
ENDBRANCH  29  30
ENDBRANCH   8  29
BRANCH   2  33
HETATM   33  O           1      41.293  32.165  65.561  0.00  0.00    -0.349 OA
BRANCH  33  34
HETATM   34  C           1      41.476  30.779  65.685  0.00  0.00     0.171 C 
HETATM   35  C           1      42.258  30.284  64.471  0.00  0.00     0.034 C 
ENDBRANCH  33  34
ENDBRANCH   2  33
TORSDOF 7
ENDMDL
MODEL 10
REMARK VINA RESULT:      -6.7     24.898     27.130
REMARK  7 active torsions:
REMARK  status: ('A' for Active; 'I' for Inactive)
REMARK    1  A    between atoms: C_6  and  O_7 
REMARK    2  A    between atoms: O_7  and  C_8 
REMARK    3  A    between atoms: C_11  and  C_12 
REMARK       I    between atoms: C_12  and  N_13 
REMARK    4  A    between atoms: N_13  and  C_14 
REMARK    5  A    between atoms: N_22  and  C_23 
REMARK    6  A    between atoms: C_23  and  C_24 
REMARK    7  A    between atoms: C_24  and  O_25 
ROOT
HETATM    1  C           1      37.321  46.471  65.217  0.00  0.00     0.113 A 
HETATM    2  C           1      36.903  45.335  64.610  0.00  0.00     0.102 A 
HETATM    3  C           1      36.842  46.799  66.435  0.00  0.00     0.002 A 
HETATM    4  C           1      37.333  48.044  67.131  0.00  0.00     0.138 C 
HETATM    5  C           1      37.933  49.023  66.112  0.00  0.00     0.161 C 
HETATM    6  C           1      38.973  48.187  65.336  0.00  0.00     0.155 C 
HETATM    7  C           1      39.697  49.078  64.313  0.00  0.00     0.072 C 
HETATM    8  N           1      39.919  47.506  66.250  0.00  0.00    -0.323 N 
HETATM    9  C           1      39.663  47.388  67.609  0.00  0.00     0.172 C 
HETATM   10  S           1      40.708  46.863  68.673  0.00  0.00    -0.041 SA
HETATM   11  N           1      38.387  47.632  68.051  0.00  0.00    -0.357 N 
HETATM   12  O           1      38.265  47.236  64.577  0.00  0.00    -0.316 OA
HETATM   13  C           1      35.937  46.020  67.047  0.00  0.00     0.012 A 
HETATM   14  C           1      35.505  44.903  66.451  0.00  0.00     0.003 A 
HETATM   15  C           1      35.992  44.571  65.246  0.00  0.00     0.040 A 
HETATM   16  H           1      38.153  47.457  69.029  0.00  0.00     0.162 HD
ENDROOT
BRANCH   5  17
HETATM   17  C           1      38.420  50.322  66.769  0.00  0.00     0.233 C 
HETATM   18  N           1      37.475  51.305  66.828  0.00  0.00    -0.326 N 
HETATM   19  H           1      36.557  51.069  66.483  0.00  0.00     0.169 HD
HETATM   20  O           1      39.531  50.426  67.225  0.00  0.00    -0.273 OA
BRANCH  18  21
HETATM   21  C           1      37.479  52.578  67.278  0.00  0.00     0.040 A 
HETATM   22  C           1      36.998  52.784  68.523  0.00  0.00    -0.035 A 
HETATM   23  C           1      36.488  51.643  69.380  0.00  0.00     0.050 C 
HETATM   24  C           1      36.973  54.032  69.026  0.00  0.00     0.015 A 
HETATM   25  C           1      37.407  55.095  68.331  0.00  0.00    -0.061 A 
HETATM   26  C           1      37.362  56.479  68.934  0.00  0.00     0.048 C 
HETATM   27  C           1      37.882  54.880  67.094  0.00  0.00     0.009 A 
HETATM   28  C           1      37.914  53.643  66.580  0.00  0.00     0.030 A 
ENDBRANCH  18  21
ENDBRANCH   5  17
BRANCH   8  29
HETATM   29  C           1      41.050  46.816  65.615  0.00  0.00     0.154 C 
BRANCH  29  30
HETATM   30  C           1      40.846  45.302  65.510  0.00  0.00     0.187 C 
BRANCH  30  31
HETATM   31  O           1      42.056  44.713  65.095  0.00  0.00    -0.394 OA
HETATM   32  C           1      42.558  45.298  63.913  0.00  0.00     0.201 C 
ENDBRANCH  30  31
ENDBRANCH  29  30
ENDBRANCH   8  29
BRANCH   2  33
HETATM   33  O           1      37.441  45.036  63.378  0.00  0.00    -0.349 OA
BRANCH  33  34
HETATM   34  C           1      37.800  43.712  63.083  0.00  0.00     0.171 C 
HETATM   35  C           1      39.248  43.700  62.598  0.00  0.00     0.034 C 
ENDBRANCH  33  34
ENDBRANCH   2  33
TORSDOF 7
ENDMDL
