MODEL 1
REMARK VINA RESULT:      -9.3      0.000      0.000
REMARK  3 active torsions:
REMARK  status: ('A' for Active; 'I' for Inactive)
REMARK    1  A    between atoms: C_9  and  N_10 
REMARK       I    between atoms: N_10  and  C_11 
REMARK    2  A    between atoms: C_11  and  C_12 
REMARK    3  A    between atoms: C_15  and  C_16 
REMARK       I    between atoms: C_16  and  N_17 
ROOT
HETATM    1  N   UNL     1      27.463  44.818  52.739  1.00  0.00    -0.322 N 
HETATM    2  C   UNL     1      26.092  44.646  52.819  1.00  0.00     0.263 C 
HETATM    3  O   UNL     1      25.512  44.072  53.737  1.00  0.00    -0.267 OA
HETATM    4  H   UNL     1      27.787  45.309  51.914  1.00  0.00     0.169 HD
ENDROOT
BRANCH   1   5
HETATM    5  C   UNL     1      28.453  44.411  53.654  1.00  0.00     0.035 A 
HETATM    6  C   UNL     1      29.260  43.288  53.487  1.00  0.00     0.030 A 
HETATM    7  C   UNL     1      30.216  42.950  54.452  1.00  0.00     0.014 A 
HETATM    8  C   UNL     1      30.383  43.730  55.605  1.00  0.00    -0.026 A 
HETATM    9  C   UNL     1      31.334  43.399  56.584  1.00  0.00     0.012 A 
HETATM   10  C   UNL     1      29.573  44.871  55.784  1.00  0.00    -0.024 A 
HETATM   11  C   UNL     1      31.486  44.186  57.725  1.00  0.00     0.001 A 
HETATM   12  C   UNL     1      30.690  45.313  57.903  1.00  0.00     0.001 A 
HETATM   13  C   UNL     1      29.739  45.655  56.940  1.00  0.00     0.012 A 
HETATM   14  C   UNL     1      28.618  45.197  54.804  1.00  0.00     0.042 A 
ENDBRANCH   1   5
BRANCH   2  15
HETATM   15  C   UNL     1      25.337  45.217  51.701  1.00  0.00     0.073 A 
HETATM   16  S   UNL     1      24.576  44.257  50.508  1.00  0.00    -0.096 SA
HETATM   17  C   UNL     1      23.999  45.629  49.673  1.00  0.00     0.067 A 
HETATM   18  C   UNL     1      24.361  46.825  50.269  1.00  0.00     0.039 A 
HETATM   19  C   UNL     1      25.138  46.565  51.450  1.00  0.00     0.042 A 
BRANCH  18  20
HETATM   20  C   UNL     1      23.964  48.111  49.702  1.00  0.00     0.249 C 
HETATM   21  N   UNL     1      22.628  48.308  49.518  1.00  0.00    -0.366 N 
HETATM   22  H   UNL     1      21.920  47.626  49.738  1.00  0.00     0.159 HD
HETATM   23  H   UNL     1      22.342  49.194  49.124  1.00  0.00     0.159 HD
HETATM   24  O   UNL     1      24.766  48.989  49.399  1.00  0.00    -0.268 OA
ENDBRANCH  18  20
ENDBRANCH   2  15
TORSDOF 3
ENDMDL
MODEL 2
REMARK VINA RESULT:      -8.8      1.909      1.951
REMARK  3 active torsions:
REMARK  status: ('A' for Active; 'I' for Inactive)
REMARK    1  A    between atoms: C_9  and  N_10 
REMARK       I    between atoms: N_10  and  C_11 
REMARK    2  A    between atoms: C_11  and  C_12 
REMARK    3  A    between atoms: C_15  and  C_16 
REMARK       I    between atoms: C_16  and  N_17 
ROOT
HETATM    1  N   UNL     1      27.859  44.269  52.773  1.00  0.00    -0.322 N 
HETATM    2  C   UNL     1      26.481  44.142  52.814  1.00  0.00     0.263 C 
HETATM    3  O   UNL     1      25.835  43.861  53.820  1.00  0.00    -0.267 OA
HETATM    4  H   UNL     1      28.242  44.500  51.864  1.00  0.00     0.169 HD
ENDROOT
BRANCH   1   5
HETATM    5  C   UNL     1      28.784  44.132  53.826  1.00  0.00     0.035 A 
HETATM    6  C   UNL     1      29.758  43.138  53.887  1.00  0.00     0.030 A 
HETATM    7  C   UNL     1      30.634  43.068  54.977  1.00  0.00     0.014 A 
HETATM    8  C   UNL     1      30.552  43.992  56.027  1.00  0.00    -0.026 A 
HETATM    9  C   UNL     1      31.422  43.931  57.129  1.00  0.00     0.012 A 
HETATM   10  C   UNL     1      29.572  45.006  55.975  1.00  0.00    -0.024 A 
HETATM   11  C   UNL     1      31.326  44.859  58.166  1.00  0.00     0.001 A 
HETATM   12  C   UNL     1      30.360  45.860  58.115  1.00  0.00     0.001 A 
HETATM   13  C   UNL     1      29.489  45.934  57.027  1.00  0.00     0.012 A 
HETATM   14  C   UNL     1      28.700  45.062  54.872  1.00  0.00     0.042 A 
ENDBRANCH   1   5
BRANCH   2  15
HETATM   15  C   UNL     1      25.807  44.376  51.535  1.00  0.00     0.073 A 
HETATM   16  S   UNL     1      26.647  44.804  50.108  1.00  0.00    -0.096 SA
HETATM   17  C   UNL     1      25.205  44.881  49.199  1.00  0.00     0.067 A 
HETATM   18  C   UNL     1      24.073  44.589  49.942  1.00  0.00     0.039 A 
HETATM   19  C   UNL     1      24.444  44.295  51.299  1.00  0.00     0.042 A 
BRANCH  18  20
HETATM   20  C   UNL     1      22.741  44.604  49.342  1.00  0.00     0.249 C 
HETATM   21  N   UNL     1      22.216  45.830  49.060  1.00  0.00    -0.366 N 
HETATM   22  H   UNL     1      22.683  46.703  49.247  1.00  0.00     0.159 HD
HETATM   23  H   UNL     1      21.293  45.852  48.648  1.00  0.00     0.159 HD
HETATM   24  O   UNL     1      22.104  43.586  49.092  1.00  0.00    -0.268 OA
ENDBRANCH  18  20
ENDBRANCH   2  15
TORSDOF 3
ENDMDL
MODEL 3
REMARK VINA RESULT:      -8.7      2.036      2.776
REMARK  3 active torsions:
REMARK  status: ('A' for Active; 'I' for Inactive)
REMARK    1  A    between atoms: C_9  and  N_10 
REMARK       I    between atoms: N_10  and  C_11 
REMARK    2  A    between atoms: C_11  and  C_12 
REMARK    3  A    between atoms: C_15  and  C_16 
REMARK       I    between atoms: C_16  and  N_17 
ROOT
HETATM    1  N   UNL     1      26.870  45.543  53.123  1.00  0.00    -0.322 N 
HETATM    2  C   UNL     1      25.585  45.041  53.010  1.00  0.00     0.263 C 
HETATM    3  O   UNL     1      24.977  44.467  53.909  1.00  0.00    -0.267 OA
HETATM    4  H   UNL     1      27.234  45.985  52.287  1.00  0.00     0.169 HD
ENDROOT
BRANCH   1   5
HETATM    5  C   UNL     1      27.721  45.530  54.245  1.00  0.00     0.035 A 
HETATM    6  C   UNL     1      27.684  46.476  55.266  1.00  0.00     0.030 A 
HETATM    7  C   UNL     1      28.575  46.393  56.343  1.00  0.00     0.014 A 
HETATM    8  C   UNL     1      29.522  45.362  56.418  1.00  0.00    -0.026 A 
HETATM    9  C   UNL     1      30.424  45.271  57.490  1.00  0.00     0.012 A 
HETATM   10  C   UNL     1      29.567  44.397  55.390  1.00  0.00    -0.024 A 
HETATM   11  C   UNL     1      31.360  44.238  57.548  1.00  0.00     0.001 A 
HETATM   12  C   UNL     1      31.406  43.284  56.536  1.00  0.00     0.001 A 
HETATM   13  C   UNL     1      30.515  43.362  55.464  1.00  0.00     0.012 A 
HETATM   14  C   UNL     1      28.664  44.494  54.316  1.00  0.00     0.042 A 
ENDBRANCH   1   5
BRANCH   2  15
HETATM   15  C   UNL     1      24.961  45.245  51.700  1.00  0.00     0.073 A 
HETATM   16  S   UNL     1      24.890  46.774  50.935  1.00  0.00    -0.096 SA
HETATM   17  C   UNL     1      24.061  46.137  49.587  1.00  0.00     0.067 A 
HETATM   18  C   UNL     1      23.824  44.776  49.682  1.00  0.00     0.039 A 
HETATM   19  C   UNL     1      24.358  44.274  50.918  1.00  0.00     0.042 A 
BRANCH  18  20
HETATM   20  C   UNL     1      23.125  44.047  48.627  1.00  0.00     0.249 C 
HETATM   21  N   UNL     1      23.810  43.852  47.465  1.00  0.00    -0.366 N 
HETATM   22  H   UNL     1      24.746  44.185  47.297  1.00  0.00     0.159 HD
HETATM   23  H   UNL     1      23.334  43.352  46.727  1.00  0.00     0.159 HD
HETATM   24  O   UNL     1      21.981  43.618  48.750  1.00  0.00    -0.268 OA
ENDBRANCH  18  20
ENDBRANCH   2  15
TORSDOF 3
ENDMDL
MODEL 4
REMARK VINA RESULT:      -8.6      4.207      4.996
REMARK  3 active torsions:
REMARK  status: ('A' for Active; 'I' for Inactive)
REMARK    1  A    between atoms: C_9  and  N_10 
REMARK       I    between atoms: N_10  and  C_11 
REMARK    2  A    between atoms: C_11  and  C_12 
REMARK    3  A    between atoms: C_15  and  C_16 
REMARK       I    between atoms: C_16  and  N_17 
ROOT
HETATM    1  N   UNL     1      28.915  42.641  52.320  1.00  0.00    -0.322 N 
HETATM    2  C   UNL     1      28.335  41.387  52.223  1.00  0.00     0.263 C 
HETATM    3  O   UNL     1      27.879  40.753  53.171  1.00  0.00    -0.267 OA
HETATM    4  H   UNL     1      29.248  43.029  51.445  1.00  0.00     0.169 HD
ENDROOT
BRANCH   1   5
HETATM    5  C   UNL     1      29.086  43.442  53.465  1.00  0.00     0.035 A 
HETATM    6  C   UNL     1      28.370  44.610  53.718  1.00  0.00     0.030 A 
HETATM    7  C   UNL     1      28.610  45.353  54.880  1.00  0.00     0.014 A 
HETATM    8  C   UNL     1      29.574  44.942  55.812  1.00  0.00    -0.026 A 
HETATM    9  C   UNL     1      29.828  45.681  56.979  1.00  0.00     0.012 A 
HETATM   10  C   UNL     1      30.304  43.760  55.568  1.00  0.00    -0.024 A 
HETATM   11  C   UNL     1      30.791  45.258  57.895  1.00  0.00     0.001 A 
HETATM   12  C   UNL     1      31.512  44.092  57.656  1.00  0.00     0.001 A 
HETATM   13  C   UNL     1      31.270  43.346  56.501  1.00  0.00     0.012 A 
HETATM   14  C   UNL     1      30.049  43.025  54.395  1.00  0.00     0.042 A 
ENDBRANCH   1   5
BRANCH   2  15
HETATM   15  C   UNL     1      28.289  40.838  50.866  1.00  0.00     0.073 A 
HETATM   16  S   UNL     1      28.789  39.245  50.492  1.00  0.00    -0.096 SA
HETATM   17  C   UNL     1      28.434  39.449  48.836  1.00  0.00     0.067 A 
HETATM   18  C   UNL     1      27.936  40.705  48.532  1.00  0.00     0.039 A 
HETATM   19  C   UNL     1      27.856  41.498  49.728  1.00  0.00     0.042 A 
BRANCH  18  20
HETATM   20  C   UNL     1      27.574  41.073  47.166  1.00  0.00     0.249 C 
HETATM   21  N   UNL     1      26.241  41.162  46.893  1.00  0.00    -0.366 N 
HETATM   22  H   UNL     1      25.513  40.982  47.565  1.00  0.00     0.159 HD
HETATM   23  H   UNL     1      25.980  41.413  45.950  1.00  0.00     0.159 HD
HETATM   24  O   UNL     1      28.402  41.299  46.289  1.00  0.00    -0.268 OA
ENDBRANCH  18  20
ENDBRANCH   2  15
TORSDOF 3
ENDMDL
MODEL 5
REMARK VINA RESULT:      -8.6      4.142      5.608
REMARK  3 active torsions:
REMARK  status: ('A' for Active; 'I' for Inactive)
REMARK    1  A    between atoms: C_9  and  N_10 
REMARK       I    between atoms: N_10  and  C_11 
REMARK    2  A    between atoms: C_11  and  C_12 
REMARK    3  A    between atoms: C_15  and  C_16 
REMARK       I    between atoms: C_16  and  N_17 
ROOT
HETATM    1  N   UNL     1      28.769  42.900  52.558  1.00  0.00    -0.322 N 
HETATM    2  C   UNL     1      28.143  41.670  52.441  1.00  0.00     0.263 C 
HETATM    3  O   UNL     1      27.731  41.003  53.386  1.00  0.00    -0.267 OA
HETATM    4  H   UNL     1      29.056  43.321  51.682  1.00  0.00     0.169 HD
ENDROOT
BRANCH   1   5
HETATM    5  C   UNL     1      29.042  43.638  53.726  1.00  0.00     0.035 A 
HETATM    6  C   UNL     1      28.370  44.802  54.091  1.00  0.00     0.030 A 
HETATM    7  C   UNL     1      28.712  45.480  55.267  1.00  0.00     0.014 A 
HETATM    8  C   UNL     1      29.734  45.006  56.101  1.00  0.00    -0.026 A 
HETATM    9  C   UNL     1      30.089  45.679  57.281  1.00  0.00     0.012 A 
HETATM   10  C   UNL     1      30.420  43.826  55.743  1.00  0.00    -0.024 A 
HETATM   11  C   UNL     1      31.110  45.194  58.099  1.00  0.00     0.001 A 
HETATM   12  C   UNL     1      31.786  44.029  57.748  1.00  0.00     0.001 A 
HETATM   13  C   UNL     1      31.444  43.349  56.579  1.00  0.00     0.012 A 
HETATM   14  C   UNL     1      30.063  43.157  54.558  1.00  0.00     0.042 A 
ENDBRANCH   1   5
BRANCH   2  15
HETATM   15  C   UNL     1      27.990  41.191  51.065  1.00  0.00     0.073 A 
HETATM   16  S   UNL     1      27.155  42.074  49.862  1.00  0.00    -0.096 SA
HETATM   17  C   UNL     1      27.438  40.872  48.685  1.00  0.00     0.067 A 
HETATM   18  C   UNL     1      28.160  39.793  49.167  1.00  0.00     0.039 A 
HETATM   19  C   UNL     1      28.474  39.998  50.554  1.00  0.00     0.042 A 
BRANCH  18  20
HETATM   20  C   UNL     1      28.501  38.659  48.311  1.00  0.00     0.249 C 
HETATM   21  N   UNL     1      28.848  37.503  48.944  1.00  0.00    -0.366 N 
HETATM   22  H   UNL     1      28.888  37.395  49.944  1.00  0.00     0.159 HD
HETATM   23  H   UNL     1      29.089  36.713  48.361  1.00  0.00     0.159 HD
HETATM   24  O   UNL     1      28.486  38.713  47.085  1.00  0.00    -0.268 OA
ENDBRANCH  18  20
ENDBRANCH   2  15
TORSDOF 3
ENDMDL
MODEL 6
REMARK VINA RESULT:      -8.3      3.076      4.059
REMARK  3 active torsions:
REMARK  status: ('A' for Active; 'I' for Inactive)
REMARK    1  A    between atoms: C_9  and  N_10 
REMARK       I    between atoms: N_10  and  C_11 
REMARK    2  A    between atoms: C_11  and  C_12 
REMARK    3  A    between atoms: C_15  and  C_16 
REMARK       I    between atoms: C_16  and  N_17 
ROOT
HETATM    1  N   UNL     1      27.895  43.791  52.650  1.00  0.00    -0.322 N 
HETATM    2  C   UNL     1      26.553  43.664  52.335  1.00  0.00     0.263 C 
HETATM    3  O   UNL     1      25.628  43.968  53.084  1.00  0.00    -0.267 OA
HETATM    4  H   UNL     1      28.537  43.491  51.926  1.00  0.00     0.169 HD
ENDROOT
BRANCH   1   5
HETATM    5  C   UNL     1      28.476  44.290  53.832  1.00  0.00     0.035 A 
HETATM    6  C   UNL     1      28.121  45.498  54.428  1.00  0.00     0.030 A 
HETATM    7  C   UNL     1      28.756  45.925  55.600  1.00  0.00     0.014 A 
HETATM    8  C   UNL     1      29.760  45.152  56.199  1.00  0.00    -0.026 A 
HETATM    9  C   UNL     1      30.409  45.572  57.372  1.00  0.00     0.012 A 
HETATM   10  C   UNL     1      30.127  43.926  55.605  1.00  0.00    -0.024 A 
HETATM   11  C   UNL     1      31.407  44.790  57.953  1.00  0.00     0.001 A 
HETATM   12  C   UNL     1      31.769  43.579  57.370  1.00  0.00     0.001 A 
HETATM   13  C   UNL     1      31.134  43.149  56.204  1.00  0.00     0.012 A 
HETATM   14  C   UNL     1      29.478  43.511  54.428  1.00  0.00     0.042 A 
ENDBRANCH   1   5
BRANCH   2  15
HETATM   15  C   UNL     1      26.287  43.128  50.998  1.00  0.00     0.073 A 
HETATM   16  S   UNL     1      24.817  43.398  50.166  1.00  0.00    -0.096 SA
HETATM   17  C   UNL     1      25.331  42.484  48.820  1.00  0.00     0.067 A 
HETATM   18  C   UNL     1      26.606  41.964  48.966  1.00  0.00     0.039 A 
HETATM   19  C   UNL     1      27.147  42.352  50.239  1.00  0.00     0.042 A 
BRANCH  18  20
HETATM   20  C   UNL     1      27.223  41.151  47.921  1.00  0.00     0.249 C 
HETATM   21  N   UNL     1      26.504  40.080  47.480  1.00  0.00    -0.366 N 
HETATM   22  H   UNL     1      25.598  39.822  47.835  1.00  0.00     0.159 HD
HETATM   23  H   UNL     1      26.924  39.509  46.759  1.00  0.00     0.159 HD
HETATM   24  O   UNL     1      28.327  41.394  47.444  1.00  0.00    -0.268 OA
ENDBRANCH  18  20
ENDBRANCH   2  15
TORSDOF 3
ENDMDL
MODEL 7
REMARK VINA RESULT:      -8.2      2.242      3.324
REMARK  3 active torsions:
REMARK  status: ('A' for Active; 'I' for Inactive)
REMARK    1  A    between atoms: C_9  and  N_10 
REMARK       I    between atoms: N_10  and  C_11 
REMARK    2  A    between atoms: C_11  and  C_12 
REMARK    3  A    between atoms: C_15  and  C_16 
REMARK       I    between atoms: C_16  and  N_17 
ROOT
HETATM    1  N   UNL     1      25.846  45.808  52.310  1.00  0.00    -0.322 N 
HETATM    2  C   UNL     1      25.658  46.758  51.320  1.00  0.00     0.263 C 
HETATM    3  O   UNL     1      26.324  47.783  51.201  1.00  0.00    -0.267 OA
HETATM    4  H   UNL     1      25.211  45.019  52.275  1.00  0.00     0.169 HD
ENDROOT
BRANCH   1   5
HETATM    5  C   UNL     1      26.807  45.791  53.340  1.00  0.00     0.035 A 
HETATM    6  C   UNL     1      26.926  46.780  54.314  1.00  0.00     0.030 A 
HETATM    7  C   UNL     1      27.918  46.690  55.298  1.00  0.00     0.014 A 
HETATM    8  C   UNL     1      28.811  45.610  55.326  1.00  0.00    -0.026 A 
HETATM    9  C   UNL     1      29.813  45.511  56.305  1.00  0.00     0.012 A 
HETATM   10  C   UNL     1      28.699  44.602  54.345  1.00  0.00    -0.024 A 
HETATM   11  C   UNL     1      30.694  44.430  56.317  1.00  0.00     0.001 A 
HETATM   12  C   UNL     1      30.584  43.434  55.351  1.00  0.00     0.001 A 
HETATM   13  C   UNL     1      29.593  43.518  54.372  1.00  0.00     0.012 A 
HETATM   14  C   UNL     1      27.696  44.707  53.364  1.00  0.00     0.042 A 
ENDBRANCH   1   5
BRANCH   2  15
HETATM   15  C   UNL     1      24.577  46.455  50.380  1.00  0.00     0.073 A 
HETATM   16  S   UNL     1      23.780  47.660  49.463  1.00  0.00    -0.096 SA
HETATM   17  C   UNL     1      22.756  46.515  48.721  1.00  0.00     0.067 A 
HETATM   18  C   UNL     1      22.990  45.216  49.141  1.00  0.00     0.039 A 
HETATM   19  C   UNL     1      24.056  45.202  50.105  1.00  0.00     0.042 A 
BRANCH  18  20
HETATM   20  C   UNL     1      22.213  44.094  48.622  1.00  0.00     0.249 C 
HETATM   21  N   UNL     1      21.294  44.385  47.658  1.00  0.00    -0.366 N 
HETATM   22  H   UNL     1      21.122  45.311  47.301  1.00  0.00     0.159 HD
HETATM   23  H   UNL     1      20.749  43.615  47.294  1.00  0.00     0.159 HD
HETATM   24  O   UNL     1      22.356  42.939  49.012  1.00  0.00    -0.268 OA
ENDBRANCH  18  20
ENDBRANCH   2  15
TORSDOF 3
ENDMDL
MODEL 8
REMARK VINA RESULT:      -8.2      3.625      4.365
REMARK  3 active torsions:
REMARK  status: ('A' for Active; 'I' for Inactive)
REMARK    1  A    between atoms: C_9  and  N_10 
REMARK       I    between atoms: N_10  and  C_11 
REMARK    2  A    between atoms: C_11  and  C_12 
REMARK    3  A    between atoms: C_15  and  C_16 
REMARK       I    between atoms: C_16  and  N_17 
ROOT
HETATM    1  N   UNL     1      27.033  43.081  51.812  1.00  0.00    -0.322 N 
HETATM    2  C   UNL     1      27.036  43.444  50.476  1.00  0.00     0.263 C 
HETATM    3  O   UNL     1      27.555  44.464  50.031  1.00  0.00    -0.267 OA
HETATM    4  H   UNL     1      26.557  42.211  52.020  1.00  0.00     0.169 HD
ENDROOT
BRANCH   1   5
HETATM    5  C   UNL     1      27.612  43.753  52.905  1.00  0.00     0.035 A 
HETATM    6  C   UNL     1      27.153  44.968  53.410  1.00  0.00     0.030 A 
HETATM    7  C   UNL     1      27.794  45.574  54.497  1.00  0.00     0.014 A 
HETATM    8  C   UNL     1      28.910  44.976  55.100  1.00  0.00    -0.026 A 
HETATM    9  C   UNL     1      29.566  45.576  56.187  1.00  0.00     0.012 A 
HETATM   10  C   UNL     1      29.383  43.745  54.599  1.00  0.00    -0.024 A 
HETATM   11  C   UNL     1      30.675  44.967  56.774  1.00  0.00     0.001 A 
HETATM   12  C   UNL     1      31.142  43.752  56.282  1.00  0.00     0.001 A 
HETATM   13  C   UNL     1      30.501  43.144  55.202  1.00  0.00     0.012 A 
HETATM   14  C   UNL     1      28.726  43.149  53.506  1.00  0.00     0.042 A 
ENDBRANCH   1   5
BRANCH   2  15
HETATM   15  C   UNL     1      26.360  42.500  49.584  1.00  0.00     0.073 A 
HETATM   16  S   UNL     1      27.205  41.392  48.592  1.00  0.00    -0.096 SA
HETATM   17  C   UNL     1      25.758  40.759  47.947  1.00  0.00     0.067 A 
HETATM   18  C   UNL     1      24.621  41.360  48.459  1.00  0.00     0.039 A 
HETATM   19  C   UNL     1      24.992  42.369  49.413  1.00  0.00     0.042 A 
BRANCH  18  20
HETATM   20  C   UNL     1      23.284  40.957  48.030  1.00  0.00     0.249 C 
HETATM   21  N   UNL     1      23.199  39.800  47.312  1.00  0.00    -0.366 N 
HETATM   22  H   UNL     1      23.991  39.230  47.062  1.00  0.00     0.159 HD
HETATM   23  H   UNL     1      22.279  39.514  47.007  1.00  0.00     0.159 HD
HETATM   24  O   UNL     1      22.272  41.602  48.285  1.00  0.00    -0.268 OA
ENDBRANCH  18  20
ENDBRANCH   2  15
TORSDOF 3
ENDMDL
MODEL 9
REMARK VINA RESULT:      -7.7      5.042     10.261
REMARK  3 active torsions:
REMARK  status: ('A' for Active; 'I' for Inactive)
REMARK    1  A    between atoms: C_9  and  N_10 
REMARK       I    between atoms: N_10  and  C_11 
REMARK    2  A    between atoms: C_11  and  C_12 
REMARK    3  A    between atoms: C_15  and  C_16 
REMARK       I    between atoms: C_16  and  N_17 
ROOT
HETATM    1  N   UNL     1      22.760  48.033  49.426  1.00  0.00    -0.322 N 
HETATM    2  C   UNL     1      24.135  47.988  49.587  1.00  0.00     0.263 C 
HETATM    3  O   UNL     1      24.881  48.958  49.492  1.00  0.00    -0.267 OA
HETATM    4  H   UNL     1      22.286  47.144  49.530  1.00  0.00     0.169 HD
ENDROOT
BRANCH   1   5
HETATM    5  C   UNL     1      21.945  49.148  49.150  1.00  0.00     0.035 A 
HETATM    6  C   UNL     1      22.337  50.228  48.363  1.00  0.00     0.030 A 
HETATM    7  C   UNL     1      21.466  51.303  48.147  1.00  0.00     0.014 A 
HETATM    8  C   UNL     1      20.185  51.318  48.716  1.00  0.00    -0.026 A 
HETATM    9  C   UNL     1      19.304  52.391  48.512  1.00  0.00     0.012 A 
HETATM   10  C   UNL     1      19.776  50.228  49.514  1.00  0.00    -0.024 A 
HETATM   11  C   UNL     1      18.033  52.390  49.087  1.00  0.00     0.001 A 
HETATM   12  C   UNL     1      17.627  51.316  49.873  1.00  0.00     0.001 A 
HETATM   13  C   UNL     1      18.492  50.241  50.085  1.00  0.00     0.012 A 
HETATM   14  C   UNL     1      20.664  49.156  49.720  1.00  0.00     0.042 A 
ENDBRANCH   1   5
BRANCH   2  15
HETATM   15  C   UNL     1      24.671  46.660  49.896  1.00  0.00     0.073 A 
HETATM   16  S   UNL     1      26.346  46.314  49.902  1.00  0.00    -0.096 SA
HETATM   17  C   UNL     1      26.077  44.681  50.316  1.00  0.00     0.067 A 
HETATM   18  C   UNL     1      24.737  44.365  50.458  1.00  0.00     0.039 A 
HETATM   19  C   UNL     1      23.934  45.531  50.212  1.00  0.00     0.042 A 
BRANCH  18  20
HETATM   20  C   UNL     1      24.303  43.015  50.808  1.00  0.00     0.249 C 
HETATM   21  N   UNL     1      25.286  42.119  51.108  1.00  0.00    -0.366 N 
HETATM   22  H   UNL     1      26.270  42.332  51.092  1.00  0.00     0.159 HD
HETATM   23  H   UNL     1      24.997  41.181  51.349  1.00  0.00     0.159 HD
HETATM   24  O   UNL     1      23.125  42.674  50.840  1.00  0.00    -0.268 OA
ENDBRANCH  18  20
ENDBRANCH   2  15
TORSDOF 3
ENDMDL
MODEL 10
REMARK VINA RESULT:      -7.5      9.967     13.017
REMARK  3 active torsions:
REMARK  status: ('A' for Active; 'I' for Inactive)
REMARK    1  A    between atoms: C_9  and  N_10 
REMARK       I    between atoms: N_10  and  C_11 
REMARK    2  A    between atoms: C_11  and  C_12 
REMARK    3  A    between atoms: C_15  and  C_16 
REMARK       I    between atoms: C_16  and  N_17 
ROOT
HETATM    1  N   UNL     1      17.426  51.971  49.864  1.00  0.00    -0.322 N 
HETATM    2  C   UNL     1      16.249  52.087  49.143  1.00  0.00     0.263 C 
HETATM    3  O   UNL     1      15.955  51.399  48.170  1.00  0.00    -0.267 OA
HETATM    4  H   UNL     1      17.522  52.617  50.638  1.00  0.00     0.169 HD
ENDROOT
BRANCH   1   5
HETATM    5  C   UNL     1      18.490  51.069  49.667  1.00  0.00     0.035 A 
HETATM    6  C   UNL     1      18.459  49.728  50.043  1.00  0.00     0.030 A 
HETATM    7  C   UNL     1      19.566  48.902  49.818  1.00  0.00     0.014 A 
HETATM    8  C   UNL     1      20.727  49.401  49.212  1.00  0.00    -0.026 A 
HETATM    9  C   UNL     1      21.847  48.584  48.985  1.00  0.00     0.012 A 
HETATM   10  C   UNL     1      20.770  50.758  48.825  1.00  0.00    -0.024 A 
HETATM   11  C   UNL     1      22.995  49.099  48.382  1.00  0.00     0.001 A 
HETATM   12  C   UNL     1      23.038  50.436  47.998  1.00  0.00     0.001 A 
HETATM   13  C   UNL     1      21.933  51.260  48.217  1.00  0.00     0.012 A 
HETATM   14  C   UNL     1      19.648  51.574  49.058  1.00  0.00     0.042 A 
ENDBRANCH   1   5
BRANCH   2  15
HETATM   15  C   UNL     1      15.333  53.120  49.633  1.00  0.00     0.073 A 
HETATM   16  S   UNL     1      14.346  54.053  48.593  1.00  0.00    -0.096 SA
HETATM   17  C   UNL     1      13.679  54.927  49.897  1.00  0.00     0.067 A 
HETATM   18  C   UNL     1      14.178  54.539  51.129  1.00  0.00     0.039 A 
HETATM   19  C   UNL     1      15.138  53.484  50.955  1.00  0.00     0.042 A 
BRANCH  18  20
HETATM   20  C   UNL     1      13.732  55.172  52.368  1.00  0.00     0.249 C 
HETATM   21  N   UNL     1      14.641  55.228  53.383  1.00  0.00    -0.366 N 
HETATM   22  H   UNL     1      15.575  54.857  53.328  1.00  0.00     0.159 HD
HETATM   23  H   UNL     1      14.341  55.661  54.246  1.00  0.00     0.159 HD
HETATM   24  O   UNL     1      12.608  55.639  52.517  1.00  0.00    -0.268 OA
ENDBRANCH  18  20
ENDBRANCH   2  15
TORSDOF 3
ENDMDL
