MODEL 1
REMARK VINA RESULT:      -9.6      0.000      0.000
REMARK  6 active torsions:
REMARK  status: ('A' for Active; 'I' for Inactive)
REMARK    1  A    between atoms: C_2  and  C_3 
REMARK    2  A    between atoms: C_6  and  N_7 
REMARK    3  A    between atoms: C_8  and  O_9 
REMARK    4  A    between atoms: C_8  and  C_10 
REMARK       I    between atoms: C_10  and  N_11 
REMARK    5  A    between atoms: N_11  and  C_12 
REMARK    6  A    between atoms: C_12  and  C_13 
ROOT
HETATM    1  N   UNL     1      18.655  49.584  49.258  1.00  0.00    -0.254 N 
HETATM    2  C   UNL     1      19.644  49.435  48.175  1.00  0.00     0.256 C 
HETATM    3  C   UNL     1      19.882  47.976  47.848  1.00  0.00     0.034 A 
HETATM    4  C   UNL     1      19.787  47.065  48.894  1.00  0.00     0.048 A 
HETATM    5  N   UNL     1      19.363  47.523  50.139  1.00  0.00    -0.308 N 
HETATM    6  C   UNL     1      18.744  48.727  50.353  1.00  0.00     0.330 C 
HETATM    7  O   UNL     1      18.281  48.946  51.471  1.00  0.00    -0.246 OA
HETATM    8  C   UNL     1      20.281  47.518  46.583  1.00  0.00     0.015 A 
HETATM    9  C   UNL     1      20.562  46.167  46.380  1.00  0.00     0.001 A 
HETATM   10  C   UNL     1      20.469  45.268  47.440  1.00  0.00     0.002 A 
HETATM   11  C   UNL     1      20.089  45.717  48.706  1.00  0.00     0.030 A 
HETATM   12  H   UNL     1      19.306  46.878  50.916  1.00  0.00     0.170 HD
ENDROOT
BRANCH   2  13
HETATM   13  O   UNL     1      19.202  50.069  46.970  1.00  0.00    -0.359 OA
HETATM   14  H   UNL     1      18.292  49.761  46.827  1.00  0.00     0.213 HD
ENDBRANCH   2  13
BRANCH   2  15
HETATM   15  C   UNL     1      21.045  50.100  48.569  1.00  0.00     0.279 C 
HETATM   16  N   UNL     1      22.083  49.994  47.658  1.00  0.00    -0.352 N 
HETATM   17  H   UNL     1      22.067  49.201  47.031  1.00  0.00     0.162 HD
HETATM   18  O   UNL     1      21.191  50.716  49.628  1.00  0.00    -0.268 OA
BRANCH  16  19
HETATM   19  C   UNL     1      23.367  50.592  47.947  1.00  0.00     0.161 C 
BRANCH  19  20
HETATM   20  C   UNL     1      24.404  49.641  48.502  1.00  0.00    -0.038 A 
HETATM   21  C   UNL     1      23.944  48.524  49.228  1.00  0.00     0.048 A 
HETATM   22  C   UNL     1      24.870  47.665  49.781  1.00  0.00     0.105 A 
HETATM   23  C   UNL     1      26.220  47.868  49.638  1.00  0.00     0.105 A 
HETATM   24  O   UNL     1      24.586  46.557  50.518  1.00  0.00    -0.323 OA
HETATM   25  O   UNL     1      26.958  46.914  50.263  1.00  0.00    -0.323 OA
HETATM   26  C   UNL     1      26.716  48.944  48.938  1.00  0.00     0.040 A 
HETATM   27  C   UNL     1      25.916  46.098  50.838  1.00  0.00     0.352 A 
HETATM   28  C   UNL     1      25.799  49.841  48.374  1.00  0.00     0.012 A 
ENDBRANCH  19  20
ENDBRANCH  16  19
ENDBRANCH   2  15
BRANCH   1  29
HETATM   29  C   UNL     1      17.738  50.679  49.268  1.00  0.00     0.043 A 
HETATM   30  C   UNL     1      18.067  51.918  49.826  1.00  0.00     0.030 A 
HETATM   31  C   UNL     1      17.133  52.962  49.854  1.00  0.00     0.009 A 
HETATM   32  C   UNL     1      15.841  52.781  49.348  1.00  0.00    -0.058 A 
HETATM   33  C   UNL     1      15.498  51.532  48.823  1.00  0.00     0.009 A 
HETATM   34  C   UNL     1      16.434  50.497  48.787  1.00  0.00     0.030 A 
BRANCH  32  35
HETATM   35  C   UNL     1      14.824  53.892  49.394  1.00  0.00     0.034 C 
HETATM   36  C   UNL     1      13.759  53.658  50.456  1.00  0.00     0.010 C 
ENDBRANCH  32  35
ENDBRANCH   1  29
TORSDOF 6
ENDMDL
MODEL 2
REMARK VINA RESULT:      -9.5      7.693     12.010
REMARK  6 active torsions:
REMARK  status: ('A' for Active; 'I' for Inactive)
REMARK    1  A    between atoms: C_2  and  C_3 
REMARK    2  A    between atoms: C_6  and  N_7 
REMARK    3  A    between atoms: C_8  and  O_9 
REMARK    4  A    between atoms: C_8  and  C_10 
REMARK       I    between atoms: C_10  and  N_11 
REMARK    5  A    between atoms: N_11  and  C_12 
REMARK    6  A    between atoms: C_12  and  C_13 
ROOT
HETATM    1  N   UNL     1      27.360  43.720  53.541  1.00  0.00    -0.254 N 
HETATM    2  C   UNL     1      27.559  43.504  52.097  1.00  0.00     0.256 C 
HETATM    3  C   UNL     1      26.514  44.241  51.285  1.00  0.00     0.034 A 
HETATM    4  C   UNL     1      25.250  44.378  51.847  1.00  0.00     0.048 A 
HETATM    5  N   UNL     1      25.053  43.944  53.155  1.00  0.00    -0.308 N 
HETATM    6  C   UNL     1      26.062  43.671  54.042  1.00  0.00     0.330 C 
HETATM    7  O   UNL     1      25.755  43.446  55.212  1.00  0.00    -0.246 OA
HETATM    8  C   UNL     1      26.729  44.702  49.977  1.00  0.00     0.015 A 
HETATM    9  C   UNL     1      25.692  45.299  49.261  1.00  0.00     0.001 A 
HETATM   10  C   UNL     1      24.428  45.422  49.836  1.00  0.00     0.002 A 
HETATM   11  C   UNL     1      24.201  44.952  51.130  1.00  0.00     0.030 A 
HETATM   12  H   UNL     1      24.135  44.018  53.574  1.00  0.00     0.170 HD
ENDROOT
BRANCH   2  13
HETATM   13  O   UNL     1      28.839  43.979  51.665  1.00  0.00    -0.359 OA
HETATM   14  H   UNL     1      28.772  44.948  51.654  1.00  0.00     0.213 HD
ENDBRANCH   2  13
BRANCH   2  15
HETATM   15  C   UNL     1      27.484  41.949  51.724  1.00  0.00     0.279 C 
HETATM   16  N   UNL     1      28.671  41.309  51.409  1.00  0.00    -0.352 N 
HETATM   17  H   UNL     1      29.415  41.878  51.026  1.00  0.00     0.162 HD
HETATM   18  O   UNL     1      26.417  41.331  51.749  1.00  0.00    -0.268 OA
BRANCH  16  19
HETATM   19  C   UNL     1      28.672  39.900  51.083  1.00  0.00     0.161 C 
BRANCH  19  20
HETATM   20  C   UNL     1      28.525  39.585  49.611  1.00  0.00    -0.038 A 
HETATM   21  C   UNL     1      28.471  40.669  48.713  1.00  0.00     0.048 A 
HETATM   22  C   UNL     1      28.295  40.410  47.370  1.00  0.00     0.105 A 
HETATM   23  C   UNL     1      28.176  39.129  46.891  1.00  0.00     0.105 A 
HETATM   24  O   UNL     1      28.208  41.343  46.385  1.00  0.00    -0.323 OA
HETATM   25  O   UNL     1      28.002  39.092  45.543  1.00  0.00    -0.323 OA
HETATM   26  C   UNL     1      28.224  38.039  47.730  1.00  0.00     0.040 A 
HETATM   27  C   UNL     1      28.001  40.501  45.232  1.00  0.00     0.352 A 
HETATM   28  C   UNL     1      28.391  38.272  49.102  1.00  0.00     0.012 A 
ENDBRANCH  19  20
ENDBRANCH  16  19
ENDBRANCH   2  15
BRANCH   1  29
HETATM   29  C   UNL     1      28.477  43.809  54.429  1.00  0.00     0.043 A 
HETATM   30  C   UNL     1      28.806  44.996  55.090  1.00  0.00     0.030 A 
HETATM   31  C   UNL     1      29.929  45.062  55.926  1.00  0.00     0.009 A 
HETATM   32  C   UNL     1      30.762  43.950  56.096  1.00  0.00    -0.058 A 
HETATM   33  C   UNL     1      30.455  42.774  55.407  1.00  0.00     0.009 A 
HETATM   34  C   UNL     1      29.330  42.708  54.584  1.00  0.00     0.030 A 
BRANCH  32  35
HETATM   35  C   UNL     1      31.983  44.020  56.976  1.00  0.00     0.034 C 
HETATM   36  C   UNL     1      31.691  44.671  58.321  1.00  0.00     0.010 C 
ENDBRANCH  32  35
ENDBRANCH   1  29
TORSDOF 6
ENDMDL
MODEL 3
REMARK VINA RESULT:      -9.2      5.217      9.685
REMARK  6 active torsions:
REMARK  status: ('A' for Active; 'I' for Inactive)
REMARK    1  A    between atoms: C_2  and  C_3 
REMARK    2  A    between atoms: C_6  and  N_7 
REMARK    3  A    between atoms: C_8  and  O_9 
REMARK    4  A    between atoms: C_8  and  C_10 
REMARK       I    between atoms: C_10  and  N_11 
REMARK    5  A    between atoms: N_11  and  C_12 
REMARK    6  A    between atoms: C_12  and  C_13 
ROOT
HETATM    1  N   UNL     1      26.103  45.750  49.807  1.00  0.00    -0.254 N 
HETATM    2  C   UNL     1      24.922  46.380  50.426  1.00  0.00     0.256 C 
HETATM    3  C   UNL     1      24.559  47.670  49.722  1.00  0.00     0.034 A 
HETATM    4  C   UNL     1      25.600  48.418  49.183  1.00  0.00     0.048 A 
HETATM    5  N   UNL     1      26.886  47.885  49.213  1.00  0.00    -0.308 N 
HETATM    6  C   UNL     1      27.174  46.566  49.452  1.00  0.00     0.330 C 
HETATM    7  O   UNL     1      28.336  46.195  49.299  1.00  0.00    -0.246 OA
HETATM    8  C   UNL     1      23.254  48.186  49.670  1.00  0.00     0.015 A 
HETATM    9  C   UNL     1      23.010  49.423  49.074  1.00  0.00     0.001 A 
HETATM   10  C   UNL     1      24.066  50.164  48.546  1.00  0.00     0.002 A 
HETATM   11  C   UNL     1      25.368  49.666  48.607  1.00  0.00     0.030 A 
HETATM   12  H   UNL     1      27.659  48.423  48.843  1.00  0.00     0.170 HD
ENDROOT
BRANCH   2  13
HETATM   13  O   UNL     1      23.775  45.526  50.358  1.00  0.00    -0.359 OA
HETATM   14  H   UNL     1      24.027  44.790  49.774  1.00  0.00     0.213 HD
ENDBRANCH   2  13
BRANCH   2  15
HETATM   15  C   UNL     1      25.176  46.702  51.973  1.00  0.00     0.279 C 
HETATM   16  N   UNL     1      25.398  45.631  52.822  1.00  0.00    -0.352 N 
HETATM   17  H   UNL     1      24.993  44.742  52.559  1.00  0.00     0.162 HD
HETATM   18  O   UNL     1      25.211  47.862  52.392  1.00  0.00    -0.268 OA
BRANCH  16  19
HETATM   19  C   UNL     1      25.654  45.858  54.227  1.00  0.00     0.161 C 
BRANCH  19  20
HETATM   20  C   UNL     1      27.074  45.583  54.670  1.00  0.00    -0.038 A 
HETATM   21  C   UNL     1      27.621  44.321  54.364  1.00  0.00     0.048 A 
HETATM   22  C   UNL     1      28.898  44.030  54.794  1.00  0.00     0.105 A 
HETATM   23  C   UNL     1      29.646  44.936  55.505  1.00  0.00     0.105 A 
HETATM   24  O   UNL     1      29.557  42.857  54.592  1.00  0.00    -0.323 OA
HETATM   25  O   UNL     1      30.871  44.451  55.838  1.00  0.00    -0.323 OA
HETATM   26  C   UNL     1      29.154  46.180  55.826  1.00  0.00     0.040 A 
HETATM   27  C   UNL     1      30.799  43.124  55.276  1.00  0.00     0.352 A 
HETATM   28  C   UNL     1      27.854  46.501  55.412  1.00  0.00     0.012 A 
ENDBRANCH  19  20
ENDBRANCH  16  19
ENDBRANCH   2  15
BRANCH   1  29
HETATM   29  C   UNL     1      26.218  44.328  49.728  1.00  0.00     0.043 A 
HETATM   30  C   UNL     1      25.435  43.568  48.854  1.00  0.00     0.030 A 
HETATM   31  C   UNL     1      25.545  42.171  48.825  1.00  0.00     0.009 A 
HETATM   32  C   UNL     1      26.420  41.504  49.690  1.00  0.00    -0.058 A 
HETATM   33  C   UNL     1      27.176  42.259  50.589  1.00  0.00     0.009 A 
HETATM   34  C   UNL     1      27.073  43.651  50.608  1.00  0.00     0.030 A 
BRANCH  32  35
HETATM   35  C   UNL     1      26.528  40.000  49.680  1.00  0.00     0.034 C 
HETATM   36  C   UNL     1      27.970  39.524  49.571  1.00  0.00     0.010 C 
ENDBRANCH  32  35
ENDBRANCH   1  29
TORSDOF 6
ENDMDL
MODEL 4
REMARK VINA RESULT:      -9.1      4.637      7.786
REMARK  6 active torsions:
REMARK  status: ('A' for Active; 'I' for Inactive)
REMARK    1  A    between atoms: C_2  and  C_3 
REMARK    2  A    between atoms: C_6  and  N_7 
REMARK    3  A    between atoms: C_8  and  O_9 
REMARK    4  A    between atoms: C_8  and  C_10 
REMARK       I    between atoms: C_10  and  N_11 
REMARK    5  A    between atoms: N_11  and  C_12 
REMARK    6  A    between atoms: C_12  and  C_13 
ROOT
HETATM    1  N   UNL     1      23.830  44.881  49.509  1.00  0.00    -0.254 N 
HETATM    2  C   UNL     1      25.216  44.597  49.923  1.00  0.00     0.256 C 
HETATM    3  C   UNL     1      25.638  43.205  49.504  1.00  0.00     0.034 A 
HETATM    4  C   UNL     1      24.656  42.221  49.480  1.00  0.00     0.048 A 
HETATM    5  N   UNL     1      23.336  42.593  49.720  1.00  0.00    -0.308 N 
HETATM    6  C   UNL     1      22.874  43.883  49.681  1.00  0.00     0.330 C 
HETATM    7  O   UNL     1      21.660  44.062  49.759  1.00  0.00    -0.246 OA
HETATM    8  C   UNL     1      26.968  42.845  49.234  1.00  0.00     0.015 A 
HETATM    9  C   UNL     1      27.291  41.522  48.933  1.00  0.00     0.001 A 
HETATM   10  C   UNL     1      26.296  40.546  48.921  1.00  0.00     0.002 A 
HETATM   11  C   UNL     1      24.974  40.892  49.204  1.00  0.00     0.030 A 
HETATM   12  H   UNL     1      22.611  41.888  49.725  1.00  0.00     0.170 HD
ENDROOT
BRANCH   2  13
HETATM   13  O   UNL     1      26.140  45.515  49.329  1.00  0.00    -0.359 OA
HETATM   14  H   UNL     1      26.058  45.388  48.369  1.00  0.00     0.213 HD
ENDBRANCH   2  13
BRANCH   2  15
HETATM   15  C   UNL     1      25.387  44.720  51.510  1.00  0.00     0.279 C 
HETATM   16  N   UNL     1      26.405  45.532  51.983  1.00  0.00    -0.352 N 
HETATM   17  H   UNL     1      27.210  45.658  51.384  1.00  0.00     0.162 HD
HETATM   18  O   UNL     1      24.621  44.145  52.288  1.00  0.00    -0.268 OA
BRANCH  16  19
HETATM   19  C   UNL     1      26.598  45.700  53.406  1.00  0.00     0.161 C 
BRANCH  19  20
HETATM   20  C   UNL     1      27.743  44.906  53.994  1.00  0.00    -0.038 A 
HETATM   21  C   UNL     1      28.504  45.513  55.013  1.00  0.00     0.048 A 
HETATM   22  C   UNL     1      29.579  44.826  55.537  1.00  0.00     0.105 A 
HETATM   23  C   UNL     1      29.922  43.573  55.094  1.00  0.00     0.105 A 
HETATM   24  O   UNL     1      30.415  45.280  56.509  1.00  0.00    -0.323 OA
HETATM   25  O   UNL     1      31.014  43.076  55.732  1.00  0.00    -0.323 OA
HETATM   26  C   UNL     1      29.208  42.940  54.101  1.00  0.00     0.040 A 
HETATM   27  C   UNL     1      31.335  44.173  56.613  1.00  0.00     0.352 A 
HETATM   28  C   UNL     1      28.116  43.618  53.542  1.00  0.00     0.012 A 
ENDBRANCH  19  20
ENDBRANCH  16  19
ENDBRANCH   2  15
BRANCH   1  29
HETATM   29  C   UNL     1      23.442  46.194  49.101  1.00  0.00     0.043 A 
HETATM   30  C   UNL     1      23.854  47.338  49.790  1.00  0.00     0.030 A 
HETATM   31  C   UNL     1      23.426  48.610  49.387  1.00  0.00     0.009 A 
HETATM   32  C   UNL     1      22.555  48.762  48.303  1.00  0.00    -0.058 A 
HETATM   33  C   UNL     1      22.111  47.618  47.635  1.00  0.00     0.009 A 
HETATM   34  C   UNL     1      22.548  46.353  48.032  1.00  0.00     0.030 A 
BRANCH  32  35
HETATM   35  C   UNL     1      22.073  50.126  47.877  1.00  0.00     0.034 C 
HETATM   36  C   UNL     1      23.071  51.224  48.216  1.00  0.00     0.010 C 
ENDBRANCH  32  35
ENDBRANCH   1  29
TORSDOF 6
ENDMDL
MODEL 5
REMARK VINA RESULT:      -9.0      9.641     12.783
REMARK  6 active torsions:
REMARK  status: ('A' for Active; 'I' for Inactive)
REMARK    1  A    between atoms: C_2  and  C_3 
REMARK    2  A    between atoms: C_6  and  N_7 
REMARK    3  A    between atoms: C_8  and  O_9 
REMARK    4  A    between atoms: C_8  and  C_10 
REMARK       I    between atoms: C_10  and  N_11 
REMARK    5  A    between atoms: N_11  and  C_12 
REMARK    6  A    between atoms: C_12  and  C_13 
ROOT
HETATM    1  N   UNL     1      27.503  48.582  40.106  1.00  0.00    -0.254 N 
HETATM    2  C   UNL     1      28.133  49.546  41.025  1.00  0.00     0.256 C 
HETATM    3  C   UNL     1      28.374  50.876  40.343  1.00  0.00     0.034 A 
HETATM    4  C   UNL     1      28.663  50.851  38.983  1.00  0.00     0.048 A 
HETATM    5  N   UNL     1      28.595  49.634  38.311  1.00  0.00    -0.308 N 
HETATM    6  C   UNL     1      27.978  48.511  38.799  1.00  0.00     0.330 C 
HETATM    7  O   UNL     1      27.853  47.549  38.043  1.00  0.00    -0.246 OA
HETATM    8  C   UNL     1      28.412  52.102  41.024  1.00  0.00     0.015 A 
HETATM    9  C   UNL     1      28.722  53.278  40.339  1.00  0.00     0.001 A 
HETATM   10  C   UNL     1      29.017  53.235  38.978  1.00  0.00     0.002 A 
HETATM   11  C   UNL     1      28.997  52.017  38.297  1.00  0.00     0.030 A 
HETATM   12  H   UNL     1      28.821  49.594  37.325  1.00  0.00     0.170 HD
ENDROOT
BRANCH   2  13
HETATM   13  O   UNL     1      27.307  49.801  42.166  1.00  0.00    -0.359 OA
HETATM   14  H   UNL     1      27.551  49.131  42.826  1.00  0.00     0.213 HD
ENDBRANCH   2  13
BRANCH   2  15
HETATM   15  C   UNL     1      29.534  48.998  41.574  1.00  0.00     0.279 C 
HETATM   16  N   UNL     1      30.683  49.415  40.922  1.00  0.00    -0.352 N 
HETATM   17  H   UNL     1      30.595  49.668  39.947  1.00  0.00     0.162 HD
HETATM   18  O   UNL     1      29.596  48.262  42.562  1.00  0.00    -0.268 OA
BRANCH  16  19
HETATM   19  C   UNL     1      31.980  48.972  41.383  1.00  0.00     0.161 C 
BRANCH  19  20
HETATM   20  C   UNL     1      32.770  50.004  42.158  1.00  0.00    -0.038 A 
HETATM   21  C   UNL     1      34.105  50.231  41.770  1.00  0.00     0.048 A 
HETATM   22  C   UNL     1      34.860  51.136  42.487  1.00  0.00     0.105 A 
HETATM   23  C   UNL     1      34.343  51.818  43.559  1.00  0.00     0.105 A 
HETATM   24  O   UNL     1      36.161  51.452  42.247  1.00  0.00    -0.323 OA
HETATM   25  O   UNL     1      35.250  52.653  44.130  1.00  0.00    -0.323 OA
HETATM   26  C   UNL     1      33.044  51.630  43.975  1.00  0.00     0.040 A 
HETATM   27  C   UNL     1      36.408  52.399  43.307  1.00  0.00     0.352 A 
HETATM   28  C   UNL     1      32.256  50.708  43.272  1.00  0.00     0.012 A 
ENDBRANCH  19  20
ENDBRANCH  16  19
ENDBRANCH   2  15
BRANCH   1  29
HETATM   29  C   UNL     1      26.550  47.630  40.582  1.00  0.00     0.043 A 
HETATM   30  C   UNL     1      25.173  47.865  40.524  1.00  0.00     0.030 A 
HETATM   31  C   UNL     1      24.264  46.928  41.034  1.00  0.00     0.009 A 
HETATM   32  C   UNL     1      24.714  45.748  41.637  1.00  0.00    -0.058 A 
HETATM   33  C   UNL     1      26.091  45.528  41.729  1.00  0.00     0.009 A 
HETATM   34  C   UNL     1      26.993  46.458  41.211  1.00  0.00     0.030 A 
BRANCH  32  35
HETATM   35  C   UNL     1      23.743  44.745  42.206  1.00  0.00     0.034 C 
HETATM   36  C   UNL     1      24.014  44.448  43.675  1.00  0.00     0.010 C 
ENDBRANCH  32  35
ENDBRANCH   1  29
TORSDOF 6
ENDMDL
MODEL 6
REMARK VINA RESULT:      -8.8      5.476     10.963
REMARK  6 active torsions:
REMARK  status: ('A' for Active; 'I' for Inactive)
REMARK    1  A    between atoms: C_2  and  C_3 
REMARK    2  A    between atoms: C_6  and  N_7 
REMARK    3  A    between atoms: C_8  and  O_9 
REMARK    4  A    between atoms: C_8  and  C_10 
REMARK       I    between atoms: C_10  and  N_11 
REMARK    5  A    between atoms: N_11  and  C_12 
REMARK    6  A    between atoms: C_12  and  C_13 
ROOT
HETATM    1  N   UNL     1      26.744  41.406  49.614  1.00  0.00    -0.254 N 
HETATM    2  C   UNL     1      26.634  42.776  50.145  1.00  0.00     0.256 C 
HETATM    3  C   UNL     1      27.316  42.898  51.491  1.00  0.00     0.034 A 
HETATM    4  C   UNL     1      27.299  41.780  52.318  1.00  0.00     0.048 A 
HETATM    5  N   UNL     1      26.770  40.592  51.818  1.00  0.00    -0.308 N 
HETATM    6  C   UNL     1      26.542  40.342  50.490  1.00  0.00     0.330 C 
HETATM    7  O   UNL     1      26.218  39.201  50.167  1.00  0.00    -0.246 OA
HETATM    8  C   UNL     1      27.873  44.092  51.976  1.00  0.00     0.015 A 
HETATM    9  C   UNL     1      28.411  44.147  53.261  1.00  0.00     0.001 A 
HETATM   10  C   UNL     1      28.379  43.019  54.080  1.00  0.00     0.002 A 
HETATM   11  C   UNL     1      27.812  41.832  53.612  1.00  0.00     0.030 A 
HETATM   12  H   UNL     1      26.731  39.774  52.412  1.00  0.00     0.170 HD
ENDROOT
BRANCH   2  13
HETATM   13  O   UNL     1      27.253  43.729  49.273  1.00  0.00    -0.359 OA
HETATM   14  H   UNL     1      26.635  44.477  49.216  1.00  0.00     0.213 HD
ENDBRANCH   2  13
BRANCH   2  15
HETATM   15  C   UNL     1      25.105  43.217  50.312  1.00  0.00     0.279 C 
HETATM   16  N   UNL     1      24.576  44.070  49.356  1.00  0.00    -0.352 N 
HETATM   17  H   UNL     1      25.222  44.684  48.879  1.00  0.00     0.162 HD
HETATM   18  O   UNL     1      24.407  42.788  51.235  1.00  0.00    -0.268 OA
BRANCH  16  19
HETATM   19  C   UNL     1      23.195  44.488  49.441  1.00  0.00     0.161 C 
BRANCH  19  20
HETATM   20  C   UNL     1      22.922  45.896  48.957  1.00  0.00    -0.038 A 
HETATM   21  C   UNL     1      23.748  46.926  49.450  1.00  0.00     0.048 A 
HETATM   22  C   UNL     1      23.494  48.224  49.058  1.00  0.00     0.105 A 
HETATM   23  C   UNL     1      22.466  48.532  48.203  1.00  0.00     0.105 A 
HETATM   24  O   UNL     1      24.187  49.324  49.455  1.00  0.00    -0.323 OA
HETATM   25  O   UNL     1      22.382  49.865  47.949  1.00  0.00    -0.323 OA
HETATM   26  C   UNL     1      21.634  47.559  47.696  1.00  0.00     0.040 A 
HETATM   27  C   UNL     1      23.463  50.364  48.765  1.00  0.00     0.352 A 
HETATM   28  C   UNL     1      21.861  46.232  48.085  1.00  0.00     0.012 A 
ENDBRANCH  19  20
ENDBRANCH  16  19
ENDBRANCH   2  15
BRANCH   1  29
HETATM   29  C   UNL     1      26.884  41.172  48.212  1.00  0.00     0.043 A 
HETATM   30  C   UNL     1      25.780  41.087  47.359  1.00  0.00     0.030 A 
HETATM   31  C   UNL     1      25.949  40.820  45.993  1.00  0.00     0.009 A 
HETATM   32  C   UNL     1      27.223  40.606  45.457  1.00  0.00    -0.058 A 
HETATM   33  C   UNL     1      28.326  40.655  46.314  1.00  0.00     0.009 A 
HETATM   34  C   UNL     1      28.156  40.931  47.672  1.00  0.00     0.030 A 
BRANCH  32  35
HETATM   35  C   UNL     1      27.411  40.297  43.994  1.00  0.00     0.034 C 
HETATM   36  C   UNL     1      28.757  40.778  43.469  1.00  0.00     0.010 C 
ENDBRANCH  32  35
ENDBRANCH   1  29
TORSDOF 6
ENDMDL
MODEL 7
REMARK VINA RESULT:      -8.6      2.977      6.151
REMARK  6 active torsions:
REMARK  status: ('A' for Active; 'I' for Inactive)
REMARK    1  A    between atoms: C_2  and  C_3 
REMARK    2  A    between atoms: C_6  and  N_7 
REMARK    3  A    between atoms: C_8  and  O_9 
REMARK    4  A    between atoms: C_8  and  C_10 
REMARK       I    between atoms: C_10  and  N_11 
REMARK    5  A    between atoms: N_11  and  C_12 
REMARK    6  A    between atoms: C_12  and  C_13 
ROOT
HETATM    1  N   UNL     1      21.319  48.461  48.400  1.00  0.00    -0.254 N 
HETATM    2  C   UNL     1      20.935  47.277  47.611  1.00  0.00     0.256 C 
HETATM    3  C   UNL     1      19.564  47.452  46.993  1.00  0.00     0.034 A 
HETATM    4  C   UNL     1      18.634  48.200  47.706  1.00  0.00     0.048 A 
HETATM    5  N   UNL     1      19.049  48.839  48.872  1.00  0.00    -0.308 N 
HETATM    6  C   UNL     1      20.358  49.045  49.220  1.00  0.00     0.330 C 
HETATM    7  O   UNL     1      20.588  49.757  50.197  1.00  0.00    -0.246 OA
HETATM    8  C   UNL     1      19.164  46.828  45.801  1.00  0.00     0.015 A 
HETATM    9  C   UNL     1      17.856  46.971  45.337  1.00  0.00     0.001 A 
HETATM   10  C   UNL     1      16.934  47.719  46.067  1.00  0.00     0.002 A 
HETATM   11  C   UNL     1      17.319  48.329  47.262  1.00  0.00     0.030 A 
HETATM   12  H   UNL     1      18.381  49.372  49.414  1.00  0.00     0.170 HD
ENDROOT
BRANCH   2  13
HETATM   13  O   UNL     1      21.853  47.039  46.538  1.00  0.00    -0.359 OA
HETATM   14  H   UNL     1      21.374  47.270  45.724  1.00  0.00     0.213 HD
ENDBRANCH   2  13
BRANCH   2  15
HETATM   15  C   UNL     1      20.917  45.955  48.514  1.00  0.00     0.279 C 
HETATM   16  N   UNL     1      22.116  45.286  48.693  1.00  0.00    -0.352 N 
HETATM   17  H   UNL     1      22.812  45.381  47.965  1.00  0.00     0.162 HD
HETATM   18  O   UNL     1      19.883  45.563  49.062  1.00  0.00    -0.268 OA
BRANCH  16  19
HETATM   19  C   UNL     1      22.169  44.097  49.515  1.00  0.00     0.161 C 
BRANCH  19  20
HETATM   20  C   UNL     1      23.506  43.833  50.171  1.00  0.00    -0.038 A 
HETATM   21  C   UNL     1      24.058  42.543  50.031  1.00  0.00     0.048 A 
HETATM   22  C   UNL     1      25.256  42.264  50.655  1.00  0.00     0.105 A 
HETATM   23  C   UNL     1      25.920  43.206  51.400  1.00  0.00     0.105 A 
HETATM   24  O   UNL     1      25.906  41.069  50.628  1.00  0.00    -0.323 OA
HETATM   25  O   UNL     1      27.075  42.727  51.934  1.00  0.00    -0.323 OA
HETATM   26  C   UNL     1      25.421  44.478  51.563  1.00  0.00     0.040 A 
HETATM   27  C   UNL     1      27.048  41.365  51.459  1.00  0.00     0.352 A 
HETATM   28  C   UNL     1      24.199  44.788  50.950  1.00  0.00     0.012 A 
ENDBRANCH  19  20
ENDBRANCH  16  19
ENDBRANCH   2  15
BRANCH   1  29
HETATM   29  C   UNL     1      22.679  48.896  48.453  1.00  0.00     0.043 A 
HETATM   30  C   UNL     1      23.132  50.005  47.732  1.00  0.00     0.030 A 
HETATM   31  C   UNL     1      24.480  50.386  47.776  1.00  0.00     0.009 A 
HETATM   32  C   UNL     1      25.408  49.649  48.519  1.00  0.00    -0.058 A 
HETATM   33  C   UNL     1      24.965  48.519  49.211  1.00  0.00     0.009 A 
HETATM   34  C   UNL     1      23.620  48.148  49.174  1.00  0.00     0.030 A 
BRANCH  32  35
HETATM   35  C   UNL     1      26.864  50.040  48.553  1.00  0.00     0.034 C 
HETATM   36  C   UNL     1      27.733  48.976  49.211  1.00  0.00     0.010 C 
ENDBRANCH  32  35
ENDBRANCH   1  29
TORSDOF 6
ENDMDL
MODEL 8
REMARK VINA RESULT:      -8.6      3.956      9.356
REMARK  6 active torsions:
REMARK  status: ('A' for Active; 'I' for Inactive)
REMARK    1  A    between atoms: C_2  and  C_3 
REMARK    2  A    between atoms: C_6  and  N_7 
REMARK    3  A    between atoms: C_8  and  O_9 
REMARK    4  A    between atoms: C_8  and  C_10 
REMARK       I    between atoms: C_10  and  N_11 
REMARK    5  A    between atoms: N_11  and  C_12 
REMARK    6  A    between atoms: C_12  and  C_13 
ROOT
HETATM    1  N   UNL     1      26.571  44.349  51.777  1.00  0.00    -0.254 N 
HETATM    2  C   UNL     1      25.305  44.759  51.143  1.00  0.00     0.256 C 
HETATM    3  C   UNL     1      24.684  43.614  50.371  1.00  0.00     0.034 A 
HETATM    4  C   UNL     1      25.549  42.702  49.776  1.00  0.00     0.048 A 
HETATM    5  N   UNL     1      26.915  42.823  50.024  1.00  0.00    -0.308 N 
HETATM    6  C   UNL     1      27.457  43.570  51.037  1.00  0.00     0.330 C 
HETATM    7  O   UNL     1      28.665  43.470  51.243  1.00  0.00    -0.246 OA
HETATM    8  C   UNL     1      23.304  43.483  50.151  1.00  0.00     0.015 A 
HETATM    9  C   UNL     1      22.813  42.445  49.359  1.00  0.00     0.001 A 
HETATM   10  C   UNL     1      23.694  41.544  48.764  1.00  0.00     0.002 A 
HETATM   11  C   UNL     1      25.069  41.677  48.964  1.00  0.00     0.030 A 
HETATM   12  H   UNL     1      27.561  42.180  49.584  1.00  0.00     0.170 HD
ENDROOT
BRANCH   2  13
HETATM   13  O   UNL     1      24.343  45.182  52.114  1.00  0.00    -0.359 OA
HETATM   14  H   UNL     1      24.323  46.152  52.063  1.00  0.00     0.213 HD
ENDBRANCH   2  13
BRANCH   2  15
HETATM   15  C   UNL     1      25.527  45.984  50.137  1.00  0.00     0.279 C 
HETATM   16  N   UNL     1      24.780  47.131  50.352  1.00  0.00    -0.352 N 
HETATM   17  H   UNL     1      23.887  47.021  50.813  1.00  0.00     0.162 HD
HETATM   18  O   UNL     1      26.356  45.928  49.225  1.00  0.00    -0.268 OA
BRANCH  16  19
HETATM   19  C   UNL     1      24.950  48.280  49.490  1.00  0.00     0.161 C 
BRANCH  19  20
HETATM   20  C   UNL     1      23.665  48.958  49.069  1.00  0.00    -0.038 A 
HETATM   21  C   UNL     1      22.503  48.165  48.990  1.00  0.00     0.048 A 
HETATM   22  C   UNL     1      21.328  48.750  48.568  1.00  0.00     0.105 A 
HETATM   23  C   UNL     1      21.263  50.078  48.229  1.00  0.00     0.105 A 
HETATM   24  O   UNL     1      20.132  48.118  48.426  1.00  0.00    -0.323 OA
HETATM   25  O   UNL     1      20.018  50.454  47.833  1.00  0.00    -0.323 OA
HETATM   26  C   UNL     1      22.371  50.892  48.291  1.00  0.00     0.040 A 
HETATM   27  C   UNL     1      19.311  49.200  47.939  1.00  0.00     0.352 A 
HETATM   28  C   UNL     1      23.583  50.323  48.706  1.00  0.00     0.012 A 
ENDBRANCH  19  20
ENDBRANCH  16  19
ENDBRANCH   2  15
BRANCH   1  29
HETATM   29  C   UNL     1      26.956  44.873  53.050  1.00  0.00     0.043 A 
HETATM   30  C   UNL     1      27.006  46.247  53.302  1.00  0.00     0.030 A 
HETATM   31  C   UNL     1      27.423  46.730  54.550  1.00  0.00     0.009 A 
HETATM   32  C   UNL     1      27.825  45.851  55.561  1.00  0.00    -0.058 A 
HETATM   33  C   UNL     1      27.810  44.478  55.299  1.00  0.00     0.009 A 
HETATM   34  C   UNL     1      27.384  43.999  54.059  1.00  0.00     0.030 A 
BRANCH  32  35
HETATM   35  C   UNL     1      28.295  46.365  56.898  1.00  0.00     0.034 C 
HETATM   36  C   UNL     1      29.694  45.874  57.247  1.00  0.00     0.010 C 
ENDBRANCH  32  35
ENDBRANCH   1  29
TORSDOF 6
ENDMDL
MODEL 9
REMARK VINA RESULT:      -8.6      5.305      9.227
REMARK  6 active torsions:
REMARK  status: ('A' for Active; 'I' for Inactive)
REMARK    1  A    between atoms: C_2  and  C_3 
REMARK    2  A    between atoms: C_6  and  N_7 
REMARK    3  A    between atoms: C_8  and  O_9 
REMARK    4  A    between atoms: C_8  and  C_10 
REMARK       I    between atoms: C_10  and  N_11 
REMARK    5  A    between atoms: N_11  and  C_12 
REMARK    6  A    between atoms: C_12  and  C_13 
ROOT
HETATM    1  N   UNL     1      25.539  45.373  50.559  1.00  0.00    -0.254 N 
HETATM    2  C   UNL     1      25.057  44.404  51.560  1.00  0.00     0.256 C 
HETATM    3  C   UNL     1      26.110  44.137  52.614  1.00  0.00     0.034 A 
HETATM    4  C   UNL     1      27.441  44.189  52.214  1.00  0.00     0.048 A 
HETATM    5  N   UNL     1      27.729  44.599  50.915  1.00  0.00    -0.308 N 
HETATM    6  C   UNL     1      26.843  45.242  50.089  1.00  0.00     0.330 C 
HETATM    7  O   UNL     1      27.268  45.686  49.024  1.00  0.00    -0.246 OA
HETATM    8  C   UNL     1      25.812  43.754  53.931  1.00  0.00     0.015 A 
HETATM    9  C   UNL     1      26.838  43.445  54.824  1.00  0.00     0.001 A 
HETATM   10  C   UNL     1      28.166  43.495  54.405  1.00  0.00     0.002 A 
HETATM   11  C   UNL     1      28.471  43.859  53.093  1.00  0.00     0.030 A 
HETATM   12  H   UNL     1      28.690  44.624  50.600  1.00  0.00     0.170 HD
ENDROOT
BRANCH   2  13
HETATM   13  O   UNL     1      23.893  44.885  52.240  1.00  0.00    -0.359 OA
HETATM   14  H   UNL     1      24.139  44.942  53.178  1.00  0.00     0.213 HD
ENDBRANCH   2  13
BRANCH   2  15
HETATM   15  C   UNL     1      24.661  43.011  50.878  1.00  0.00     0.279 C 
HETATM   16  N   UNL     1      25.656  42.321  50.206  1.00  0.00    -0.352 N 
HETATM   17  H   UNL     1      26.415  42.866  49.820  1.00  0.00     0.162 HD
HETATM   18  O   UNL     1      23.522  42.547  50.975  1.00  0.00    -0.268 OA
BRANCH  16  19
HETATM   19  C   UNL     1      25.366  41.047  49.588  1.00  0.00     0.161 C 
BRANCH  19  20
HETATM   20  C   UNL     1      26.563  40.141  49.397  1.00  0.00    -0.038 A 
HETATM   21  C   UNL     1      27.446  39.988  50.485  1.00  0.00     0.048 A 
HETATM   22  C   UNL     1      28.567  39.201  50.324  1.00  0.00     0.105 A 
HETATM   23  C   UNL     1      28.840  38.566  49.138  1.00  0.00     0.105 A 
HETATM   24  O   UNL     1      29.517  38.968  51.269  1.00  0.00    -0.323 OA
HETATM   25  O   UNL     1      29.993  37.849  49.186  1.00  0.00    -0.323 OA
HETATM   26  C   UNL     1      28.007  38.686  48.049  1.00  0.00     0.040 A 
HETATM   27  C   UNL     1      30.429  38.127  50.533  1.00  0.00     0.352 A 
HETATM   28  C   UNL     1      26.865  39.488  48.179  1.00  0.00     0.012 A 
ENDBRANCH  19  20
ENDBRANCH  16  19
ENDBRANCH   2  15
BRANCH   1  29
HETATM   29  C   UNL     1      24.646  46.316  49.963  1.00  0.00     0.043 A 
HETATM   30  C   UNL     1      23.622  45.922  49.095  1.00  0.00     0.030 A 
HETATM   31  C   UNL     1      22.785  46.874  48.498  1.00  0.00     0.009 A 
HETATM   32  C   UNL     1      22.972  48.241  48.733  1.00  0.00    -0.058 A 
HETATM   33  C   UNL     1      24.017  48.639  49.571  1.00  0.00     0.009 A 
HETATM   34  C   UNL     1      24.842  47.688  50.174  1.00  0.00     0.030 A 
BRANCH  32  35
HETATM   35  C   UNL     1      22.089  49.272  48.076  1.00  0.00     0.034 C 
HETATM   36  C   UNL     1      22.854  50.533  47.699  1.00  0.00     0.010 C 
ENDBRANCH  32  35
ENDBRANCH   1  29
TORSDOF 6
ENDMDL
MODEL 10
REMARK VINA RESULT:      -8.5      4.016      8.744
REMARK  6 active torsions:
REMARK  status: ('A' for Active; 'I' for Inactive)
REMARK    1  A    between atoms: C_2  and  C_3 
REMARK    2  A    between atoms: C_6  and  N_7 
REMARK    3  A    between atoms: C_8  and  O_9 
REMARK    4  A    between atoms: C_8  and  C_10 
REMARK       I    between atoms: C_10  and  N_11 
REMARK    5  A    between atoms: N_11  and  C_12 
REMARK    6  A    between atoms: C_12  and  C_13 
ROOT
HETATM    1  N   UNL     1      25.199  43.704  50.320  1.00  0.00    -0.254 N 
HETATM    2  C   UNL     1      26.508  44.369  50.452  1.00  0.00     0.256 C 
HETATM    3  C   UNL     1      27.300  43.793  51.607  1.00  0.00     0.034 A 
HETATM    4  C   UNL     1      26.584  43.342  52.710  1.00  0.00     0.048 A 
HETATM    5  N   UNL     1      25.193  43.333  52.641  1.00  0.00    -0.308 N 
HETATM    6  C   UNL     1      24.473  43.444  51.479  1.00  0.00     0.330 C 
HETATM    7  O   UNL     1      23.257  43.267  51.537  1.00  0.00    -0.246 OA
HETATM    8  C   UNL     1      28.703  43.779  51.656  1.00  0.00     0.015 A 
HETATM    9  C   UNL     1      29.363  43.306  52.791  1.00  0.00     0.001 A 
HETATM   10  C   UNL     1      28.629  42.865  53.891  1.00  0.00     0.002 A 
HETATM   11  C   UNL     1      27.234  42.891  53.857  1.00  0.00     0.030 A 
HETATM   12  H   UNL     1      24.655  43.027  53.441  1.00  0.00     0.170 HD
ENDROOT
BRANCH   2  13
HETATM   13  O   UNL     1      27.303  44.205  49.273  1.00  0.00    -0.359 OA
HETATM   14  H   UNL     1      27.055  43.340  48.905  1.00  0.00     0.213 HD
ENDBRANCH   2  13
BRANCH   2  15
HETATM   15  C   UNL     1      26.341  45.943  50.690  1.00  0.00     0.279 C 
HETATM   16  N   UNL     1      26.463  46.774  49.588  1.00  0.00    -0.352 N 
HETATM   17  H   UNL     1      27.037  46.444  48.823  1.00  0.00     0.162 HD
HETATM   18  O   UNL     1      26.078  46.403  51.805  1.00  0.00    -0.268 OA
BRANCH  16  19
HETATM   19  C   UNL     1      26.303  48.203  49.734  1.00  0.00     0.161 C 
BRANCH  19  20
HETATM   20  C   UNL     1      25.028  48.766  49.145  1.00  0.00    -0.038 A 
HETATM   21  C   UNL     1      23.823  48.094  49.433  1.00  0.00     0.048 A 
HETATM   22  C   UNL     1      22.653  48.563  48.874  1.00  0.00     0.105 A 
HETATM   23  C   UNL     1      22.633  49.663  48.053  1.00  0.00     0.105 A 
HETATM   24  O   UNL     1      21.418  48.018  49.042  1.00  0.00    -0.323 OA
HETATM   25  O   UNL     1      21.385  49.953  47.602  1.00  0.00    -0.323 OA
HETATM   26  C   UNL     1      23.785  50.351  47.745  1.00  0.00     0.040 A 
HETATM   27  C   UNL     1      20.622  48.893  48.215  1.00  0.00     0.352 A 
HETATM   28  C   UNL     1      24.992  49.892  48.289  1.00  0.00     0.012 A 
ENDBRANCH  19  20
ENDBRANCH  16  19
ENDBRANCH   2  15
BRANCH   1  29
HETATM   29  C   UNL     1      24.615  43.485  49.035  1.00  0.00     0.043 A 
HETATM   30  C   UNL     1      23.879  44.474  48.376  1.00  0.00     0.030 A 
HETATM   31  C   UNL     1      23.287  44.217  47.132  1.00  0.00     0.009 A 
HETATM   32  C   UNL     1      23.396  42.957  46.534  1.00  0.00    -0.058 A 
HETATM   33  C   UNL     1      24.101  41.956  47.207  1.00  0.00     0.009 A 
HETATM   34  C   UNL     1      24.698  42.218  48.441  1.00  0.00     0.030 A 
BRANCH  32  35
HETATM   35  C   UNL     1      22.744  42.666  45.206  1.00  0.00     0.034 C 
HETATM   36  C   UNL     1      22.546  43.924  44.371  1.00  0.00     0.010 C 
ENDBRANCH  32  35
ENDBRANCH   1  29
TORSDOF 6
ENDMDL
