MODEL 1
REMARK VINA RESULT:      -9.4      0.000      0.000
REMARK  9 active torsions:
REMARK  status: ('A' for Active; 'I' for Inactive)
REMARK    1  A    between atoms: C_2  and  N_3 
REMARK    2  A    between atoms: C_2  and  C_11 
REMARK    3  A    between atoms: N_3  and  C_4 
REMARK    4  A    between atoms: N_12  and  C_13 
REMARK    5  A    between atoms: C_19  and  S_20 
REMARK    6  A    between atoms: S_20  and  C_21 
REMARK    7  A    between atoms: C_21  and  C_22 
REMARK       I    between atoms: C_22  and  N_23 
REMARK    8  A    between atoms: N_23  and  C_24 
REMARK    9  A    between atoms: C_26  and  N_27 
REMARK       I    between atoms: N_27  and  C_28 
ROOT
HETATM    1  C   UNL     1      25.715  42.435  50.117  1.00  0.00     0.158 A 
HETATM    2  N   UNL     1      24.943  43.596  50.110  1.00  0.00    -0.274 N 
HETATM    3  C   UNL     1      23.697  43.158  49.690  1.00  0.00     0.196 A 
HETATM    4  N   UNL     1      23.748  41.884  49.366  1.00  0.00    -0.122 NA
HETATM    5  N   UNL     1      25.007  41.433  49.624  1.00  0.00    -0.131 NA
ENDROOT
BRANCH   3   6
HETATM    6  S   UNL     1      22.306  44.160  49.421  1.00  0.00    -0.080 SA
BRANCH   6   7
HETATM    7  C   UNL     1      22.493  44.582  47.664  1.00  0.00     0.185 C 
BRANCH   7   8
HETATM    8  C   UNL     1      22.406  46.088  47.469  1.00  0.00     0.231 C 
HETATM    9  N   UNL     1      22.820  46.810  48.577  1.00  0.00    -0.326 N 
HETATM   10  H   UNL     1      23.066  46.262  49.403  1.00  0.00     0.169 HD
HETATM   11  O   UNL     1      21.998  46.556  46.409  1.00  0.00    -0.272 OA
BRANCH   9  12
HETATM   12  C   UNL     1      22.834  48.210  48.740  1.00  0.00     0.036 A 
HETATM   13  C   UNL     1      21.666  48.804  49.253  1.00  0.00     0.059 A 
HETATM   14  C   UNL     1      21.579  50.186  49.441  1.00  0.00     0.036 A 
HETATM   15  C   UNL     1      22.678  50.977  49.084  1.00  0.00     0.029 A 
HETATM   16  C   UNL     1      23.843  50.399  48.580  1.00  0.00     0.004 A 
HETATM   17  C   UNL     1      23.922  49.018  48.413  1.00  0.00     0.029 A 
BRANCH  14  18
HETATM   18  N   UNL     1      20.457  50.876  49.934  1.00  0.00    -0.327 N 
HETATM   19  C   UNL     1      19.440  51.572  49.354  1.00  0.00     0.218 C 
HETATM   20  C   UNL     1      19.252  51.612  47.867  1.00  0.00     0.117 C 
HETATM   21  O   UNL     1      18.646  52.160  50.095  1.00  0.00    -0.274 OA
HETATM   22  H   UNL     1      20.345  50.876  50.941  1.00  0.00     0.169 HD
ENDBRANCH  14  18
ENDBRANCH   9  12
ENDBRANCH   7   8
ENDBRANCH   6   7
ENDBRANCH   3   6
BRANCH   2  23
HETATM   23  C   UNL     1      25.359  44.914  50.431  1.00  0.00     0.043 A 
HETATM   24  C   UNL     1      26.198  45.612  49.551  1.00  0.00     0.030 A 
HETATM   25  C   UNL     1      26.593  46.918  49.848  1.00  0.00     0.002 A 
HETATM   26  C   UNL     1      26.152  47.531  51.019  1.00  0.00     0.000 A 
HETATM   27  C   UNL     1      25.315  46.842  51.895  1.00  0.00     0.002 A 
HETATM   28  C   UNL     1      24.915  45.535  51.604  1.00  0.00     0.030 A 
ENDBRANCH   2  23
BRANCH   1  29
HETATM   29  C   UNL     1      27.061  42.307  50.794  1.00  0.00     0.150 C 
HETATM   30  C   UNL     1      27.790  41.048  50.303  1.00  0.00     0.040 C 
BRANCH  29  31
HETATM   31  N   UNL     1      26.918  42.238  52.254  1.00  0.00    -0.379 N 
HETATM   32  H   UNL     1      26.750  41.284  52.568  1.00  0.00     0.160 HD
BRANCH  31  33
HETATM   33  C   UNL     1      27.738  42.945  53.130  1.00  0.00     0.028 A 
HETATM   34  C   UNL     1      27.365  44.135  53.766  1.00  0.00     0.030 A 
HETATM   35  C   UNL     1      28.211  44.764  54.689  1.00  0.00     0.021 A 
HETATM   36  C   UNL     1      29.435  44.189  55.012  1.00  0.00     0.011 A 
HETATM   37 BR   UNL     1      30.577  45.035  56.256  1.00  0.00    -0.051 Br
HETATM   38  C   UNL     1      29.812  42.985  54.431  1.00  0.00     0.021 A 
HETATM   39  C   UNL     1      28.960  42.366  53.509  1.00  0.00     0.030 A 
ENDBRANCH  31  33
ENDBRANCH  29  31
ENDBRANCH   1  29
TORSDOF 9
ENDMDL
MODEL 2
REMARK VINA RESULT:      -9.2      2.447      4.002
REMARK  9 active torsions:
REMARK  status: ('A' for Active; 'I' for Inactive)
REMARK    1  A    between atoms: C_2  and  N_3 
REMARK    2  A    between atoms: C_2  and  C_11 
REMARK    3  A    between atoms: N_3  and  C_4 
REMARK    4  A    between atoms: N_12  and  C_13 
REMARK    5  A    between atoms: C_19  and  S_20 
REMARK    6  A    between atoms: S_20  and  C_21 
REMARK    7  A    between atoms: C_21  and  C_22 
REMARK       I    between atoms: C_22  and  N_23 
REMARK    8  A    between atoms: N_23  and  C_24 
REMARK    9  A    between atoms: C_26  and  N_27 
REMARK       I    between atoms: N_27  and  C_28 
ROOT
HETATM    1  C   UNL     1      25.698  45.883  52.570  1.00  0.00     0.158 A 
HETATM    2  N   UNL     1      25.315  45.580  51.264  1.00  0.00    -0.274 N 
HETATM    3  C   UNL     1      24.918  46.803  50.748  1.00  0.00     0.196 A 
HETATM    4  N   UNL     1      24.948  47.725  51.685  1.00  0.00    -0.122 NA
HETATM    5  N   UNL     1      25.427  47.152  52.825  1.00  0.00    -0.131 NA
ENDROOT
BRANCH   3   6
HETATM    6  S   UNL     1      24.272  47.073  49.160  1.00  0.00    -0.080 SA
BRANCH   6   7
HETATM    7  C   UNL     1      24.649  48.833  48.907  1.00  0.00     0.185 C 
BRANCH   7   8
HETATM    8  C   UNL     1      23.435  49.560  48.349  1.00  0.00     0.231 C 
HETATM    9  N   UNL     1      22.377  49.625  49.242  1.00  0.00    -0.326 N 
HETATM   10  H   UNL     1      22.504  49.130  50.125  1.00  0.00     0.169 HD
HETATM   11  O   UNL     1      23.452  50.020  47.210  1.00  0.00    -0.272 OA
BRANCH   9  12
HETATM   12  C   UNL     1      21.103  50.194  49.032  1.00  0.00     0.036 A 
HETATM   13  C   UNL     1      19.996  49.332  49.128  1.00  0.00     0.059 A 
HETATM   14  C   UNL     1      18.695  49.799  48.928  1.00  0.00     0.036 A 
HETATM   15  C   UNL     1      18.515  51.149  48.603  1.00  0.00     0.029 A 
HETATM   16  C   UNL     1      19.605  52.015  48.510  1.00  0.00     0.004 A 
HETATM   17  C   UNL     1      20.896  51.539  48.730  1.00  0.00     0.029 A 
BRANCH  14  18
HETATM   18  N   UNL     1      17.526  49.019  48.988  1.00  0.00    -0.327 N 
HETATM   19  C   UNL     1      16.756  48.388  48.059  1.00  0.00     0.218 C 
HETATM   20  C   UNL     1      17.162  48.301  46.618  1.00  0.00     0.117 C 
HETATM   21  O   UNL     1      15.708  47.856  48.441  1.00  0.00    -0.274 OA
HETATM   22  H   UNL     1      17.142  48.869  49.915  1.00  0.00     0.169 HD
ENDBRANCH  14  18
ENDBRANCH   9  12
ENDBRANCH   7   8
ENDBRANCH   6   7
ENDBRANCH   3   6
BRANCH   2  23
HETATM   23  C   UNL     1      25.312  44.307  50.636  1.00  0.00     0.043 A 
HETATM   24  C   UNL     1      24.198  43.467  50.775  1.00  0.00     0.030 A 
HETATM   25  C   UNL     1      24.178  42.223  50.141  1.00  0.00     0.002 A 
HETATM   26  C   UNL     1      25.262  41.815  49.367  1.00  0.00     0.000 A 
HETATM   27  C   UNL     1      26.369  42.649  49.224  1.00  0.00     0.002 A 
HETATM   28  C   UNL     1      26.397  43.896  49.854  1.00  0.00     0.030 A 
ENDBRANCH   2  23
BRANCH   1  29
HETATM   29  C   UNL     1      26.501  44.962  53.461  1.00  0.00     0.150 C 
HETATM   30  C   UNL     1      25.576  44.225  54.441  1.00  0.00     0.040 C 
BRANCH  29  31
HETATM   31  N   UNL     1      27.510  45.708  54.225  1.00  0.00    -0.379 N 
HETATM   32  H   UNL     1      27.087  46.455  54.772  1.00  0.00     0.160 HD
BRANCH  31  33
HETATM   33  C   UNL     1      28.560  45.088  54.899  1.00  0.00     0.028 A 
HETATM   34  C   UNL     1      29.151  43.886  54.492  1.00  0.00     0.030 A 
HETATM   35  C   UNL     1      30.250  43.347  55.176  1.00  0.00     0.021 A 
HETATM   36  C   UNL     1      30.791  44.025  56.262  1.00  0.00     0.011 A 
HETATM   37 BR   UNL     1      32.271  43.300  57.185  1.00  0.00    -0.051 Br
HETATM   38  C   UNL     1      30.254  45.243  56.660  1.00  0.00     0.021 A 
HETATM   39  C   UNL     1      29.156  45.771  55.971  1.00  0.00     0.030 A 
ENDBRANCH  31  33
ENDBRANCH  29  31
ENDBRANCH   1  29
TORSDOF 9
ENDMDL
MODEL 3
REMARK VINA RESULT:      -9.0      4.137      9.553
REMARK  9 active torsions:
REMARK  status: ('A' for Active; 'I' for Inactive)
REMARK    1  A    between atoms: C_2  and  N_3 
REMARK    2  A    between atoms: C_2  and  C_11 
REMARK    3  A    between atoms: N_3  and  C_4 
REMARK    4  A    between atoms: N_12  and  C_13 
REMARK    5  A    between atoms: C_19  and  S_20 
REMARK    6  A    between atoms: S_20  and  C_21 
REMARK    7  A    between atoms: C_21  and  C_22 
REMARK       I    between atoms: C_22  and  N_23 
REMARK    8  A    between atoms: N_23  and  C_24 
REMARK    9  A    between atoms: C_26  and  N_27 
REMARK       I    between atoms: N_27  and  C_28 
ROOT
HETATM    1  C   UNL     1      23.486  48.369  49.113  1.00  0.00     0.158 A 
HETATM    2  N   UNL     1      23.091  47.032  49.061  1.00  0.00    -0.274 N 
HETATM    3  C   UNL     1      23.966  46.399  49.929  1.00  0.00     0.196 A 
HETATM    4  N   UNL     1      24.869  47.250  50.367  1.00  0.00    -0.122 NA
HETATM    5  N   UNL     1      24.577  48.477  49.853  1.00  0.00    -0.131 NA
ENDROOT
BRANCH   3   6
HETATM    6  S   UNL     1      24.021  44.695  50.253  1.00  0.00    -0.080 SA
BRANCH   6   7
HETATM    7  C   UNL     1      25.460  44.182  49.270  1.00  0.00     0.185 C 
BRANCH   7   8
HETATM    8  C   UNL     1      26.740  44.352  50.074  1.00  0.00     0.231 C 
HETATM    9  N   UNL     1      26.784  43.558  51.208  1.00  0.00    -0.326 N 
HETATM   10  H   UNL     1      25.945  43.012  51.407  1.00  0.00     0.169 HD
HETATM   11  O   UNL     1      27.609  45.137  49.703  1.00  0.00    -0.272 OA
BRANCH   9  12
HETATM   12  C   UNL     1      27.803  43.499  52.182  1.00  0.00     0.036 A 
HETATM   13  C   UNL     1      27.599  44.236  53.363  1.00  0.00     0.059 A 
HETATM   14  C   UNL     1      28.555  44.248  54.382  1.00  0.00     0.036 A 
HETATM   15  C   UNL     1      29.739  43.526  54.193  1.00  0.00     0.029 A 
HETATM   16  C   UNL     1      29.950  42.788  53.029  1.00  0.00     0.004 A 
HETATM   17  C   UNL     1      28.981  42.770  52.028  1.00  0.00     0.029 A 
BRANCH  14  18
HETATM   18  N   UNL     1      28.453  44.961  55.591  1.00  0.00    -0.327 N 
HETATM   19  C   UNL     1      28.324  46.279  55.909  1.00  0.00     0.218 C 
HETATM   20  C   UNL     1      28.106  47.330  54.863  1.00  0.00     0.117 C 
HETATM   21  O   UNL     1      28.366  46.591  57.104  1.00  0.00    -0.274 OA
HETATM   22  H   UNL     1      28.476  44.401  56.436  1.00  0.00     0.169 HD
ENDBRANCH  14  18
ENDBRANCH   9  12
ENDBRANCH   7   8
ENDBRANCH   6   7
ENDBRANCH   3   6
BRANCH   2  23
HETATM   23  C   UNL     1      22.054  46.466  48.276  1.00  0.00     0.043 A 
HETATM   24  C   UNL     1      20.720  46.598  48.687  1.00  0.00     0.030 A 
HETATM   25  C   UNL     1      19.692  46.064  47.908  1.00  0.00     0.002 A 
HETATM   26  C   UNL     1      19.989  45.402  46.718  1.00  0.00     0.000 A 
HETATM   27  C   UNL     1      21.313  45.272  46.304  1.00  0.00     0.002 A 
HETATM   28  C   UNL     1      22.347  45.804  47.078  1.00  0.00     0.030 A 
ENDBRANCH   2  23
BRANCH   1  29
HETATM   29  C   UNL     1      22.662  49.525  48.593  1.00  0.00     0.150 C 
HETATM   30  C   UNL     1      23.564  50.556  47.899  1.00  0.00     0.040 C 
BRANCH  29  31
HETATM   31  N   UNL     1      21.926  50.186  49.679  1.00  0.00    -0.379 N 
HETATM   32  H   UNL     1      22.491  50.905  50.128  1.00  0.00     0.160 HD
BRANCH  31  33
HETATM   33  C   UNL     1      20.588  50.556  49.572  1.00  0.00     0.028 A 
HETATM   34  C   UNL     1      19.545  49.937  50.272  1.00  0.00     0.030 A 
HETATM   35  C   UNL     1      18.226  50.400  50.173  1.00  0.00     0.021 A 
HETATM   36  C   UNL     1      17.939  51.513  49.391  1.00  0.00     0.011 A 
HETATM   37 BR   UNL     1      16.162  52.138  49.257  1.00  0.00    -0.051 Br
HETATM   38  C   UNL     1      18.960  52.175  48.722  1.00  0.00     0.021 A 
HETATM   39  C   UNL     1      20.273  51.703  48.827  1.00  0.00     0.030 A 
ENDBRANCH  31  33
ENDBRANCH  29  31
ENDBRANCH   1  29
TORSDOF 9
ENDMDL
MODEL 4
REMARK VINA RESULT:      -8.6      4.238      9.648
REMARK  9 active torsions:
REMARK  status: ('A' for Active; 'I' for Inactive)
REMARK    1  A    between atoms: C_2  and  N_3 
REMARK    2  A    between atoms: C_2  and  C_11 
REMARK    3  A    between atoms: N_3  and  C_4 
REMARK    4  A    between atoms: N_12  and  C_13 
REMARK    5  A    between atoms: C_19  and  S_20 
REMARK    6  A    between atoms: S_20  and  C_21 
REMARK    7  A    between atoms: C_21  and  C_22 
REMARK       I    between atoms: C_22  and  N_23 
REMARK    8  A    between atoms: N_23  and  C_24 
REMARK    9  A    between atoms: C_26  and  N_27 
REMARK       I    between atoms: N_27  and  C_28 
ROOT
HETATM    1  C   UNL     1      23.300  48.113  48.960  1.00  0.00     0.158 A 
HETATM    2  N   UNL     1      22.885  46.786  48.853  1.00  0.00    -0.274 N 
HETATM    3  C   UNL     1      23.770  46.100  49.668  1.00  0.00     0.196 A 
HETATM    4  N   UNL     1      24.695  46.915  50.125  1.00  0.00    -0.122 NA
HETATM    5  N   UNL     1      24.409  48.170  49.678  1.00  0.00    -0.131 NA
ENDROOT
BRANCH   3   6
HETATM    6  S   UNL     1      23.807  44.381  49.907  1.00  0.00    -0.080 SA
BRANCH   6   7
HETATM    7  C   UNL     1      25.516  43.982  49.436  1.00  0.00     0.185 C 
BRANCH   7   8
HETATM    8  C   UNL     1      26.498  44.682  50.362  1.00  0.00     0.231 C 
HETATM    9  N   UNL     1      26.062  44.748  51.676  1.00  0.00    -0.326 N 
HETATM   10  H   UNL     1      25.123  44.389  51.855  1.00  0.00     0.169 HD
HETATM   11  O   UNL     1      27.557  45.126  49.927  1.00  0.00    -0.272 OA
BRANCH   9  12
HETATM   12  C   UNL     1      26.710  45.354  52.772  1.00  0.00     0.036 A 
HETATM   13  C   UNL     1      27.710  44.603  53.416  1.00  0.00     0.059 A 
HETATM   14  C   UNL     1      28.403  45.113  54.517  1.00  0.00     0.036 A 
HETATM   15  C   UNL     1      28.061  46.387  54.986  1.00  0.00     0.029 A 
HETATM   16  C   UNL     1      27.075  47.143  54.353  1.00  0.00     0.004 A 
HETATM   17  C   UNL     1      26.404  46.629  53.245  1.00  0.00     0.029 A 
BRANCH  14  18
HETATM   18  N   UNL     1      29.407  44.440  55.236  1.00  0.00    -0.327 N 
HETATM   19  C   UNL     1      30.259  43.417  54.948  1.00  0.00     0.218 C 
HETATM   20  C   UNL     1      30.370  42.842  53.568  1.00  0.00     0.117 C 
HETATM   21  O   UNL     1      30.970  42.982  55.860  1.00  0.00    -0.274 OA
HETATM   22  H   UNL     1      29.562  44.762  56.185  1.00  0.00     0.169 HD
ENDBRANCH  14  18
ENDBRANCH   9  12
ENDBRANCH   7   8
ENDBRANCH   6   7
ENDBRANCH   3   6
BRANCH   2  23
HETATM   23  C   UNL     1      21.821  46.273  48.066  1.00  0.00     0.043 A 
HETATM   24  C   UNL     1      20.561  46.072  48.647  1.00  0.00     0.030 A 
HETATM   25  C   UNL     1      19.504  45.589  47.874  1.00  0.00     0.002 A 
HETATM   26  C   UNL     1      19.697  45.310  46.522  1.00  0.00     0.000 A 
HETATM   27  C   UNL     1      20.947  45.512  45.940  1.00  0.00     0.002 A 
HETATM   28  C   UNL     1      22.010  45.995  46.708  1.00  0.00     0.030 A 
ENDBRANCH   2  23
BRANCH   1  29
HETATM   29  C   UNL     1      22.481  49.304  48.516  1.00  0.00     0.150 C 
HETATM   30  C   UNL     1      23.370  50.323  47.787  1.00  0.00     0.040 C 
BRANCH  29  31
HETATM   31  N   UNL     1      21.837  49.963  49.660  1.00  0.00    -0.379 N 
HETATM   32  H   UNL     1      22.478  50.594  50.137  1.00  0.00     0.160 HD
BRANCH  31  33
HETATM   33  C   UNL     1      20.539  50.467  49.611  1.00  0.00     0.028 A 
HETATM   34  C   UNL     1      20.202  51.714  49.072  1.00  0.00     0.030 A 
HETATM   35  C   UNL     1      18.869  52.136  48.990  1.00  0.00     0.021 A 
HETATM   36  C   UNL     1      17.848  51.296  49.421  1.00  0.00     0.011 A 
HETATM   37 BR   UNL     1      16.050  51.863  49.312  1.00  0.00    -0.051 Br
HETATM   38  C   UNL     1      18.149  50.034  49.919  1.00  0.00     0.021 A 
HETATM   39  C   UNL     1      19.484  49.624  49.997  1.00  0.00     0.030 A 
ENDBRANCH  31  33
ENDBRANCH  29  31
ENDBRANCH   1  29
TORSDOF 9
ENDMDL
MODEL 5
REMARK VINA RESULT:      -8.5      4.529     10.508
REMARK  9 active torsions:
REMARK  status: ('A' for Active; 'I' for Inactive)
REMARK    1  A    between atoms: C_2  and  N_3 
REMARK    2  A    between atoms: C_2  and  C_11 
REMARK    3  A    between atoms: N_3  and  C_4 
REMARK    4  A    between atoms: N_12  and  C_13 
REMARK    5  A    between atoms: C_19  and  S_20 
REMARK    6  A    between atoms: S_20  and  C_21 
REMARK    7  A    between atoms: C_21  and  C_22 
REMARK       I    between atoms: C_22  and  N_23 
REMARK    8  A    between atoms: N_23  and  C_24 
REMARK    9  A    between atoms: C_26  and  N_27 
REMARK       I    between atoms: N_27  and  C_28 
ROOT
HETATM    1  C   UNL     1      20.272  47.923  47.282  1.00  0.00     0.158 A 
HETATM    2  N   UNL     1      20.681  49.015  48.047  1.00  0.00    -0.274 N 
HETATM    3  C   UNL     1      22.046  48.825  48.183  1.00  0.00     0.196 A 
HETATM    4  N   UNL     1      22.402  47.676  47.653  1.00  0.00    -0.122 NA
HETATM    5  N   UNL     1      21.296  47.107  47.098  1.00  0.00    -0.131 NA
ENDROOT
BRANCH   3   6
HETATM    6  S   UNL     1      23.126  49.835  49.093  1.00  0.00    -0.080 SA
BRANCH   6   7
HETATM    7  C   UNL     1      24.740  49.343  48.420  1.00  0.00     0.185 C 
BRANCH   7   8
HETATM    8  C   UNL     1      25.479  48.454  49.409  1.00  0.00     0.231 C 
HETATM    9  N   UNL     1      24.649  47.560  50.067  1.00  0.00    -0.326 N 
HETATM   10  H   UNL     1      23.652  47.643  49.868  1.00  0.00     0.169 HD
HETATM   11  O   UNL     1      26.691  48.570  49.567  1.00  0.00    -0.272 OA
BRANCH   9  12
HETATM   12  C   UNL     1      25.004  46.626  51.063  1.00  0.00     0.036 A 
HETATM   13  C   UNL     1      24.922  45.264  50.718  1.00  0.00     0.059 A 
HETATM   14  C   UNL     1      25.242  44.263  51.638  1.00  0.00     0.036 A 
HETATM   15  C   UNL     1      25.627  44.645  52.930  1.00  0.00     0.029 A 
HETATM   16  C   UNL     1      25.717  45.991  53.281  1.00  0.00     0.004 A 
HETATM   17  C   UNL     1      25.411  46.980  52.348  1.00  0.00     0.029 A 
BRANCH  14  18
HETATM   18  N   UNL     1      25.181  42.879  51.398  1.00  0.00    -0.327 N 
HETATM   19  C   UNL     1      25.934  42.007  50.672  1.00  0.00     0.218 C 
HETATM   20  C   UNL     1      27.219  42.419  50.019  1.00  0.00     0.117 C 
HETATM   21  O   UNL     1      25.540  40.838  50.583  1.00  0.00    -0.274 OA
HETATM   22  H   UNL     1      24.419  42.385  51.850  1.00  0.00     0.169 HD
ENDBRANCH  14  18
ENDBRANCH   9  12
ENDBRANCH   7   8
ENDBRANCH   6   7
ENDBRANCH   3   6
BRANCH   2  23
HETATM   23  C   UNL     1      19.870  50.051  48.579  1.00  0.00     0.043 A 
HETATM   24  C   UNL     1      20.000  51.357  48.085  1.00  0.00     0.030 A 
HETATM   25  C   UNL     1      19.190  52.378  48.587  1.00  0.00     0.002 A 
HETATM   26  C   UNL     1      18.248  52.100  49.575  1.00  0.00     0.000 A 
HETATM   27  C   UNL     1      18.113  50.803  50.066  1.00  0.00     0.002 A 
HETATM   28  C   UNL     1      18.920  49.776  49.569  1.00  0.00     0.030 A 
ENDBRANCH   2  23
BRANCH   1  29
HETATM   29  C   UNL     1      18.932  47.817  46.591  1.00  0.00     0.150 C 
HETATM   30  C   UNL     1      18.817  46.479  45.845  1.00  0.00     0.040 C 
BRANCH  29  31
HETATM   31  N   UNL     1      18.738  48.915  45.635  1.00  0.00    -0.379 N 
HETATM   32  H   UNL     1      18.819  48.591  44.673  1.00  0.00     0.160 HD
BRANCH  31  33
HETATM   33  C   UNL     1      17.748  49.884  45.784  1.00  0.00     0.028 A 
HETATM   34  C   UNL     1      16.625  49.737  46.607  1.00  0.00     0.030 A 
HETATM   35  C   UNL     1      15.699  50.776  46.768  1.00  0.00     0.021 A 
HETATM   36  C   UNL     1      15.903  51.993  46.126  1.00  0.00     0.011 A 
HETATM   37 BR   UNL     1      14.656  53.394  46.341  1.00  0.00    -0.051 Br
HETATM   38  C   UNL     1      17.032  52.183  45.340  1.00  0.00     0.021 A 
HETATM   39  C   UNL     1      17.950  51.138  45.185  1.00  0.00     0.030 A 
ENDBRANCH  31  33
ENDBRANCH  29  31
ENDBRANCH   1  29
TORSDOF 9
ENDMDL
MODEL 6
REMARK VINA RESULT:      -8.4      4.784     10.495
REMARK  9 active torsions:
REMARK  status: ('A' for Active; 'I' for Inactive)
REMARK    1  A    between atoms: C_2  and  N_3 
REMARK    2  A    between atoms: C_2  and  C_11 
REMARK    3  A    between atoms: N_3  and  C_4 
REMARK    4  A    between atoms: N_12  and  C_13 
REMARK    5  A    between atoms: C_19  and  S_20 
REMARK    6  A    between atoms: S_20  and  C_21 
REMARK    7  A    between atoms: C_21  and  C_22 
REMARK       I    between atoms: C_22  and  N_23 
REMARK    8  A    between atoms: N_23  and  C_24 
REMARK    9  A    between atoms: C_26  and  N_27 
REMARK       I    between atoms: N_27  and  C_28 
ROOT
HETATM    1  C   UNL     1      20.453  47.942  47.213  1.00  0.00     0.158 A 
HETATM    2  N   UNL     1      20.823  49.002  48.041  1.00  0.00    -0.274 N 
HETATM    3  C   UNL     1      22.182  48.810  48.230  1.00  0.00     0.196 A 
HETATM    4  N   UNL     1      22.565  47.685  47.668  1.00  0.00    -0.122 NA
HETATM    5  N   UNL     1      21.488  47.137  47.040  1.00  0.00    -0.131 NA
ENDROOT
BRANCH   3   6
HETATM    6  S   UNL     1      23.216  49.782  49.229  1.00  0.00    -0.080 SA
BRANCH   6   7
HETATM    7  C   UNL     1      24.855  49.381  48.557  1.00  0.00     0.185 C 
BRANCH   7   8
HETATM    8  C   UNL     1      25.539  48.331  49.420  1.00  0.00     0.231 C 
HETATM    9  N   UNL     1      24.662  47.640  50.241  1.00  0.00    -0.326 N 
HETATM   10  H   UNL     1      23.691  47.954  50.225  1.00  0.00     0.169 HD
HETATM   11  O   UNL     1      26.753  48.162  49.351  1.00  0.00    -0.272 OA
BRANCH   9  12
HETATM   12  C   UNL     1      24.969  46.635  51.181  1.00  0.00     0.036 A 
HETATM   13  C   UNL     1      25.646  47.037  52.347  1.00  0.00     0.059 A 
HETATM   14  C   UNL     1      26.003  46.113  53.332  1.00  0.00     0.036 A 
HETATM   15  C   UNL     1      25.691  44.764  53.124  1.00  0.00     0.029 A 
HETATM   16  C   UNL     1      25.015  44.354  51.975  1.00  0.00     0.004 A 
HETATM   17  C   UNL     1      24.650  45.289  51.008  1.00  0.00     0.029 A 
BRANCH  14  18
HETATM   18  N   UNL     1      26.690  46.410  54.523  1.00  0.00    -0.327 N 
HETATM   19  C   UNL     1      27.791  45.896  55.138  1.00  0.00     0.218 C 
HETATM   20  C   UNL     1      28.656  44.862  54.482  1.00  0.00     0.117 C 
HETATM   21  O   UNL     1      28.083  46.329  56.258  1.00  0.00    -0.274 OA
HETATM   22  H   UNL     1      26.311  47.173  55.074  1.00  0.00     0.169 HD
ENDBRANCH  14  18
ENDBRANCH   9  12
ENDBRANCH   7   8
ENDBRANCH   6   7
ENDBRANCH   3   6
BRANCH   2  23
HETATM   23  C   UNL     1      19.985  50.013  48.579  1.00  0.00     0.043 A 
HETATM   24  C   UNL     1      19.092  49.698  49.614  1.00  0.00     0.030 A 
HETATM   25  C   UNL     1      18.281  50.693  50.164  1.00  0.00     0.002 A 
HETATM   26  C   UNL     1      18.359  52.000  49.689  1.00  0.00     0.000 A 
HETATM   27  C   UNL     1      19.248  52.318  48.663  1.00  0.00     0.002 A 
HETATM   28  C   UNL     1      20.063  51.328  48.108  1.00  0.00     0.030 A 
ENDBRANCH   2  23
BRANCH   1  29
HETATM   29  C   UNL     1      19.145  47.863  46.458  1.00  0.00     0.150 C 
HETATM   30  C   UNL     1      19.092  46.582  45.612  1.00  0.00     0.040 C 
BRANCH  29  31
HETATM   31  N   UNL     1      18.967  49.026  45.578  1.00  0.00    -0.379 N 
HETATM   32  H   UNL     1      19.125  48.783  44.602  1.00  0.00     0.160 HD
BRANCH  31  33
HETATM   33  C   UNL     1      17.928  49.941  45.733  1.00  0.00     0.028 A 
HETATM   34  C   UNL     1      16.889  49.798  46.661  1.00  0.00     0.030 A 
HETATM   35  C   UNL     1      15.909  50.787  46.815  1.00  0.00     0.021 A 
HETATM   36  C   UNL     1      15.976  51.953  46.060  1.00  0.00     0.011 A 
HETATM   37 BR   UNL     1      14.656  53.288  46.266  1.00  0.00    -0.051 Br
HETATM   38  C   UNL     1      17.021  52.143  45.165  1.00  0.00     0.021 A 
HETATM   39  C   UNL     1      17.993  51.147  45.018  1.00  0.00     0.030 A 
ENDBRANCH  31  33
ENDBRANCH  29  31
ENDBRANCH   1  29
TORSDOF 9
ENDMDL
MODEL 7
REMARK VINA RESULT:      -8.3      1.748      3.371
REMARK  9 active torsions:
REMARK  status: ('A' for Active; 'I' for Inactive)
REMARK    1  A    between atoms: C_2  and  N_3 
REMARK    2  A    between atoms: C_2  and  C_11 
REMARK    3  A    between atoms: N_3  and  C_4 
REMARK    4  A    between atoms: N_12  and  C_13 
REMARK    5  A    between atoms: C_19  and  S_20 
REMARK    6  A    between atoms: S_20  and  C_21 
REMARK    7  A    between atoms: C_21  and  C_22 
REMARK       I    between atoms: C_22  and  N_23 
REMARK    8  A    between atoms: N_23  and  C_24 
REMARK    9  A    between atoms: C_26  and  N_27 
REMARK       I    between atoms: N_27  and  C_28 
ROOT
HETATM    1  C   UNL     1      26.737  42.576  51.871  1.00  0.00     0.158 A 
HETATM    2  N   UNL     1      26.151  42.139  50.683  1.00  0.00    -0.274 N 
HETATM    3  C   UNL     1      24.991  42.892  50.595  1.00  0.00     0.196 A 
HETATM    4  N   UNL     1      24.839  43.622  51.678  1.00  0.00    -0.122 NA
HETATM    5  N   UNL     1      25.922  43.421  52.479  1.00  0.00    -0.131 NA
ENDROOT
BRANCH   3   6
HETATM    6  S   UNL     1      23.789  42.763  49.350  1.00  0.00    -0.080 SA
BRANCH   6   7
HETATM    7  C   UNL     1      22.672  44.130  49.777  1.00  0.00     0.185 C 
BRANCH   7   8
HETATM    8  C   UNL     1      23.032  45.377  48.984  1.00  0.00     0.231 C 
HETATM    9  N   UNL     1      23.141  46.514  49.770  1.00  0.00    -0.326 N 
HETATM   10  H   UNL     1      22.905  46.402  50.757  1.00  0.00     0.169 HD
HETATM   11  O   UNL     1      23.194  45.317  47.768  1.00  0.00    -0.272 OA
BRANCH   9  12
HETATM   12  C   UNL     1      23.425  47.830  49.350  1.00  0.00     0.036 A 
HETATM   13  C   UNL     1      22.369  48.758  49.404  1.00  0.00     0.059 A 
HETATM   14  C   UNL     1      22.549  50.084  49.001  1.00  0.00     0.036 A 
HETATM   15  C   UNL     1      23.806  50.467  48.515  1.00  0.00     0.029 A 
HETATM   16  C   UNL     1      24.860  49.557  48.461  1.00  0.00     0.004 A 
HETATM   17  C   UNL     1      24.672  48.242  48.883  1.00  0.00     0.029 A 
BRANCH  14  18
HETATM   18  N   UNL     1      21.559  51.083  49.004  1.00  0.00    -0.327 N 
HETATM   19  C   UNL     1      20.399  51.272  48.316  1.00  0.00     0.218 C 
HETATM   20  C   UNL     1      19.839  50.225  47.401  1.00  0.00     0.117 C 
HETATM   21  O   UNL     1      19.793  52.335  48.487  1.00  0.00    -0.274 OA
HETATM   22  H   UNL     1      21.706  51.849  49.651  1.00  0.00     0.169 HD
ENDBRANCH  14  18
ENDBRANCH   9  12
ENDBRANCH   7   8
ENDBRANCH   6   7
ENDBRANCH   3   6
BRANCH   2  23
HETATM   23  C   UNL     1      26.629  41.136  49.800  1.00  0.00     0.043 A 
HETATM   24  C   UNL     1      27.340  41.504  48.650  1.00  0.00     0.030 A 
HETATM   25  C   UNL     1      27.833  40.522  47.788  1.00  0.00     0.002 A 
HETATM   26  C   UNL     1      27.623  39.174  48.072  1.00  0.00     0.000 A 
HETATM   27  C   UNL     1      26.919  38.804  49.216  1.00  0.00     0.002 A 
HETATM   28  C   UNL     1      26.423  39.781  50.083  1.00  0.00     0.030 A 
ENDBRANCH   2  23
BRANCH   1  29
HETATM   29  C   UNL     1      28.168  42.297  52.271  1.00  0.00     0.150 C 
HETATM   30  C   UNL     1      28.212  41.391  53.511  1.00  0.00     0.040 C 
BRANCH  29  31
HETATM   31  N   UNL     1      28.891  43.542  52.563  1.00  0.00    -0.379 N 
HETATM   32  H   UNL     1      28.541  44.317  52.002  1.00  0.00     0.160 HD
BRANCH  31  33
HETATM   33  C   UNL     1      29.230  43.936  53.855  1.00  0.00     0.028 A 
HETATM   34  C   UNL     1      30.350  43.466  54.550  1.00  0.00     0.030 A 
HETATM   35  C   UNL     1      30.674  43.952  55.824  1.00  0.00     0.021 A 
HETATM   36  C   UNL     1      29.893  44.943  56.407  1.00  0.00     0.011 A 
HETATM   37 BR   UNL     1      30.328  45.600  58.124  1.00  0.00    -0.051 Br
HETATM   38  C   UNL     1      28.801  45.462  55.722  1.00  0.00     0.021 A 
HETATM   39  C   UNL     1      28.486  44.968  54.451  1.00  0.00     0.030 A 
ENDBRANCH  31  33
ENDBRANCH  29  31
ENDBRANCH   1  29
TORSDOF 9
ENDMDL
MODEL 8
REMARK VINA RESULT:      -8.3      4.626     10.340
REMARK  9 active torsions:
REMARK  status: ('A' for Active; 'I' for Inactive)
REMARK    1  A    between atoms: C_2  and  N_3 
REMARK    2  A    between atoms: C_2  and  C_11 
REMARK    3  A    between atoms: N_3  and  C_4 
REMARK    4  A    between atoms: N_12  and  C_13 
REMARK    5  A    between atoms: C_19  and  S_20 
REMARK    6  A    between atoms: S_20  and  C_21 
REMARK    7  A    between atoms: C_21  and  C_22 
REMARK       I    between atoms: C_22  and  N_23 
REMARK    8  A    between atoms: N_23  and  C_24 
REMARK    9  A    between atoms: C_26  and  N_27 
REMARK       I    between atoms: N_27  and  C_28 
ROOT
HETATM    1  C   UNL     1      20.720  46.616  48.378  1.00  0.00     0.158 A 
HETATM    2  N   UNL     1      21.361  47.796  48.757  1.00  0.00    -0.274 N 
HETATM    3  C   UNL     1      22.688  47.419  48.888  1.00  0.00     0.196 A 
HETATM    4  N   UNL     1      22.812  46.121  48.720  1.00  0.00    -0.122 NA
HETATM    5  N   UNL     1      21.585  45.616  48.410  1.00  0.00    -0.131 NA
ENDROOT
BRANCH   3   6
HETATM    6  S   UNL     1      23.989  48.447  49.402  1.00  0.00    -0.080 SA
BRANCH   6   7
HETATM    7  C   UNL     1      25.323  47.243  49.665  1.00  0.00     0.185 C 
BRANCH   7   8
HETATM    8  C   UNL     1      25.417  46.867  51.136  1.00  0.00     0.231 C 
HETATM    9  N   UNL     1      25.947  45.604  51.347  1.00  0.00    -0.326 N 
HETATM   10  H   UNL     1      26.146  45.056  50.509  1.00  0.00     0.169 HD
HETATM   11  O   UNL     1      25.039  47.650  52.004  1.00  0.00    -0.272 OA
BRANCH   9  12
HETATM   12  C   UNL     1      26.137  44.941  52.577  1.00  0.00     0.036 A 
HETATM   13  C   UNL     1      27.460  44.618  52.929  1.00  0.00     0.059 A 
HETATM   14  C   UNL     1      27.749  43.953  54.123  1.00  0.00     0.036 A 
HETATM   15  C   UNL     1      26.685  43.590  54.958  1.00  0.00     0.029 A 
HETATM   16  C   UNL     1      25.370  43.910  54.622  1.00  0.00     0.004 A 
HETATM   17  C   UNL     1      25.097  44.589  53.436  1.00  0.00     0.029 A 
BRANCH  14  18
HETATM   18  N   UNL     1      29.032  43.574  54.559  1.00  0.00    -0.327 N 
HETATM   19  C   UNL     1      29.987  44.166  55.329  1.00  0.00     0.218 C 
HETATM   20  C   UNL     1      29.737  45.454  56.053  1.00  0.00     0.117 C 
HETATM   21  O   UNL     1      31.076  43.592  55.442  1.00  0.00    -0.274 OA
HETATM   22  H   UNL     1      29.351  42.661  54.253  1.00  0.00     0.169 HD
ENDBRANCH  14  18
ENDBRANCH   9  12
ENDBRANCH   7   8
ENDBRANCH   6   7
ENDBRANCH   3   6
BRANCH   2  23
HETATM   23  C   UNL     1      20.772  49.067  48.980  1.00  0.00     0.043 A 
HETATM   24  C   UNL     1      19.813  49.221  49.991  1.00  0.00     0.030 A 
HETATM   25  C   UNL     1      19.245  50.474  50.232  1.00  0.00     0.002 A 
HETATM   26  C   UNL     1      19.633  51.575  49.471  1.00  0.00     0.000 A 
HETATM   27  C   UNL     1      20.589  51.426  48.467  1.00  0.00     0.002 A 
HETATM   28  C   UNL     1      21.161  50.176  48.220  1.00  0.00     0.030 A 
ENDBRANCH   2  23
BRANCH   1  29
HETATM   29  C   UNL     1      19.322  46.548  47.807  1.00  0.00     0.150 C 
HETATM   30  C   UNL     1      18.986  45.110  47.384  1.00  0.00     0.040 C 
BRANCH  29  31
HETATM   31  N   UNL     1      19.178  47.435  46.645  1.00  0.00    -0.379 N 
HETATM   32  H   UNL     1      19.163  46.908  45.773  1.00  0.00     0.160 HD
BRANCH  31  33
HETATM   33  C   UNL     1      18.302  48.517  46.622  1.00  0.00     0.028 A 
HETATM   34  C   UNL     1      17.215  48.665  47.492  1.00  0.00     0.030 A 
HETATM   35  C   UNL     1      16.410  49.811  47.464  1.00  0.00     0.021 A 
HETATM   36  C   UNL     1      16.704  50.843  46.580  1.00  0.00     0.011 A 
HETATM   37 BR   UNL     1      15.620  52.389  46.540  1.00  0.00    -0.051 Br
HETATM   38  C   UNL     1      17.804  50.745  45.737  1.00  0.00     0.021 A 
HETATM   39  C   UNL     1      18.600  49.595  45.773  1.00  0.00     0.030 A 
ENDBRANCH  31  33
ENDBRANCH  29  31
ENDBRANCH   1  29
TORSDOF 9
ENDMDL
MODEL 9
REMARK VINA RESULT:      -8.0      1.508      2.240
REMARK  9 active torsions:
REMARK  status: ('A' for Active; 'I' for Inactive)
REMARK    1  A    between atoms: C_2  and  N_3 
REMARK    2  A    between atoms: C_2  and  C_11 
REMARK    3  A    between atoms: N_3  and  C_4 
REMARK    4  A    between atoms: N_12  and  C_13 
REMARK    5  A    between atoms: C_19  and  S_20 
REMARK    6  A    between atoms: S_20  and  C_21 
REMARK    7  A    between atoms: C_21  and  C_22 
REMARK       I    between atoms: C_22  and  N_23 
REMARK    8  A    between atoms: N_23  and  C_24 
REMARK    9  A    between atoms: C_26  and  N_27 
REMARK       I    between atoms: N_27  and  C_28 
ROOT
HETATM    1  C   UNL     1      25.953  42.197  50.108  1.00  0.00     0.158 A 
HETATM    2  N   UNL     1      25.133  43.321  50.019  1.00  0.00    -0.274 N 
HETATM    3  C   UNL     1      23.952  42.823  49.492  1.00  0.00     0.196 A 
HETATM    4  N   UNL     1      24.089  41.552  49.187  1.00  0.00    -0.122 NA
HETATM    5  N   UNL     1      25.339  41.160  49.562  1.00  0.00    -0.131 NA
ENDROOT
BRANCH   3   6
HETATM    6  S   UNL     1      22.546  43.758  49.089  1.00  0.00    -0.080 SA
BRANCH   6   7
HETATM    7  C   UNL     1      23.119  44.665  47.623  1.00  0.00     0.185 C 
BRANCH   7   8
HETATM    8  C   UNL     1      22.047  45.634  47.146  1.00  0.00     0.231 C 
HETATM    9  N   UNL     1      21.162  46.007  48.145  1.00  0.00    -0.326 N 
HETATM   10  H   UNL     1      21.286  45.548  49.049  1.00  0.00     0.169 HD
HETATM   11  O   UNL     1      22.021  46.008  45.977  1.00  0.00    -0.272 OA
BRANCH   9  12
HETATM   12  C   UNL     1      20.042  46.857  48.034  1.00  0.00     0.036 A 
HETATM   13  C   UNL     1      20.296  48.238  47.950  1.00  0.00     0.059 A 
HETATM   14  C   UNL     1      19.252  49.161  47.846  1.00  0.00     0.036 A 
HETATM   15  C   UNL     1      17.937  48.682  47.852  1.00  0.00     0.029 A 
HETATM   16  C   UNL     1      17.673  47.315  47.930  1.00  0.00     0.004 A 
HETATM   17  C   UNL     1      18.724  46.404  48.015  1.00  0.00     0.029 A 
BRANCH  14  18
HETATM   18  N   UNL     1      19.399  50.558  47.770  1.00  0.00    -0.327 N 
HETATM   19  C   UNL     1      19.139  51.589  48.622  1.00  0.00     0.218 C 
HETATM   20  C   UNL     1      18.711  51.358  50.040  1.00  0.00     0.117 C 
HETATM   21  O   UNL     1      19.291  52.740  48.199  1.00  0.00    -0.274 OA
HETATM   22  H   UNL     1      19.783  50.915  46.902  1.00  0.00     0.169 HD
ENDBRANCH  14  18
ENDBRANCH   9  12
ENDBRANCH   7   8
ENDBRANCH   6   7
ENDBRANCH   3   6
BRANCH   2  23
HETATM   23  C   UNL     1      25.457  44.659  50.364  1.00  0.00     0.043 A 
HETATM   24  C   UNL     1      24.901  45.235  51.515  1.00  0.00     0.030 A 
HETATM   25  C   UNL     1      25.233  46.543  51.873  1.00  0.00     0.002 A 
HETATM   26  C   UNL     1      26.122  47.277  51.091  1.00  0.00     0.000 A 
HETATM   27  C   UNL     1      26.681  46.706  49.948  1.00  0.00     0.002 A 
HETATM   28  C   UNL     1      26.353  45.398  49.583  1.00  0.00     0.030 A 
ENDBRANCH   2  23
BRANCH   1  29
HETATM   29  C   UNL     1      27.236  42.135  50.906  1.00  0.00     0.150 C 
HETATM   30  C   UNL     1      27.986  40.826  50.615  1.00  0.00     0.040 C 
BRANCH  29  31
HETATM   31  N   UNL     1      26.971  42.224  52.348  1.00  0.00    -0.379 N 
HETATM   32  H   UNL     1      26.718  41.318  52.737  1.00  0.00     0.160 HD
BRANCH  31  33
HETATM   33  C   UNL     1      27.762  42.971  53.218  1.00  0.00     0.028 A 
HETATM   34  C   UNL     1      27.374  44.195  53.775  1.00  0.00     0.030 A 
HETATM   35  C   UNL     1      28.187  44.866  54.698  1.00  0.00     0.021 A 
HETATM   36  C   UNL     1      29.392  44.300  55.101  1.00  0.00     0.011 A 
HETATM   37 BR   UNL     1      30.490  45.202  56.345  1.00  0.00    -0.051 Br
HETATM   38  C   UNL     1      29.781  43.065  54.599  1.00  0.00     0.021 A 
HETATM   39  C   UNL     1      28.962  42.405  53.677  1.00  0.00     0.030 A 
ENDBRANCH  31  33
ENDBRANCH  29  31
ENDBRANCH   1  29
TORSDOF 9
ENDMDL
MODEL 10
REMARK VINA RESULT:      -8.0      4.764     10.475
REMARK  9 active torsions:
REMARK  status: ('A' for Active; 'I' for Inactive)
REMARK    1  A    between atoms: C_2  and  N_3 
REMARK    2  A    between atoms: C_2  and  C_11 
REMARK    3  A    between atoms: N_3  and  C_4 
REMARK    4  A    between atoms: N_12  and  C_13 
REMARK    5  A    between atoms: C_19  and  S_20 
REMARK    6  A    between atoms: S_20  and  C_21 
REMARK    7  A    between atoms: C_21  and  C_22 
REMARK       I    between atoms: C_22  and  N_23 
REMARK    8  A    between atoms: N_23  and  C_24 
REMARK    9  A    between atoms: C_26  and  N_27 
REMARK       I    between atoms: N_27  and  C_28 
ROOT
HETATM    1  C   UNL     1      22.617  48.812  48.818  1.00  0.00     0.158 A 
HETATM    2  N   UNL     1      22.710  47.421  48.790  1.00  0.00    -0.274 N 
HETATM    3  C   UNL     1      23.804  47.151  49.596  1.00  0.00     0.196 A 
HETATM    4  N   UNL     1      24.380  48.271  49.974  1.00  0.00    -0.122 NA
HETATM    5  N   UNL     1      23.646  49.309  49.483  1.00  0.00    -0.131 NA
ENDROOT
BRANCH   3   6
HETATM    6  S   UNL     1      24.469  45.579  49.912  1.00  0.00    -0.080 SA
BRANCH   6   7
HETATM    7  C   UNL     1      24.915  45.717  51.668  1.00  0.00     0.185 C 
BRANCH   7   8
HETATM    8  C   UNL     1      26.303  45.144  51.910  1.00  0.00     0.231 C 
HETATM    9  N   UNL     1      26.491  44.691  53.206  1.00  0.00    -0.326 N 
HETATM   10  H   UNL     1      25.719  44.852  53.853  1.00  0.00     0.169 HD
HETATM   11  O   UNL     1      27.133  45.118  51.004  1.00  0.00    -0.272 OA
BRANCH   9  12
HETATM   12  C   UNL     1      27.662  44.139  53.766  1.00  0.00     0.036 A 
HETATM   13  C   UNL     1      28.363  44.936  54.690  1.00  0.00     0.059 A 
HETATM   14  C   UNL     1      29.539  44.481  55.292  1.00  0.00     0.036 A 
HETATM   15  C   UNL     1      30.022  43.216  54.937  1.00  0.00     0.029 A 
HETATM   16  C   UNL     1      29.333  42.415  54.027  1.00  0.00     0.004 A 
HETATM   17  C   UNL     1      28.152  42.874  53.447  1.00  0.00     0.029 A 
BRANCH  14  18
HETATM   18  N   UNL     1      30.318  45.202  56.215  1.00  0.00    -0.327 N 
HETATM   19  C   UNL     1      30.043  45.890  57.358  1.00  0.00     0.218 C 
HETATM   20  C   UNL     1      28.681  45.878  57.984  1.00  0.00     0.117 C 
HETATM   21  O   UNL     1      30.966  46.514  57.893  1.00  0.00    -0.274 OA
HETATM   22  H   UNL     1      31.312  45.240  56.019  1.00  0.00     0.169 HD
ENDBRANCH  14  18
ENDBRANCH   9  12
ENDBRANCH   7   8
ENDBRANCH   6   7
ENDBRANCH   3   6
BRANCH   2  23
HETATM   23  C   UNL     1      21.888  46.513  48.074  1.00  0.00     0.043 A 
HETATM   24  C   UNL     1      20.914  45.770  48.757  1.00  0.00     0.030 A 
HETATM   25  C   UNL     1      20.086  44.892  48.057  1.00  0.00     0.002 A 
HETATM   26  C   UNL     1      20.222  44.753  46.678  1.00  0.00     0.000 A 
HETATM   27  C   UNL     1      21.186  45.492  45.994  1.00  0.00     0.002 A 
HETATM   28  C   UNL     1      22.018  46.374  46.688  1.00  0.00     0.030 A 
ENDBRANCH   2  23
BRANCH   1  29
HETATM   29  C   UNL     1      21.411  49.598  48.355  1.00  0.00     0.150 C 
HETATM   30  C   UNL     1      21.584  51.088  48.683  1.00  0.00     0.040 C 
BRANCH  29  31
HETATM   31  N   UNL     1      20.181  49.108  48.992  1.00  0.00    -0.379 N 
HETATM   32  H   UNL     1      20.077  49.476  49.936  1.00  0.00     0.160 HD
BRANCH  31  33
HETATM   33  C   UNL     1      18.963  49.023  48.321  1.00  0.00     0.028 A 
HETATM   34  C   UNL     1      18.761  48.274  47.156  1.00  0.00     0.030 A 
HETATM   35  C   UNL     1      17.494  48.174  46.565  1.00  0.00     0.021 A 
HETATM   36  C   UNL     1      16.402  48.801  47.156  1.00  0.00     0.011 A 
HETATM   37 BR   UNL     1      14.694  48.667  46.361  1.00  0.00    -0.051 Br
HETATM   38  C   UNL     1      16.564  49.513  48.337  1.00  0.00     0.021 A 
HETATM   39  C   UNL     1      17.834  49.607  48.918  1.00  0.00     0.030 A 
ENDBRANCH  31  33
ENDBRANCH  29  31
ENDBRANCH   1  29
TORSDOF 9
ENDMDL
