MODEL 1
REMARK VINA RESULT:      -9.2      0.000      0.000
REMARK  8 active torsions:
REMARK  status: ('A' for Active; 'I' for Inactive)
REMARK    1  A    between atoms: C_2  and  O_3 
REMARK    2  A    between atoms: O_3  and  C_4 
REMARK    3  A    between atoms: C_4  and  C_5 
REMARK    4  A    between atoms: N_7  and  C_9 
REMARK    5  A    between atoms: C_9  and  C_10 
REMARK       I    between atoms: C_10  and  N_11 
REMARK    6  A    between atoms: N_11  and  C_12 
REMARK    7  A    between atoms: C_20  and  C_21 
REMARK       I    between atoms: C_21  and  N_22 
REMARK    8  A    between atoms: N_22  and  C_23 
ROOT
HETATM    1  C   UNL     1      27.021  41.830  49.081  1.00  0.00     0.093 C 
HETATM    2  S   UNL     1      27.373  41.117  47.588  1.00  0.00    -0.075 SA
HETATM    3  C   UNL     1      28.194  39.844  48.347  1.00  0.00    -0.008 C 
HETATM    4  C   UNL     1      28.328  40.023  49.717  1.00  0.00    -0.026 C 
HETATM    5  C   UNL     1      29.100  39.019  50.539  1.00  0.00     0.041 C 
HETATM    6  C   UNL     1      29.919  38.038  49.684  1.00  0.00     0.005 C 
HETATM    7  C   UNL     1      29.124  37.540  48.474  1.00  0.00     0.005 C 
HETATM    8  C   UNL     1      28.753  38.703  47.549  1.00  0.00     0.047 C 
HETATM    9  C   UNL     1      27.657  41.241  50.166  1.00  0.00     0.073 C 
ENDROOT
BRANCH   1  10
HETATM   10  N   UNL     1      26.155  42.899  48.965  1.00  0.00    -0.319 N 
HETATM   11  C   UNL     1      24.798  42.676  49.018  1.00  0.00     0.248 C 
HETATM   12  O   UNL     1      24.246  41.576  48.954  1.00  0.00    -0.271 OA
HETATM   13  H   UNL     1      26.516  43.702  48.463  1.00  0.00     0.169 HD
BRANCH  11  14
HETATM   14  C   UNL     1      23.937  43.936  49.127  1.00  0.00     0.337 C 
BRANCH  14  15
HETATM   15  N   UNL     1      24.574  44.925  50.104  1.00  0.00    -0.062 N 
HETATM   16  C   UNL     1      24.198  46.366  49.806  1.00  0.00     0.249 C 
HETATM   17  C   UNL     1      25.103  47.306  50.593  1.00  0.00     0.111 C 
HETATM   18  C   UNL     1      25.137  46.960  52.087  1.00  0.00     0.018 C 
HETATM   19  C   UNL     1      25.316  45.468  52.383  1.00  0.00     0.029 C 
HETATM   20  C   UNL     1      24.408  44.575  51.547  1.00  0.00     0.235 C 
HETATM   21  H   UNL     1      25.593  44.859  49.875  1.00  0.00     0.280 HD
BRANCH  17  22
HETATM   22  C   UNL     1      26.472  47.222  49.958  1.00  0.00     0.264 C 
HETATM   23  O   UNL     1      26.821  46.257  49.289  1.00  0.00    -0.265 OA
BRANCH  22  24
HETATM   24  O   UNL     1      27.164  48.373  50.126  1.00  0.00    -0.322 OA
BRANCH  24  25
HETATM   25  C   UNL     1      27.660  48.951  48.910  1.00  0.00     0.174 C 
HETATM   26  C   UNL     1      26.598  49.880  48.355  1.00  0.00     0.034 C 
ENDBRANCH  24  25
ENDBRANCH  22  24
ENDBRANCH  17  22
ENDBRANCH  14  15
ENDBRANCH  11  14
ENDBRANCH   1  10
BRANCH   9  27
HETATM   27  C   UNL     1      27.659  41.878  51.507  1.00  0.00     0.259 C 
HETATM   28  N   UNL     1      28.894  42.299  51.959  1.00  0.00    -0.323 N 
HETATM   29  H   UNL     1      29.690  42.039  51.396  1.00  0.00     0.169 HD
HETATM   30  O   UNL     1      26.608  42.006  52.137  1.00  0.00    -0.267 OA
BRANCH  28  31
HETATM   31  C   UNL     1      29.186  43.055  53.113  1.00  0.00     0.035 A 
HETATM   32  C   UNL     1      28.474  44.189  53.514  1.00  0.00     0.031 A 
HETATM   33  C   UNL     1      28.844  44.891  54.668  1.00  0.00     0.026 A 
HETATM   34  C   UNL     1      29.936  44.470  55.420  1.00  0.00     0.034 A 
HETATM   35 CL   UNL     1      30.388  45.336  56.834  1.00  0.00    -0.084 Cl
HETATM   36  C   UNL     1      30.661  43.348  55.032  1.00  0.00     0.026 A 
HETATM   37  C   UNL     1      30.282  42.640  53.885  1.00  0.00     0.031 A 
ENDBRANCH  28  31
ENDBRANCH   9  27
TORSDOF 8
ENDMDL
MODEL 2
REMARK VINA RESULT:      -9.0      3.113      7.971
REMARK  8 active torsions:
REMARK  status: ('A' for Active; 'I' for Inactive)
REMARK    1  A    between atoms: C_2  and  O_3 
REMARK    2  A    between atoms: O_3  and  C_4 
REMARK    3  A    between atoms: C_4  and  C_5 
REMARK    4  A    between atoms: N_7  and  C_9 
REMARK    5  A    between atoms: C_9  and  C_10 
REMARK       I    between atoms: C_10  and  N_11 
REMARK    6  A    between atoms: N_11  and  C_12 
REMARK    7  A    between atoms: C_20  and  C_21 
REMARK       I    between atoms: C_21  and  N_22 
REMARK    8  A    between atoms: N_22  and  C_23 
ROOT
HETATM    1  C   UNL     1      27.629  42.583  53.163  1.00  0.00     0.093 C 
HETATM    2  S   UNL     1      29.119  41.939  53.638  1.00  0.00    -0.075 SA
HETATM    3  C   UNL     1      29.451  43.306  54.584  1.00  0.00    -0.008 C 
HETATM    4  C   UNL     1      28.507  44.312  54.435  1.00  0.00    -0.026 C 
HETATM    5  C   UNL     1      28.688  45.630  55.147  1.00  0.00     0.041 C 
HETATM    6  C   UNL     1      30.094  45.809  55.743  1.00  0.00     0.005 C 
HETATM    7  C   UNL     1      30.586  44.531  56.428  1.00  0.00     0.005 C 
HETATM    8  C   UNL     1      30.692  43.380  55.422  1.00  0.00     0.047 C 
HETATM    9  C   UNL     1      27.421  43.902  53.547  1.00  0.00     0.073 C 
ENDROOT
BRANCH   1  10
HETATM   10  N   UNL     1      26.864  41.677  52.455  1.00  0.00    -0.319 N 
HETATM   11  C   UNL     1      26.939  41.661  51.081  1.00  0.00     0.248 C 
HETATM   12  O   UNL     1      27.475  42.521  50.379  1.00  0.00    -0.271 OA
HETATM   13  H   UNL     1      26.021  41.360  52.918  1.00  0.00     0.169 HD
BRANCH  11  14
HETATM   14  C   UNL     1      26.250  40.472  50.407  1.00  0.00     0.337 C 
BRANCH  14  15
HETATM   15  N   UNL     1      27.182  39.843  49.371  1.00  0.00    -0.062 N 
HETATM   16  C   UNL     1      27.126  38.325  49.380  1.00  0.00     0.249 C 
HETATM   17  C   UNL     1      28.290  37.763  48.571  1.00  0.00     0.111 C 
HETATM   18  C   UNL     1      28.373  38.383  47.170  1.00  0.00     0.018 C 
HETATM   19  C   UNL     1      28.226  39.908  47.147  1.00  0.00     0.029 C 
HETATM   20  C   UNL     1      27.066  40.414  47.996  1.00  0.00     0.235 C 
HETATM   21  H   UNL     1      28.134  40.080  49.735  1.00  0.00     0.280 HD
BRANCH  17  22
HETATM   22  C   UNL     1      29.541  38.016  49.381  1.00  0.00     0.264 C 
HETATM   23  O   UNL     1      30.647  38.101  48.860  1.00  0.00    -0.265 OA
BRANCH  22  24
HETATM   24  O   UNL     1      29.246  38.250  50.681  1.00  0.00    -0.322 OA
BRANCH  24  25
HETATM   25  C   UNL     1      30.118  37.594  51.614  1.00  0.00     0.174 C 
HETATM   26  C   UNL     1      29.765  36.121  51.643  1.00  0.00     0.034 C 
ENDBRANCH  24  25
ENDBRANCH  22  24
ENDBRANCH  17  22
ENDBRANCH  14  15
ENDBRANCH  11  14
ENDBRANCH   1  10
BRANCH   9  27
HETATM   27  C   UNL     1      26.288  44.698  53.012  1.00  0.00     0.259 C 
HETATM   28  N   UNL     1      26.420  45.103  51.698  1.00  0.00    -0.323 N 
HETATM   29  H   UNL     1      27.310  44.921  51.259  1.00  0.00     0.169 HD
HETATM   30  O   UNL     1      25.316  44.953  53.724  1.00  0.00    -0.267 OA
BRANCH  28  31
HETATM   31  C   UNL     1      25.459  45.740  50.884  1.00  0.00     0.035 A 
HETATM   32  C   UNL     1      24.475  45.068  50.155  1.00  0.00     0.031 A 
HETATM   33  C   UNL     1      23.569  45.780  49.358  1.00  0.00     0.026 A 
HETATM   34  C   UNL     1      23.654  47.166  49.275  1.00  0.00     0.034 A 
HETATM   35 CL   UNL     1      22.543  48.035  48.293  1.00  0.00    -0.084 Cl
HETATM   36  C   UNL     1      24.632  47.850  49.988  1.00  0.00     0.026 A 
HETATM   37  C   UNL     1      25.528  47.139  50.795  1.00  0.00     0.031 A 
ENDBRANCH  28  31
ENDBRANCH   9  27
TORSDOF 8
ENDMDL
MODEL 3
REMARK VINA RESULT:      -8.7      3.562      6.294
REMARK  8 active torsions:
REMARK  status: ('A' for Active; 'I' for Inactive)
REMARK    1  A    between atoms: C_2  and  O_3 
REMARK    2  A    between atoms: O_3  and  C_4 
REMARK    3  A    between atoms: C_4  and  C_5 
REMARK    4  A    between atoms: N_7  and  C_9 
REMARK    5  A    between atoms: C_9  and  C_10 
REMARK       I    between atoms: C_10  and  N_11 
REMARK    6  A    between atoms: N_11  and  C_12 
REMARK    7  A    between atoms: C_20  and  C_21 
REMARK       I    between atoms: C_21  and  N_22 
REMARK    8  A    between atoms: N_22  and  C_23 
ROOT
HETATM    1  C   UNL     1      28.430  45.592  54.585  1.00  0.00     0.093 C 
HETATM    2  S   UNL     1      28.501  46.279  56.130  1.00  0.00    -0.075 SA
HETATM    3  C   UNL     1      29.742  45.218  56.586  1.00  0.00    -0.008 C 
HETATM    4  C   UNL     1      30.011  44.252  55.626  1.00  0.00    -0.026 C 
HETATM    5  C   UNL     1      31.036  43.179  55.901  1.00  0.00     0.041 C 
HETATM    6  C   UNL     1      31.465  43.114  57.376  1.00  0.00     0.005 C 
HETATM    7  C   UNL     1      31.688  44.510  57.964  1.00  0.00     0.005 C 
HETATM    8  C   UNL     1      30.393  45.327  57.932  1.00  0.00     0.047 C 
HETATM    9  C   UNL     1      29.196  44.444  54.428  1.00  0.00     0.073 C 
ENDROOT
BRANCH   1  10
HETATM   10  N   UNL     1      27.604  46.296  53.732  1.00  0.00    -0.319 N 
HETATM   11  C   UNL     1      26.240  46.230  53.909  1.00  0.00     0.248 C 
HETATM   12  O   UNL     1      25.646  45.433  54.637  1.00  0.00    -0.271 OA
HETATM   13  H   UNL     1      27.985  46.489  52.813  1.00  0.00     0.169 HD
BRANCH  11  14
HETATM   14  C   UNL     1      25.430  47.227  53.078  1.00  0.00     0.337 C 
BRANCH  14  15
HETATM   15  N   UNL     1      24.888  46.545  51.821  1.00  0.00    -0.062 N 
HETATM   16  C   UNL     1      25.618  46.977  50.561  1.00  0.00     0.249 C 
HETATM   17  C   UNL     1      24.838  46.522  49.333  1.00  0.00     0.111 C 
HETATM   18  C   UNL     1      24.499  45.026  49.385  1.00  0.00     0.018 C 
HETATM   19  C   UNL     1      23.948  44.552  50.733  1.00  0.00     0.029 C 
HETATM   20  C   UNL     1      24.750  45.061  51.925  1.00  0.00     0.235 C 
HETATM   21  H   UNL     1      23.928  46.949  51.728  1.00  0.00     0.280 HD
BRANCH  17  22
HETATM   22  C   UNL     1      23.598  47.384  49.265  1.00  0.00     0.264 C 
HETATM   23  O   UNL     1      22.544  46.973  48.794  1.00  0.00    -0.265 OA
BRANCH  22  24
HETATM   24  O   UNL     1      23.789  48.570  49.890  1.00  0.00    -0.322 OA
BRANCH  24  25
HETATM   25  C   UNL     1      23.279  49.706  49.176  1.00  0.00     0.174 C 
HETATM   26  C   UNL     1      24.261  50.060  48.078  1.00  0.00     0.034 C 
ENDBRANCH  24  25
ENDBRANCH  22  24
ENDBRANCH  17  22
ENDBRANCH  14  15
ENDBRANCH  11  14
ENDBRANCH   1  10
BRANCH   9  27
HETATM   27  C   UNL     1      29.065  43.580  53.229  1.00  0.00     0.259 C 
HETATM   28  N   UNL     1      27.784  43.144  52.952  1.00  0.00    -0.323 N 
HETATM   29  H   UNL     1      27.078  43.356  53.642  1.00  0.00     0.169 HD
HETATM   30  O   UNL     1      30.055  43.297  52.553  1.00  0.00    -0.267 OA
BRANCH  28  31
HETATM   31  C   UNL     1      27.331  42.439  51.817  1.00  0.00     0.035 A 
HETATM   32  C   UNL     1      26.876  41.119  51.839  1.00  0.00     0.031 A 
HETATM   33  C   UNL     1      26.459  40.489  50.660  1.00  0.00     0.026 A 
HETATM   34  C   UNL     1      26.506  41.174  49.450  1.00  0.00     0.034 A 
HETATM   35 CL   UNL     1      25.995  40.397  48.005  1.00  0.00    -0.084 Cl
HETATM   36  C   UNL     1      26.962  42.487  49.408  1.00  0.00     0.026 A 
HETATM   37  C   UNL     1      27.367  43.119  50.590  1.00  0.00     0.031 A 
ENDBRANCH  28  31
ENDBRANCH   9  27
TORSDOF 8
ENDMDL
MODEL 4
REMARK VINA RESULT:      -8.6      3.278      7.235
REMARK  8 active torsions:
REMARK  status: ('A' for Active; 'I' for Inactive)
REMARK    1  A    between atoms: C_2  and  O_3 
REMARK    2  A    between atoms: O_3  and  C_4 
REMARK    3  A    between atoms: C_4  and  C_5 
REMARK    4  A    between atoms: N_7  and  C_9 
REMARK    5  A    between atoms: C_9  and  C_10 
REMARK       I    between atoms: C_10  and  N_11 
REMARK    6  A    between atoms: N_11  and  C_12 
REMARK    7  A    between atoms: C_20  and  C_21 
REMARK       I    between atoms: C_21  and  N_22 
REMARK    8  A    between atoms: N_22  and  C_23 
ROOT
HETATM    1  C   UNL     1      27.644  42.350  52.946  1.00  0.00     0.093 C 
HETATM    2  S   UNL     1      29.191  41.868  53.432  1.00  0.00    -0.075 SA
HETATM    3  C   UNL     1      29.362  43.252  54.395  1.00  0.00    -0.008 C 
HETATM    4  C   UNL     1      28.315  44.150  54.246  1.00  0.00    -0.026 C 
HETATM    5  C   UNL     1      28.343  45.472  54.974  1.00  0.00     0.041 C 
HETATM    6  C   UNL     1      29.715  45.797  55.587  1.00  0.00     0.005 C 
HETATM    7  C   UNL     1      30.338  44.572  56.264  1.00  0.00     0.005 C 
HETATM    8  C   UNL     1      30.579  43.452  55.248  1.00  0.00     0.047 C 
HETATM    9  C   UNL     1      27.290  43.634  53.341  1.00  0.00     0.073 C 
ENDROOT
BRANCH   1  10
HETATM   10  N   UNL     1      26.990  41.375  52.220  1.00  0.00    -0.319 N 
HETATM   11  C   UNL     1      27.041  41.411  50.845  1.00  0.00     0.248 C 
HETATM   12  O   UNL     1      27.446  42.355  50.164  1.00  0.00    -0.271 OA
HETATM   13  H   UNL     1      26.205  40.936  52.685  1.00  0.00     0.169 HD
BRANCH  11  14
HETATM   14  C   UNL     1      26.500  40.164  50.143  1.00  0.00     0.337 C 
BRANCH  14  15
HETATM   15  N   UNL     1      26.147  40.490  48.691  1.00  0.00    -0.062 N 
HETATM   16  C   UNL     1      26.549  39.385  47.729  1.00  0.00     0.249 C 
HETATM   17  C   UNL     1      26.470  39.897  46.296  1.00  0.00     0.111 C 
HETATM   18  C   UNL     1      25.112  40.540  45.986  1.00  0.00     0.018 C 
HETATM   19  C   UNL     1      24.613  41.508  47.063  1.00  0.00     0.029 C 
HETATM   20  C   UNL     1      24.744  40.955  48.477  1.00  0.00     0.235 C 
HETATM   21  H   UNL     1      26.785  41.288  48.467  1.00  0.00     0.280 HD
BRANCH  17  22
HETATM   22  C   UNL     1      27.613  40.870  46.121  1.00  0.00     0.264 C 
HETATM   23  O   UNL     1      28.386  41.138  47.034  1.00  0.00    -0.265 OA
BRANCH  22  24
HETATM   24  O   UNL     1      27.722  41.275  44.834  1.00  0.00    -0.322 OA
BRANCH  24  25
HETATM   25  C   UNL     1      28.218  40.271  43.936  1.00  0.00     0.174 C 
HETATM   26  C   UNL     1      29.526  40.760  43.348  1.00  0.00     0.034 C 
ENDBRANCH  24  25
ENDBRANCH  22  24
ENDBRANCH  17  22
ENDBRANCH  14  15
ENDBRANCH  11  14
ENDBRANCH   1  10
BRANCH   9  27
HETATM   27  C   UNL     1      26.082  44.307  52.802  1.00  0.00     0.259 C 
HETATM   28  N   UNL     1      26.258  44.961  51.598  1.00  0.00    -0.323 N 
HETATM   29  H   UNL     1      27.204  45.018  51.252  1.00  0.00     0.169 HD
HETATM   30  O   UNL     1      25.015  44.259  53.416  1.00  0.00    -0.267 OA
BRANCH  28  31
HETATM   31  C   UNL     1      25.276  45.561  50.782  1.00  0.00     0.035 A 
HETATM   32  C   UNL     1      24.410  44.854  49.943  1.00  0.00     0.031 A 
HETATM   33  C   UNL     1      23.474  45.532  49.152  1.00  0.00     0.026 A 
HETATM   34  C   UNL     1      23.407  46.921  49.188  1.00  0.00     0.034 A 
HETATM   35 CL   UNL     1      22.258  47.749  48.214  1.00  0.00    -0.084 Cl
HETATM   36  C   UNL     1      24.266  47.641  50.012  1.00  0.00     0.026 A 
HETATM   37  C   UNL     1      25.193  46.961  50.811  1.00  0.00     0.031 A 
ENDBRANCH  28  31
ENDBRANCH   9  27
TORSDOF 8
ENDMDL
MODEL 5
REMARK VINA RESULT:      -8.6      1.977      2.763
REMARK  8 active torsions:
REMARK  status: ('A' for Active; 'I' for Inactive)
REMARK    1  A    between atoms: C_2  and  O_3 
REMARK    2  A    between atoms: O_3  and  C_4 
REMARK    3  A    between atoms: C_4  and  C_5 
REMARK    4  A    between atoms: N_7  and  C_9 
REMARK    5  A    between atoms: C_9  and  C_10 
REMARK       I    between atoms: C_10  and  N_11 
REMARK    6  A    between atoms: N_11  and  C_12 
REMARK    7  A    between atoms: C_20  and  C_21 
REMARK       I    between atoms: C_21  and  N_22 
REMARK    8  A    between atoms: N_22  and  C_23 
ROOT
HETATM    1  C   UNL     1      26.514  41.567  50.970  1.00  0.00     0.093 C 
HETATM    2  S   UNL     1      26.118  41.163  49.376  1.00  0.00    -0.075 SA
HETATM    3  C   UNL     1      27.326  39.975  49.337  1.00  0.00    -0.008 C 
HETATM    4  C   UNL     1      28.123  39.973  50.473  1.00  0.00    -0.026 C 
HETATM    5  C   UNL     1      29.296  39.028  50.572  1.00  0.00     0.041 C 
HETATM    6  C   UNL     1      29.650  38.360  49.233  1.00  0.00     0.005 C 
HETATM    7  C   UNL     1      28.399  37.900  48.479  1.00  0.00     0.005 C 
HETATM    8  C   UNL     1      27.501  39.094  48.136  1.00  0.00     0.047 C 
HETATM    9  C   UNL     1      27.667  40.959  51.450  1.00  0.00     0.073 C 
ENDROOT
BRANCH   1  10
HETATM   10  N   UNL     1      25.616  42.454  51.529  1.00  0.00    -0.319 N 
HETATM   11  C   UNL     1      25.864  43.806  51.447  1.00  0.00     0.248 C 
HETATM   12  O   UNL     1      26.927  44.323  51.098  1.00  0.00    -0.271 OA
HETATM   13  H   UNL     1      25.056  42.089  52.290  1.00  0.00     0.169 HD
BRANCH  11  14
HETATM   14  C   UNL     1      24.702  44.706  51.873  1.00  0.00     0.337 C 
BRANCH  14  15
HETATM   15  N   UNL     1      23.876  45.110  50.652  1.00  0.00    -0.062 N 
HETATM   16  C   UNL     1      24.719  45.738  49.556  1.00  0.00     0.249 C 
HETATM   17  C   UNL     1      23.813  46.401  48.526  1.00  0.00     0.111 C 
HETATM   18  C   UNL     1      22.725  45.448  48.015  1.00  0.00     0.018 C 
HETATM   19  C   UNL     1      22.009  44.661  49.117  1.00  0.00     0.029 C 
HETATM   20  C   UNL     1      22.963  44.046  50.134  1.00  0.00     0.235 C 
HETATM   21  H   UNL     1      23.282  45.890  51.016  1.00  0.00     0.280 HD
BRANCH  17  22
HETATM   22  C   UNL     1      23.230  47.628  49.188  1.00  0.00     0.264 C 
HETATM   23  O   UNL     1      23.776  48.177  50.138  1.00  0.00    -0.265 OA
BRANCH  22  24
HETATM   24  O   UNL     1      22.140  48.075  48.523  1.00  0.00    -0.322 OA
BRANCH  24  25
HETATM   25  C   UNL     1      21.880  49.478  48.683  1.00  0.00     0.174 C 
HETATM   26  C   UNL     1      22.703  50.236  47.660  1.00  0.00     0.034 C 
ENDBRANCH  24  25
ENDBRANCH  22  24
ENDBRANCH  17  22
ENDBRANCH  14  15
ENDBRANCH  11  14
ENDBRANCH   1  10
BRANCH   9  27
HETATM   27  C   UNL     1      28.294  41.380  52.728  1.00  0.00     0.259 C 
HETATM   28  N   UNL     1      28.744  42.686  52.762  1.00  0.00    -0.323 N 
HETATM   29  H   UNL     1      28.708  43.196  51.892  1.00  0.00     0.169 HD
HETATM   30  O   UNL     1      28.385  40.590  53.668  1.00  0.00    -0.267 OA
BRANCH  28  31
HETATM   31  C   UNL     1      29.246  43.404  53.868  1.00  0.00     0.035 A 
HETATM   32  C   UNL     1      30.439  43.101  54.529  1.00  0.00     0.031 A 
HETATM   33  C   UNL     1      30.855  43.859  55.630  1.00  0.00     0.026 A 
HETATM   34  C   UNL     1      30.073  44.915  56.084  1.00  0.00     0.034 A 
HETATM   35 CL   UNL     1      30.587  45.841  57.438  1.00  0.00    -0.084 Cl
HETATM   36  C   UNL     1      28.879  45.227  55.443  1.00  0.00     0.026 A 
HETATM   37  C   UNL     1      28.471  44.477  54.334  1.00  0.00     0.031 A 
ENDBRANCH  28  31
ENDBRANCH   9  27
TORSDOF 8
ENDMDL
MODEL 6
REMARK VINA RESULT:      -8.6      3.200      8.106
REMARK  8 active torsions:
REMARK  status: ('A' for Active; 'I' for Inactive)
REMARK    1  A    between atoms: C_2  and  O_3 
REMARK    2  A    between atoms: O_3  and  C_4 
REMARK    3  A    between atoms: C_4  and  C_5 
REMARK    4  A    between atoms: N_7  and  C_9 
REMARK    5  A    between atoms: C_9  and  C_10 
REMARK       I    between atoms: C_10  and  N_11 
REMARK    6  A    between atoms: N_11  and  C_12 
REMARK    7  A    between atoms: C_20  and  C_21 
REMARK       I    between atoms: C_21  and  N_22 
REMARK    8  A    between atoms: N_22  and  C_23 
ROOT
HETATM    1  C   UNL     1      27.580  42.439  53.058  1.00  0.00     0.093 C 
HETATM    2  S   UNL     1      29.121  41.933  53.541  1.00  0.00    -0.075 SA
HETATM    3  C   UNL     1      29.327  43.330  54.478  1.00  0.00    -0.008 C 
HETATM    4  C   UNL     1      28.298  44.248  54.320  1.00  0.00    -0.026 C 
HETATM    5  C   UNL     1      28.360  45.582  55.023  1.00  0.00     0.041 C 
HETATM    6  C   UNL     1      29.743  45.888  55.620  1.00  0.00     0.005 C 
HETATM    7  C   UNL     1      30.345  44.663  56.315  1.00  0.00     0.005 C 
HETATM    8  C   UNL     1      30.555  43.520  55.317  1.00  0.00     0.047 C 
HETATM    9  C   UNL     1      27.256  43.737  53.432  1.00  0.00     0.073 C 
ENDROOT
BRANCH   1  10
HETATM   10  N   UNL     1      26.900  41.465  52.355  1.00  0.00    -0.319 N 
HETATM   11  C   UNL     1      26.936  41.479  50.979  1.00  0.00     0.248 C 
HETATM   12  O   UNL     1      27.350  42.405  50.278  1.00  0.00    -0.271 OA
HETATM   13  H   UNL     1      26.113  41.047  52.835  1.00  0.00     0.169 HD
BRANCH  11  14
HETATM   14  C   UNL     1      26.364  40.231  50.302  1.00  0.00     0.337 C 
BRANCH  14  15
HETATM   15  N   UNL     1      27.500  39.330  49.817  1.00  0.00    -0.062 N 
HETATM   16  C   UNL     1      27.911  39.626  48.386  1.00  0.00     0.249 C 
HETATM   17  C   UNL     1      28.802  38.505  47.864  1.00  0.00     0.111 C 
HETATM   18  C   UNL     1      29.975  38.211  48.809  1.00  0.00     0.018 C 
HETATM   19  C   UNL     1      29.583  38.112  50.286  1.00  0.00     0.029 C 
HETATM   20  C   UNL     1      28.669  39.242  50.744  1.00  0.00     0.235 C 
HETATM   21  H   UNL     1      27.052  38.385  49.779  1.00  0.00     0.280 HD
BRANCH  17  22
HETATM   22  C   UNL     1      27.912  37.300  47.670  1.00  0.00     0.264 C 
HETATM   23  O   UNL     1      26.863  37.159  48.288  1.00  0.00    -0.265 OA
BRANCH  22  24
HETATM   24  O   UNL     1      28.364  36.510  46.669  1.00  0.00    -0.322 OA
BRANCH  24  25
HETATM   25  C   UNL     1      28.687  37.211  45.459  1.00  0.00     0.174 C 
HETATM   26  C   UNL     1      29.951  36.607  44.880  1.00  0.00     0.034 C 
ENDBRANCH  24  25
ENDBRANCH  22  24
ENDBRANCH  17  22
ENDBRANCH  14  15
ENDBRANCH  11  14
ENDBRANCH   1  10
BRANCH   9  27
HETATM   27  C   UNL     1      26.058  44.426  52.890  1.00  0.00     0.259 C 
HETATM   28  N   UNL     1      26.232  45.035  51.663  1.00  0.00    -0.323 N 
HETATM   29  H   UNL     1      27.174  45.055  51.301  1.00  0.00     0.169 HD
HETATM   30  O   UNL     1      25.000  44.426  53.522  1.00  0.00    -0.267 OA
BRANCH  28  31
HETATM   31  C   UNL     1      25.254  45.635  50.843  1.00  0.00     0.035 A 
HETATM   32  C   UNL     1      24.368  44.927  50.027  1.00  0.00     0.031 A 
HETATM   33  C   UNL     1      23.436  45.606  49.230  1.00  0.00     0.026 A 
HETATM   34  C   UNL     1      23.396  46.996  49.236  1.00  0.00     0.034 A 
HETATM   35 CL   UNL     1      22.253  47.824  48.255  1.00  0.00    -0.084 Cl
HETATM   36  C   UNL     1      24.275  47.717  50.037  1.00  0.00     0.026 A 
HETATM   37  C   UNL     1      25.196  47.037  50.843  1.00  0.00     0.031 A 
ENDBRANCH  28  31
ENDBRANCH   9  27
TORSDOF 8
ENDMDL
MODEL 7
REMARK VINA RESULT:      -8.5      2.300      6.898
REMARK  8 active torsions:
REMARK  status: ('A' for Active; 'I' for Inactive)
REMARK    1  A    between atoms: C_2  and  O_3 
REMARK    2  A    between atoms: O_3  and  C_4 
REMARK    3  A    between atoms: C_4  and  C_5 
REMARK    4  A    between atoms: N_7  and  C_9 
REMARK    5  A    between atoms: C_9  and  C_10 
REMARK       I    between atoms: C_10  and  N_11 
REMARK    6  A    between atoms: N_11  and  C_12 
REMARK    7  A    between atoms: C_20  and  C_21 
REMARK       I    between atoms: C_21  and  N_22 
REMARK    8  A    between atoms: N_22  and  C_23 
ROOT
HETATM    1  C   UNL     1      23.701  45.221  48.835  1.00  0.00     0.093 C 
HETATM    2  S   UNL     1      22.228  45.456  48.036  1.00  0.00    -0.075 SA
HETATM    3  C   UNL     1      22.299  47.126  48.318  1.00  0.00    -0.008 C 
HETATM    4  C   UNL     1      23.359  47.495  49.135  1.00  0.00    -0.026 C 
HETATM    5  C   UNL     1      23.527  48.936  49.550  1.00  0.00     0.041 C 
HETATM    6  C   UNL     1      22.296  49.803  49.243  1.00  0.00     0.005 C 
HETATM    7  C   UNL     1      21.721  49.501  47.855  1.00  0.00     0.005 C 
HETATM    8  C   UNL     1      21.252  48.046  47.766  1.00  0.00     0.047 C 
HETATM    9  C   UNL     1      24.190  46.345  49.487  1.00  0.00     0.073 C 
ENDROOT
BRANCH   1  10
HETATM   10  N   UNL     1      24.169  43.928  48.710  1.00  0.00    -0.319 N 
HETATM   11  C   UNL     1      23.849  42.999  49.674  1.00  0.00     0.248 C 
HETATM   12  O   UNL     1      23.347  43.246  50.773  1.00  0.00    -0.271 OA
HETATM   13  H   UNL     1      25.016  43.820  48.166  1.00  0.00     0.169 HD
BRANCH  11  14
HETATM   14  C   UNL     1      24.203  41.552  49.325  1.00  0.00     0.337 C 
BRANCH  14  15
HETATM   15  N   UNL     1      25.713  41.338  49.443  1.00  0.00    -0.062 N 
HETATM   16  C   UNL     1      26.087  40.454  50.621  1.00  0.00     0.249 C 
HETATM   17  C   UNL     1      27.588  40.543  50.873  1.00  0.00     0.111 C 
HETATM   18  C   UNL     1      28.404  40.278  49.602  1.00  0.00     0.018 C 
HETATM   19  C   UNL     1      27.897  41.021  48.362  1.00  0.00     0.029 C 
HETATM   20  C   UNL     1      26.387  40.923  48.176  1.00  0.00     0.235 C 
HETATM   21  H   UNL     1      26.067  42.289  49.696  1.00  0.00     0.280 HD
BRANCH  17  22
HETATM   22  C   UNL     1      27.850  41.918  51.442  1.00  0.00     0.264 C 
HETATM   23  O   UNL     1      26.994  42.795  51.448  1.00  0.00    -0.265 OA
BRANCH  22  24
HETATM   24  O   UNL     1      29.068  41.984  52.029  1.00  0.00    -0.322 OA
BRANCH  24  25
HETATM   25  C   UNL     1      29.385  43.262  52.599  1.00  0.00     0.174 C 
HETATM   26  C   UNL     1      29.885  43.044  54.012  1.00  0.00     0.034 C 
ENDBRANCH  24  25
ENDBRANCH  22  24
ENDBRANCH  17  22
ENDBRANCH  14  15
ENDBRANCH  11  14
ENDBRANCH   1  10
BRANCH   9  27
HETATM   27  C   UNL     1      25.331  46.261  50.433  1.00  0.00     0.259 C 
HETATM   28  N   UNL     1      25.042  46.607  51.738  1.00  0.00    -0.323 N 
HETATM   29  H   UNL     1      24.124  46.989  51.909  1.00  0.00     0.169 HD
HETATM   30  O   UNL     1      26.441  45.899  50.039  1.00  0.00    -0.267 OA
BRANCH  28  31
HETATM   31  C   UNL     1      25.873  46.491  52.873  1.00  0.00     0.035 A 
HETATM   32  C   UNL     1      26.640  47.533  53.398  1.00  0.00     0.031 A 
HETATM   33  C   UNL     1      27.451  47.325  54.522  1.00  0.00     0.026 A 
HETATM   34  C   UNL     1      27.508  46.069  55.116  1.00  0.00     0.034 A 
HETATM   35 CL   UNL     1      28.506  45.818  56.492  1.00  0.00    -0.084 Cl
HETATM   36  C   UNL     1      26.757  45.018  54.602  1.00  0.00     0.026 A 
HETATM   37  C   UNL     1      25.937  45.230  53.487  1.00  0.00     0.031 A 
ENDBRANCH  28  31
ENDBRANCH   9  27
TORSDOF 8
ENDMDL
MODEL 8
REMARK VINA RESULT:      -8.3      3.461      6.780
REMARK  8 active torsions:
REMARK  status: ('A' for Active; 'I' for Inactive)
REMARK    1  A    between atoms: C_2  and  O_3 
REMARK    2  A    between atoms: O_3  and  C_4 
REMARK    3  A    between atoms: C_4  and  C_5 
REMARK    4  A    between atoms: N_7  and  C_9 
REMARK    5  A    between atoms: C_9  and  C_10 
REMARK       I    between atoms: C_10  and  N_11 
REMARK    6  A    between atoms: N_11  and  C_12 
REMARK    7  A    between atoms: C_20  and  C_21 
REMARK       I    between atoms: C_21  and  N_22 
REMARK    8  A    between atoms: N_22  and  C_23 
ROOT
HETATM    1  C   UNL     1      28.348  45.153  54.493  1.00  0.00     0.093 C 
HETATM    2  S   UNL     1      28.237  45.946  55.984  1.00  0.00    -0.075 SA
HETATM    3  C   UNL     1      29.627  45.157  56.549  1.00  0.00    -0.008 C 
HETATM    4  C   UNL     1      30.098  44.190  55.672  1.00  0.00    -0.026 C 
HETATM    5  C   UNL     1      31.285  43.338  56.052  1.00  0.00     0.041 C 
HETATM    6  C   UNL     1      31.661  43.452  57.538  1.00  0.00     0.005 C 
HETATM    7  C   UNL     1      31.613  44.903  58.026  1.00  0.00     0.005 C 
HETATM    8  C   UNL     1      30.196  45.473  57.900  1.00  0.00     0.047 C 
HETATM    9  C   UNL     1      29.309  44.151  54.443  1.00  0.00     0.073 C 
ENDROOT
BRANCH   1  10
HETATM   10  N   UNL     1      27.444  45.638  53.569  1.00  0.00    -0.319 N 
HETATM   11  C   UNL     1      26.196  45.064  53.483  1.00  0.00     0.248 C 
HETATM   12  O   UNL     1      25.852  44.005  54.012  1.00  0.00    -0.271 OA
HETATM   13  H   UNL     1      27.847  46.093  52.759  1.00  0.00     0.169 HD
BRANCH  11  14
HETATM   14  C   UNL     1      25.192  45.821  52.611  1.00  0.00     0.337 C 
BRANCH  14  15
HETATM   15  N   UNL     1      25.040  45.123  51.259  1.00  0.00    -0.062 N 
HETATM   16  C   UNL     1      23.716  45.437  50.584  1.00  0.00     0.249 C 
HETATM   17  C   UNL     1      23.490  44.478  49.422  1.00  0.00     0.111 C 
HETATM   18  C   UNL     1      24.690  44.434  48.467  1.00  0.00     0.018 C 
HETATM   19  C   UNL     1      26.048  44.319  49.167  1.00  0.00     0.029 C 
HETATM   20  C   UNL     1      26.206  45.281  50.338  1.00  0.00     0.235 C 
HETATM   21  H   UNL     1      24.975  44.112  51.521  1.00  0.00     0.280 HD
BRANCH  17  22
HETATM   22  C   UNL     1      23.197  43.125  50.029  1.00  0.00     0.264 C 
HETATM   23  O   UNL     1      23.486  42.855  51.189  1.00  0.00    -0.265 OA
BRANCH  22  24
HETATM   24  O   UNL     1      22.487  42.348  49.178  1.00  0.00    -0.322 OA
BRANCH  24  25
HETATM   25  C   UNL     1      23.255  41.324  48.528  1.00  0.00     0.174 C 
HETATM   26  C   UNL     1      22.494  40.865  47.300  1.00  0.00     0.034 C 
ENDBRANCH  24  25
ENDBRANCH  22  24
ENDBRANCH  17  22
ENDBRANCH  14  15
ENDBRANCH  11  14
ENDBRANCH   1  10
BRANCH   9  27
HETATM   27  C   UNL     1      29.377  43.197  53.308  1.00  0.00     0.259 C 
HETATM   28  N   UNL     1      28.316  42.319  53.209  1.00  0.00    -0.323 N 
HETATM   29  H   UNL     1      27.653  42.329  53.970  1.00  0.00     0.169 HD
HETATM   30  O   UNL     1      30.332  43.222  52.529  1.00  0.00    -0.267 OA
BRANCH  28  31
HETATM   31  C   UNL     1      28.035  41.407  52.170  1.00  0.00     0.035 A 
HETATM   32  C   UNL     1      28.883  40.366  51.785  1.00  0.00     0.031 A 
HETATM   33  C   UNL     1      28.532  39.514  50.730  1.00  0.00     0.026 A 
HETATM   34  C   UNL     1      27.336  39.709  50.047  1.00  0.00     0.034 A 
HETATM   35 CL   UNL     1      26.910  38.663  48.751  1.00  0.00    -0.084 Cl
HETATM   36  C   UNL     1      26.483  40.744  50.412  1.00  0.00     0.026 A 
HETATM   37  C   UNL     1      26.829  41.586  51.475  1.00  0.00     0.031 A 
ENDBRANCH  28  31
ENDBRANCH   9  27
TORSDOF 8
ENDMDL
MODEL 9
REMARK VINA RESULT:      -8.3      4.939      7.317
REMARK  8 active torsions:
REMARK  status: ('A' for Active; 'I' for Inactive)
REMARK    1  A    between atoms: C_2  and  O_3 
REMARK    2  A    between atoms: O_3  and  C_4 
REMARK    3  A    between atoms: C_4  and  C_5 
REMARK    4  A    between atoms: N_7  and  C_9 
REMARK    5  A    between atoms: C_9  and  C_10 
REMARK       I    between atoms: C_10  and  N_11 
REMARK    6  A    between atoms: N_11  and  C_12 
REMARK    7  A    between atoms: C_20  and  C_21 
REMARK       I    between atoms: C_21  and  N_22 
REMARK    8  A    between atoms: N_22  and  C_23 
ROOT
HETATM    1  C   UNL     1      22.582  47.207  48.875  1.00  0.00     0.093 C 
HETATM    2  S   UNL     1      21.582  46.768  47.583  1.00  0.00    -0.075 SA
HETATM    3  C   UNL     1      22.227  45.200  47.568  1.00  0.00    -0.008 C 
HETATM    4  C   UNL     1      23.294  45.043  48.441  1.00  0.00    -0.026 C 
HETATM    5  C   UNL     1      24.035  43.729  48.500  1.00  0.00     0.041 C 
HETATM    6  C   UNL     1      23.689  42.785  47.337  1.00  0.00     0.005 C 
HETATM    7  C   UNL     1      22.185  42.767  47.050  1.00  0.00     0.005 C 
HETATM    8  C   UNL     1      21.693  44.157  46.632  1.00  0.00     0.047 C 
HETATM    9  C   UNL     1      23.544  46.262  49.207  1.00  0.00     0.073 C 
ENDROOT
BRANCH   1  10
HETATM   10  N   UNL     1      22.274  48.454  49.381  1.00  0.00    -0.319 N 
HETATM   11  C   UNL     1      22.699  49.578  48.709  1.00  0.00     0.248 C 
HETATM   12  O   UNL     1      23.520  49.599  47.790  1.00  0.00    -0.271 OA
HETATM   13  H   UNL     1      22.113  48.493  50.381  1.00  0.00     0.169 HD
BRANCH  11  14
HETATM   14  C   UNL     1      22.105  50.896  49.209  1.00  0.00     0.337 C 
BRANCH  14  15
HETATM   15  N   UNL     1      20.579  50.856  49.107  1.00  0.00    -0.062 N 
HETATM   16  C   UNL     1      19.910  50.618  50.450  1.00  0.00     0.249 C 
HETATM   17  C   UNL     1      18.441  50.271  50.238  1.00  0.00     0.111 C 
HETATM   18  C   UNL     1      17.727  51.298  49.350  1.00  0.00     0.018 C 
HETATM   19  C   UNL     1      18.504  51.689  48.089  1.00  0.00     0.029 C 
HETATM   20  C   UNL     1      19.972  51.996  48.357  1.00  0.00     0.235 C 
HETATM   21  H   UNL     1      20.402  49.982  48.559  1.00  0.00     0.280 HD
BRANCH  17  22
HETATM   22  C   UNL     1      18.407  48.882  49.642  1.00  0.00     0.264 C 
HETATM   23  O   UNL     1      19.282  48.055  49.869  1.00  0.00    -0.265 OA
BRANCH  22  24
HETATM   24  O   UNL     1      17.256  48.667  48.963  1.00  0.00    -0.322 OA
BRANCH  24  25
HETATM   25  C   UNL     1      16.879  47.286  48.856  1.00  0.00     0.174 C 
HETATM   26  C   UNL     1      17.077  46.847  47.419  1.00  0.00     0.034 C 
ENDBRANCH  24  25
ENDBRANCH  22  24
ENDBRANCH  17  22
ENDBRANCH  14  15
ENDBRANCH  11  14
ENDBRANCH   1  10
BRANCH   9  27
HETATM   27  C   UNL     1      24.652  46.576  50.143  1.00  0.00     0.259 C 
HETATM   28  N   UNL     1      24.614  45.907  51.350  1.00  0.00    -0.323 N 
HETATM   29  H   UNL     1      23.788  45.356  51.532  1.00  0.00     0.169 HD
HETATM   30  O   UNL     1      25.527  47.383  49.824  1.00  0.00    -0.267 OA
BRANCH  28  31
HETATM   31  C   UNL     1      25.591  45.891  52.368  1.00  0.00     0.035 A 
HETATM   32  C   UNL     1      25.811  46.938  53.266  1.00  0.00     0.031 A 
HETATM   33  C   UNL     1      26.816  46.845  54.237  1.00  0.00     0.026 A 
HETATM   34  C   UNL     1      27.614  45.708  54.306  1.00  0.00     0.034 A 
HETATM   35 CL   UNL     1      28.848  45.599  55.498  1.00  0.00    -0.084 Cl
HETATM   36  C   UNL     1      27.415  44.659  53.415  1.00  0.00     0.026 A 
HETATM   37  C   UNL     1      26.402  44.748  52.454  1.00  0.00     0.031 A 
ENDBRANCH  28  31
ENDBRANCH   9  27
TORSDOF 8
ENDMDL
MODEL 10
REMARK VINA RESULT:      -8.3      3.373      6.542
REMARK  8 active torsions:
REMARK  status: ('A' for Active; 'I' for Inactive)
REMARK    1  A    between atoms: C_2  and  O_3 
REMARK    2  A    between atoms: O_3  and  C_4 
REMARK    3  A    between atoms: C_4  and  C_5 
REMARK    4  A    between atoms: N_7  and  C_9 
REMARK    5  A    between atoms: C_9  and  C_10 
REMARK       I    between atoms: C_10  and  N_11 
REMARK    6  A    between atoms: N_11  and  C_12 
REMARK    7  A    between atoms: C_20  and  C_21 
REMARK       I    between atoms: C_21  and  N_22 
REMARK    8  A    between atoms: N_22  and  C_23 
ROOT
HETATM    1  C   UNL     1      27.145  43.073  52.414  1.00  0.00     0.093 C 
HETATM    2  S   UNL     1      28.479  42.146  52.886  1.00  0.00    -0.075 SA
HETATM    3  C   UNL     1      28.954  43.329  54.003  1.00  0.00    -0.008 C 
HETATM    4  C   UNL     1      28.191  44.486  53.926  1.00  0.00    -0.026 C 
HETATM    5  C   UNL     1      28.527  45.672  54.798  1.00  0.00     0.041 C 
HETATM    6  C   UNL     1      29.898  45.552  55.482  1.00  0.00     0.005 C 
HETATM    7  C   UNL     1      30.136  44.144  56.035  1.00  0.00     0.005 C 
HETATM    8  C   UNL     1      30.130  43.108  54.906  1.00  0.00     0.047 C 
HETATM    9  C   UNL     1      27.120  44.358  52.941  1.00  0.00     0.073 C 
ENDROOT
BRANCH   1  10
HETATM   10  N   UNL     1      26.299  42.387  51.566  1.00  0.00    -0.319 N 
HETATM   11  C   UNL     1      26.488  42.481  50.206  1.00  0.00     0.248 C 
HETATM   12  O   UNL     1      27.221  43.290  49.635  1.00  0.00    -0.271 OA
HETATM   13  H   UNL     1      25.377  42.186  51.935  1.00  0.00     0.169 HD
BRANCH  11  14
HETATM   14  C   UNL     1      25.664  41.501  49.367  1.00  0.00     0.337 C 
BRANCH  14  15
HETATM   15  N   UNL     1      24.564  42.250  48.615  1.00  0.00    -0.062 N 
HETATM   16  C   UNL     1      24.661  43.757  48.784  1.00  0.00     0.249 C 
HETATM   17  C   UNL     1      23.377  44.413  48.291  1.00  0.00     0.111 C 
HETATM   18  C   UNL     1      23.004  43.961  46.873  1.00  0.00     0.018 C 
HETATM   19  C   UNL     1      23.103  42.449  46.649  1.00  0.00     0.029 C 
HETATM   20  C   UNL     1      24.393  41.843  47.187  1.00  0.00     0.235 C 
HETATM   21  H   UNL     1      23.696  41.976  49.131  1.00  0.00     0.280 HD
BRANCH  17  22
HETATM   22  C   UNL     1      22.303  44.073  49.298  1.00  0.00     0.264 C 
HETATM   23  O   UNL     1      22.569  43.761  50.453  1.00  0.00    -0.265 OA
BRANCH  22  24
HETATM   24  O   UNL     1      21.067  44.281  48.789  1.00  0.00    -0.322 OA
BRANCH  24  25
HETATM   25  C   UNL     1      20.695  45.663  48.679  1.00  0.00     0.174 C 
HETATM   26  C   UNL     1      19.301  45.737  48.089  1.00  0.00     0.034 C 
ENDBRANCH  24  25
ENDBRANCH  22  24
ENDBRANCH  17  22
ENDBRANCH  14  15
ENDBRANCH  11  14
ENDBRANCH   1  10
BRANCH   9  27
HETATM   27  C   UNL     1      26.165  45.382  52.447  1.00  0.00     0.259 C 
HETATM   28  N   UNL     1      26.575  46.080  51.328  1.00  0.00    -0.323 N 
HETATM   29  H   UNL     1      27.520  45.913  51.016  1.00  0.00     0.169 HD
HETATM   30  O   UNL     1      25.091  45.562  53.024  1.00  0.00    -0.267 OA
BRANCH  28  31
HETATM   31  C   UNL     1      25.833  47.000  50.557  1.00  0.00     0.035 A 
HETATM   32  C   UNL     1      24.440  46.994  50.448  1.00  0.00     0.031 A 
HETATM   33  C   UNL     1      23.785  47.937  49.645  1.00  0.00     0.026 A 
HETATM   34  C   UNL     1      24.521  48.880  48.937  1.00  0.00     0.034 A 
HETATM   35 CL   UNL     1      23.713  50.033  47.951  1.00  0.00    -0.084 Cl
HETATM   36  C   UNL     1      25.909  48.896  49.028  1.00  0.00     0.026 A 
HETATM   37  C   UNL     1      26.562  47.962  49.840  1.00  0.00     0.031 A 
ENDBRANCH  28  31
ENDBRANCH   9  27
TORSDOF 8
ENDMDL
