MODEL 1
REMARK VINA RESULT:      -8.0      0.000      0.000
REMARK  6 active torsions:
REMARK  status: ('A' for Active; 'I' for Inactive)
REMARK    1  A    between atoms: O_2  and  C_3 
REMARK    2  A    between atoms: C_3  and  C_4 
REMARK    3  A    between atoms: C_4  and  N_5 
REMARK       I    between atoms: N_5  and  C_6 
REMARK    4  A    between atoms: C_6  and  C_7 
REMARK    5  A    between atoms: C_12  and  C_13 
REMARK    6  A    between atoms: C_21  and  C_22 
ROOT
HETATM    1  C   UNL     1      24.541  43.000  49.923  1.00  0.00     0.170 A 
HETATM    2  N   UNL     1      24.450  44.292  50.325  1.00  0.00    -0.163 NA
HETATM    3  N   UNL     1      25.404  44.410  51.261  1.00  0.00    -0.238 N 
HETATM    4  C   UNL     1      26.020  43.226  51.570  1.00  0.00     0.145 A 
HETATM    5  N   UNL     1      26.932  43.152  52.576  1.00  0.00    -0.365 N 
HETATM    6  C   UNL     1      26.980  44.216  53.573  1.00  0.00     0.118 C 
HETATM    7  C   UNL     1      26.882  45.570  52.860  1.00  0.00     0.066 C 
HETATM    8  C   UNL     1      25.600  45.644  52.008  1.00  0.00     0.221 C 
HETATM    9  C   UNL     1      25.516  42.299  50.687  1.00  0.00     0.115 A 
HETATM   10 CL   UNL     1      25.948  40.661  50.582  1.00  0.00    -0.077 Cl
HETATM   11  H   UNL     1      27.206  42.228  52.917  1.00  0.00     0.162 HD
ENDROOT
BRANCH   1  12
HETATM   12  C   UNL     1      23.687  42.481  48.843  1.00  0.00     0.273 C 
HETATM   13  N   UNL     1      24.183  42.743  47.583  1.00  0.00    -0.353 N 
HETATM   14  H   UNL     1      25.130  43.116  47.549  1.00  0.00     0.162 HD
HETATM   15  O   UNL     1      22.641  41.869  49.034  1.00  0.00    -0.266 OA
BRANCH  13  16
HETATM   16  C   UNL     1      23.634  42.139  46.386  1.00  0.00     0.149 C 
BRANCH  16  17
HETATM   17  C   UNL     1      23.025  43.188  45.458  1.00  0.00     0.186 C 
BRANCH  17  18
HETATM   18  O   UNL     1      21.699  43.495  45.900  1.00  0.00    -0.394 OA
HETATM   19  C   UNL     1      20.887  42.329  45.960  1.00  0.00     0.201 C 
ENDBRANCH  17  18
ENDBRANCH  16  17
ENDBRANCH  13  16
ENDBRANCH   1  12
BRANCH   8  20
HETATM   20  C   UNL     1      25.663  46.852  51.099  1.00  0.00     0.409 C 
HETATM   21  F   UNL     1      26.205  46.566  49.895  1.00  0.00    -0.169 F 
HETATM   22  F   UNL     1      24.461  47.432  50.896  1.00  0.00    -0.169 F 
HETATM   23  F   UNL     1      26.451  47.807  51.665  1.00  0.00    -0.169 F 
ENDBRANCH   8  20
BRANCH   6  24
HETATM   24  C   UNL     1      28.255  44.119  54.390  1.00  0.00    -0.035 A 
HETATM   25  C   UNL     1      28.650  45.148  55.263  1.00  0.00     0.011 A 
HETATM   26  C   UNL     1      29.817  45.031  56.022  1.00  0.00     0.024 A 
HETATM   27  C   UNL     1      30.594  43.882  55.924  1.00  0.00     0.034 A 
HETATM   28 CL   UNL     1      32.029  43.734  56.862  1.00  0.00    -0.084 Cl
HETATM   29  C   UNL     1      30.215  42.846  55.073  1.00  0.00     0.024 A 
HETATM   30  C   UNL     1      29.050  42.964  54.310  1.00  0.00     0.011 A 
ENDBRANCH   6  24
TORSDOF 6
ENDMDL
MODEL 2
REMARK VINA RESULT:      -7.9      3.086      3.746
REMARK  6 active torsions:
REMARK  status: ('A' for Active; 'I' for Inactive)
REMARK    1  A    between atoms: O_2  and  C_3 
REMARK    2  A    between atoms: C_3  and  C_4 
REMARK    3  A    between atoms: C_4  and  N_5 
REMARK       I    between atoms: N_5  and  C_6 
REMARK    4  A    between atoms: C_6  and  C_7 
REMARK    5  A    between atoms: C_12  and  C_13 
REMARK    6  A    between atoms: C_21  and  C_22 
ROOT
HETATM    1  C   UNL     1      25.233  42.990  50.122  1.00  0.00     0.170 A 
HETATM    2  N   UNL     1      26.301  42.174  49.939  1.00  0.00    -0.163 NA
HETATM    3  N   UNL     1      27.103  42.449  50.980  1.00  0.00    -0.238 N 
HETATM    4  C   UNL     1      26.660  43.489  51.754  1.00  0.00     0.145 A 
HETATM    5  N   UNL     1      27.411  43.966  52.782  1.00  0.00    -0.365 N 
HETATM    6  C   UNL     1      28.834  43.646  52.833  1.00  0.00     0.118 C 
HETATM    7  C   UNL     1      29.021  42.160  52.503  1.00  0.00     0.066 C 
HETATM    8  C   UNL     1      28.410  41.828  51.128  1.00  0.00     0.221 C 
HETATM    9  C   UNL     1      25.426  43.833  51.252  1.00  0.00     0.115 A 
HETATM   10 CL   UNL     1      24.393  45.041  51.845  1.00  0.00    -0.077 Cl
HETATM   11  H   UNL     1      27.156  44.865  53.195  1.00  0.00     0.162 HD
ENDROOT
BRANCH   1  12
HETATM   12  C   UNL     1      24.081  42.946  49.207  1.00  0.00     0.273 C 
HETATM   13  N   UNL     1      24.231  43.758  48.103  1.00  0.00    -0.353 N 
HETATM   14  H   UNL     1      25.157  44.163  47.974  1.00  0.00     0.162 HD
HETATM   15  O   UNL     1      23.087  42.252  49.395  1.00  0.00    -0.266 OA
BRANCH  13  16
HETATM   16  C   UNL     1      23.334  43.706  46.967  1.00  0.00     0.149 C 
BRANCH  16  17
HETATM   17  C   UNL     1      22.248  44.775  47.061  1.00  0.00     0.186 C 
BRANCH  17  18
HETATM   18  O   UNL     1      21.096  44.221  47.704  1.00  0.00    -0.394 OA
HETATM   19  C   UNL     1      20.593  45.089  48.711  1.00  0.00     0.201 C 
ENDBRANCH  17  18
ENDBRANCH  16  17
ENDBRANCH  13  16
ENDBRANCH   1  12
BRANCH   8  20
HETATM   20  C   UNL     1      28.348  40.326  50.949  1.00  0.00     0.409 C 
HETATM   21  F   UNL     1      29.174  39.670  51.793  1.00  0.00    -0.169 F 
HETATM   22  F   UNL     1      27.104  39.821  51.094  1.00  0.00    -0.169 F 
HETATM   23  F   UNL     1      28.741  40.002  49.687  1.00  0.00    -0.169 F 
ENDBRANCH   8  20
BRANCH   6  24
HETATM   24  C   UNL     1      29.404  43.978  54.199  1.00  0.00    -0.035 A 
HETATM   25  C   UNL     1      30.430  43.209  54.776  1.00  0.00     0.011 A 
HETATM   26  C   UNL     1      30.956  43.544  56.027  1.00  0.00     0.024 A 
HETATM   27  C   UNL     1      30.468  44.656  56.708  1.00  0.00     0.034 A 
HETATM   28 CL   UNL     1      31.118  45.072  58.246  1.00  0.00    -0.084 Cl
HETATM   29  C   UNL     1      29.460  45.436  56.148  1.00  0.00     0.024 A 
HETATM   30  C   UNL     1      28.930  45.100  54.899  1.00  0.00     0.011 A 
ENDBRANCH   6  24
TORSDOF 6
ENDMDL
MODEL 3
REMARK VINA RESULT:      -7.9      1.221      1.902
REMARK  6 active torsions:
REMARK  status: ('A' for Active; 'I' for Inactive)
REMARK    1  A    between atoms: O_2  and  C_3 
REMARK    2  A    between atoms: C_3  and  C_4 
REMARK    3  A    between atoms: C_4  and  N_5 
REMARK       I    between atoms: N_5  and  C_6 
REMARK    4  A    between atoms: C_6  and  C_7 
REMARK    5  A    between atoms: C_12  and  C_13 
REMARK    6  A    between atoms: C_21  and  C_22 
ROOT
HETATM    1  C   UNL     1      24.647  42.917  49.956  1.00  0.00     0.170 A 
HETATM    2  N   UNL     1      24.534  44.210  50.348  1.00  0.00    -0.163 NA
HETATM    3  N   UNL     1      25.483  44.349  51.287  1.00  0.00    -0.238 N 
HETATM    4  C   UNL     1      26.115  43.176  51.607  1.00  0.00     0.145 A 
HETATM    5  N   UNL     1      27.023  43.123  52.617  1.00  0.00    -0.365 N 
HETATM    6  C   UNL     1      27.051  44.195  53.607  1.00  0.00     0.118 C 
HETATM    7  C   UNL     1      26.936  45.542  52.884  1.00  0.00     0.066 C 
HETATM    8  C   UNL     1      25.657  45.591  52.026  1.00  0.00     0.221 C 
HETATM    9  C   UNL     1      25.628  42.236  50.729  1.00  0.00     0.115 A 
HETATM   10 CL   UNL     1      26.086  40.604  50.638  1.00  0.00    -0.077 Cl
HETATM   11  H   UNL     1      27.310  42.206  52.966  1.00  0.00     0.162 HD
ENDROOT
BRANCH   1  12
HETATM   12  C   UNL     1      23.805  42.378  48.875  1.00  0.00     0.273 C 
HETATM   13  N   UNL     1      24.489  42.195  47.692  1.00  0.00    -0.353 N 
HETATM   14  H   UNL     1      25.500  42.303  47.744  1.00  0.00     0.162 HD
HETATM   15  O   UNL     1      22.616  42.107  49.007  1.00  0.00    -0.266 OA
BRANCH  13  16
HETATM   16  C   UNL     1      23.928  41.473  46.569  1.00  0.00     0.149 C 
BRANCH  16  17
HETATM   17  C   UNL     1      24.376  40.013  46.562  1.00  0.00     0.186 C 
BRANCH  17  18
HETATM   18  O   UNL     1      25.597  39.891  47.298  1.00  0.00    -0.394 OA
HETATM   19  C   UNL     1      26.024  38.537  47.379  1.00  0.00     0.201 C 
ENDBRANCH  17  18
ENDBRANCH  16  17
ENDBRANCH  13  16
ENDBRANCH   1  12
BRANCH   8  20
HETATM   20  C   UNL     1      25.706  46.793  51.109  1.00  0.00     0.409 C 
HETATM   21  F   UNL     1      24.477  47.287  50.837  1.00  0.00    -0.169 F 
HETATM   22  F   UNL     1      26.470  47.799  51.585  1.00  0.00    -0.169 F 
HETATM   23  F   UNL     1      26.255  46.435  49.916  1.00  0.00    -0.169 F 
ENDBRANCH   8  20
BRANCH   6  24
HETATM   24  C   UNL     1      28.324  44.123  54.430  1.00  0.00    -0.035 A 
HETATM   25  C   UNL     1      28.710  45.173  55.282  1.00  0.00     0.011 A 
HETATM   26  C   UNL     1      29.875  45.079  56.048  1.00  0.00     0.024 A 
HETATM   27  C   UNL     1      30.659  43.932  55.977  1.00  0.00     0.034 A 
HETATM   28 CL   UNL     1      32.092  43.813  56.922  1.00  0.00    -0.084 Cl
HETATM   29  C   UNL     1      30.289  42.877  55.147  1.00  0.00     0.024 A 
HETATM   30  C   UNL     1      29.126  42.971  54.377  1.00  0.00     0.011 A 
ENDBRANCH   6  24
TORSDOF 6
ENDMDL
MODEL 4
REMARK VINA RESULT:      -7.8      4.504      6.963
REMARK  6 active torsions:
REMARK  status: ('A' for Active; 'I' for Inactive)
REMARK    1  A    between atoms: O_2  and  C_3 
REMARK    2  A    between atoms: C_3  and  C_4 
REMARK    3  A    between atoms: C_4  and  N_5 
REMARK       I    between atoms: N_5  and  C_6 
REMARK    4  A    between atoms: C_6  and  C_7 
REMARK    5  A    between atoms: C_12  and  C_13 
REMARK    6  A    between atoms: C_21  and  C_22 
ROOT
HETATM    1  C   UNL     1      27.605  42.050  51.276  1.00  0.00     0.170 A 
HETATM    2  N   UNL     1      27.537  42.852  52.367  1.00  0.00    -0.163 NA
HETATM    3  N   UNL     1      26.976  43.982  51.907  1.00  0.00    -0.238 N 
HETATM    4  C   UNL     1      26.797  43.992  50.548  1.00  0.00     0.145 A 
HETATM    5  N   UNL     1      26.345  45.103  49.910  1.00  0.00    -0.365 N 
HETATM    6  C   UNL     1      26.412  46.392  50.589  1.00  0.00     0.118 C 
HETATM    7  C   UNL     1      25.940  46.216  52.037  1.00  0.00     0.066 C 
HETATM    8  C   UNL     1      26.783  45.146  52.758  1.00  0.00     0.221 C 
HETATM    9  C   UNL     1      27.152  42.735  50.114  1.00  0.00     0.115 A 
HETATM   10 CL   UNL     1      27.096  42.164  48.517  1.00  0.00    -0.077 Cl
HETATM   11  H   UNL     1      26.427  45.147  48.892  1.00  0.00     0.162 HD
ENDROOT
BRANCH   1  12
HETATM   12  C   UNL     1      28.114  40.673  51.379  1.00  0.00     0.273 C 
HETATM   13  N   UNL     1      27.575  39.821  50.439  1.00  0.00    -0.353 N 
HETATM   14  H   UNL     1      27.023  40.263  49.706  1.00  0.00     0.162 HD
HETATM   15  O   UNL     1      28.941  40.312  52.210  1.00  0.00    -0.266 OA
BRANCH  13  16
HETATM   16  C   UNL     1      28.089  38.487  50.207  1.00  0.00     0.149 C 
BRANCH  16  17
HETATM   17  C   UNL     1      29.379  38.518  49.390  1.00  0.00     0.186 C 
BRANCH  17  18
HETATM   18  O   UNL     1      30.419  37.865  50.125  1.00  0.00    -0.394 OA
HETATM   19  C   UNL     1      29.891  37.058  51.170  1.00  0.00     0.201 C 
ENDBRANCH  17  18
ENDBRANCH  16  17
ENDBRANCH  13  16
ENDBRANCH   1  12
BRANCH   8  20
HETATM   20  C   UNL     1      26.129  44.784  54.073  1.00  0.00     0.409 C 
HETATM   21  F   UNL     1      25.541  45.846  54.668  1.00  0.00    -0.169 F 
HETATM   22  F   UNL     1      25.211  43.800  53.961  1.00  0.00    -0.169 F 
HETATM   23  F   UNL     1      27.072  44.324  54.939  1.00  0.00    -0.169 F 
ENDBRANCH   8  20
BRANCH   6  24
HETATM   24  C   UNL     1      25.569  47.421  49.860  1.00  0.00    -0.035 A 
HETATM   25  C   UNL     1      24.170  47.303  49.779  1.00  0.00     0.011 A 
HETATM   26  C   UNL     1      23.408  48.271  49.121  1.00  0.00     0.024 A 
HETATM   27  C   UNL     1      24.036  49.372  48.546  1.00  0.00     0.034 A 
HETATM   28 CL   UNL     1      23.099  50.568  47.739  1.00  0.00    -0.084 Cl
HETATM   29  C   UNL     1      25.419  49.513  48.624  1.00  0.00     0.024 A 
HETATM   30  C   UNL     1      26.182  48.543  49.279  1.00  0.00     0.011 A 
ENDBRANCH   6  24
TORSDOF 6
ENDMDL
MODEL 5
REMARK VINA RESULT:      -7.5      2.661      3.048
REMARK  6 active torsions:
REMARK  status: ('A' for Active; 'I' for Inactive)
REMARK    1  A    between atoms: O_2  and  C_3 
REMARK    2  A    between atoms: C_3  and  C_4 
REMARK    3  A    between atoms: C_4  and  N_5 
REMARK       I    between atoms: N_5  and  C_6 
REMARK    4  A    between atoms: C_6  and  C_7 
REMARK    5  A    between atoms: C_12  and  C_13 
REMARK    6  A    between atoms: C_21  and  C_22 
ROOT
HETATM    1  C   UNL     1      26.460  42.073  49.183  1.00  0.00     0.170 A 
HETATM    2  N   UNL     1      25.956  43.283  49.533  1.00  0.00    -0.163 NA
HETATM    3  N   UNL     1      26.628  43.604  50.650  1.00  0.00    -0.238 N 
HETATM    4  C   UNL     1      27.448  42.605  51.104  1.00  0.00     0.145 A 
HETATM    5  N   UNL     1      28.113  42.726  52.283  1.00  0.00    -0.365 N 
HETATM    6  C   UNL     1      27.674  43.728  53.249  1.00  0.00     0.118 C 
HETATM    7  C   UNL     1      27.385  45.039  52.508  1.00  0.00     0.066 C 
HETATM    8  C   UNL     1      26.337  44.817  51.399  1.00  0.00     0.221 C 
HETATM    9  C   UNL     1      27.397  41.615  50.150  1.00  0.00     0.115 A 
HETATM   10 CL   UNL     1      28.248  40.147  50.169  1.00  0.00    -0.077 Cl
HETATM   11  H   UNL     1      28.538  41.891  52.691  1.00  0.00     0.162 HD
ENDROOT
BRANCH   1  12
HETATM   12  C   UNL     1      26.017  41.396  47.953  1.00  0.00     0.273 C 
HETATM   13  N   UNL     1      27.006  41.300  46.998  1.00  0.00    -0.353 N 
HETATM   14  H   UNL     1      27.942  41.560  47.302  1.00  0.00     0.162 HD
HETATM   15  O   UNL     1      24.885  40.952  47.789  1.00  0.00    -0.266 OA
BRANCH  13  16
HETATM   16  C   UNL     1      26.868  40.483  45.809  1.00  0.00     0.149 C 
BRANCH  16  17
HETATM   17  C   UNL     1      27.506  41.151  44.594  1.00  0.00     0.186 C 
BRANCH  17  18
HETATM   18  O   UNL     1      28.797  40.577  44.364  1.00  0.00    -0.394 OA
HETATM   19  C   UNL     1      29.270  40.866  43.055  1.00  0.00     0.201 C 
ENDBRANCH  17  18
ENDBRANCH  16  17
ENDBRANCH  13  16
ENDBRANCH   1  12
BRANCH   8  20
HETATM   20  C   UNL     1      26.278  46.036  50.504  1.00  0.00     0.409 C 
HETATM   21  F   UNL     1      26.474  47.187  51.184  1.00  0.00    -0.169 F 
HETATM   22  F   UNL     1      27.158  45.992  49.482  1.00  0.00    -0.169 F 
HETATM   23  F   UNL     1      25.045  46.124  49.936  1.00  0.00    -0.169 F 
ENDBRANCH   8  20
BRANCH   6  24
HETATM   24  C   UNL     1      28.728  43.928  54.322  1.00  0.00    -0.035 A 
HETATM   25  C   UNL     1      28.769  45.095  55.105  1.00  0.00     0.011 A 
HETATM   26  C   UNL     1      29.735  45.251  56.103  1.00  0.00     0.024 A 
HETATM   27  C   UNL     1      30.662  44.240  56.333  1.00  0.00     0.034 A 
HETATM   28 CL   UNL     1      31.849  44.429  57.564  1.00  0.00    -0.084 Cl
HETATM   29  C   UNL     1      30.632  43.072  55.575  1.00  0.00     0.024 A 
HETATM   30  C   UNL     1      29.668  42.916  54.574  1.00  0.00     0.011 A 
ENDBRANCH   6  24
TORSDOF 6
ENDMDL
MODEL 6
REMARK VINA RESULT:      -7.5     11.909     12.568
REMARK  6 active torsions:
REMARK  status: ('A' for Active; 'I' for Inactive)
REMARK    1  A    between atoms: O_2  and  C_3 
REMARK    2  A    between atoms: C_3  and  C_4 
REMARK    3  A    between atoms: C_4  and  N_5 
REMARK       I    between atoms: N_5  and  C_6 
REMARK    4  A    between atoms: C_6  and  C_7 
REMARK    5  A    between atoms: C_12  and  C_13 
REMARK    6  A    between atoms: C_21  and  C_22 
ROOT
HETATM    1  C   UNL     1      27.321  48.468  40.477  1.00  0.00     0.170 A 
HETATM    2  N   UNL     1      27.255  49.752  40.909  1.00  0.00    -0.163 NA
HETATM    3  N   UNL     1      28.532  50.074  41.169  1.00  0.00    -0.238 N 
HETATM    4  C   UNL     1      29.400  49.021  41.045  1.00  0.00     0.145 A 
HETATM    5  N   UNL     1      30.711  49.151  41.379  1.00  0.00    -0.365 N 
HETATM    6  C   UNL     1      31.124  50.268  42.223  1.00  0.00     0.118 C 
HETATM    7  C   UNL     1      30.432  51.544  41.731  1.00  0.00     0.066 C 
HETATM    8  C   UNL     1      28.901  51.365  41.728  1.00  0.00     0.221 C 
HETATM    9  C   UNL     1      28.654  47.975  40.552  1.00  0.00     0.115 A 
HETATM   10 CL   UNL     1      29.219  46.422  40.168  1.00  0.00    -0.077 Cl
HETATM   11  H   UNL     1      31.275  48.304  41.479  1.00  0.00     0.162 HD
ENDROOT
BRANCH   1  12
HETATM   12  C   UNL     1      26.113  47.758  40.027  1.00  0.00     0.273 C 
HETATM   13  N   UNL     1      25.081  47.807  40.940  1.00  0.00    -0.353 N 
HETATM   14  H   UNL     1      25.215  48.439  41.727  1.00  0.00     0.162 HD
HETATM   15  O   UNL     1      26.022  47.185  38.946  1.00  0.00    -0.266 OA
BRANCH  13  16
HETATM   16  C   UNL     1      23.735  47.376  40.621  1.00  0.00     0.149 C 
BRANCH  16  17
HETATM   17  C   UNL     1      22.871  48.543  40.149  1.00  0.00     0.186 C 
BRANCH  17  18
HETATM   18  O   UNL     1      22.993  48.676  38.729  1.00  0.00    -0.394 OA
HETATM   19  C   UNL     1      23.446  49.973  38.364  1.00  0.00     0.201 C 
ENDBRANCH  17  18
ENDBRANCH  16  17
ENDBRANCH  13  16
ENDBRANCH   1  12
BRANCH   8  20
HETATM   20  C   UNL     1      28.256  52.512  40.980  1.00  0.00     0.409 C 
HETATM   21  F   UNL     1      27.959  52.192  39.701  1.00  0.00    -0.169 F 
HETATM   22  F   UNL     1      27.135  52.975  41.572  1.00  0.00    -0.169 F 
HETATM   23  F   UNL     1      29.118  53.564  40.928  1.00  0.00    -0.169 F 
ENDBRANCH   8  20
BRANCH   6  24
HETATM   24  C   UNL     1      32.633  50.421  42.199  1.00  0.00    -0.035 A 
HETATM   25  C   UNL     1      33.290  51.370  43.002  1.00  0.00     0.011 A 
HETATM   26  C   UNL     1      34.682  51.481  42.981  1.00  0.00     0.024 A 
HETATM   27  C   UNL     1      35.432  50.639  42.166  1.00  0.00     0.034 A 
HETATM   28 CL   UNL     1      37.148  50.772  42.143  1.00  0.00    -0.084 Cl
HETATM   29  C   UNL     1      34.801  49.685  41.371  1.00  0.00     0.024 A 
HETATM   30  C   UNL     1      33.408  49.576  41.388  1.00  0.00     0.011 A 
ENDBRANCH   6  24
TORSDOF 6
ENDMDL
MODEL 7
REMARK VINA RESULT:      -7.4      7.058     10.101
REMARK  6 active torsions:
REMARK  status: ('A' for Active; 'I' for Inactive)
REMARK    1  A    between atoms: O_2  and  C_3 
REMARK    2  A    between atoms: C_3  and  C_4 
REMARK    3  A    between atoms: C_4  and  N_5 
REMARK       I    between atoms: N_5  and  C_6 
REMARK    4  A    between atoms: C_6  and  C_7 
REMARK    5  A    between atoms: C_12  and  C_13 
REMARK    6  A    between atoms: C_21  and  C_22 
ROOT
HETATM    1  C   UNL     1      21.937  46.423  47.820  1.00  0.00     0.170 A 
HETATM    2  N   UNL     1      22.535  47.619  47.589  1.00  0.00    -0.163 NA
HETATM    3  N   UNL     1      21.581  48.520  47.873  1.00  0.00    -0.238 N 
HETATM    4  C   UNL     1      20.362  47.959  48.153  1.00  0.00     0.145 A 
HETATM    5  N   UNL     1      19.264  48.734  48.352  1.00  0.00    -0.365 N 
HETATM    6  C   UNL     1      19.278  50.121  47.898  1.00  0.00     0.118 C 
HETATM    7  C   UNL     1      20.621  50.755  48.281  1.00  0.00     0.066 C 
HETATM    8  C   UNL     1      21.792  49.947  47.688  1.00  0.00     0.221 C 
HETATM    9  C   UNL     1      20.570  46.599  48.172  1.00  0.00     0.115 A 
HETATM   10 CL   UNL     1      19.413  45.403  48.504  1.00  0.00    -0.077 Cl
HETATM   11  H   UNL     1      18.344  48.288  48.344  1.00  0.00     0.162 HD
ENDROOT
BRANCH   1  12
HETATM   12  C   UNL     1      22.685  45.164  47.679  1.00  0.00     0.273 C 
HETATM   13  N   UNL     1      23.617  44.969  48.677  1.00  0.00    -0.353 N 
HETATM   14  H   UNL     1      23.572  45.621  49.457  1.00  0.00     0.162 HD
HETATM   15  O   UNL     1      22.500  44.359  46.772  1.00  0.00    -0.266 OA
BRANCH  13  16
HETATM   16  C   UNL     1      24.304  43.708  48.868  1.00  0.00     0.149 C 
BRANCH  16  17
HETATM   17  C   UNL     1      24.288  43.278  50.333  1.00  0.00     0.186 C 
BRANCH  17  18
HETATM   18  O   UNL     1      23.838  44.371  51.140  1.00  0.00    -0.394 OA
HETATM   19  C   UNL     1      24.832  44.774  52.073  1.00  0.00     0.201 C 
ENDBRANCH  17  18
ENDBRANCH  16  17
ENDBRANCH  13  16
ENDBRANCH   1  12
BRANCH   8  20
HETATM   20  C   UNL     1      23.094  50.412  48.305  1.00  0.00     0.409 C 
HETATM   21  F   UNL     1      23.324  49.849  49.512  1.00  0.00    -0.169 F 
HETATM   22  F   UNL     1      24.168  50.185  47.520  1.00  0.00    -0.169 F 
HETATM   23  F   UNL     1      23.049  51.757  48.504  1.00  0.00    -0.169 F 
ENDBRANCH   8  20
BRANCH   6  24
HETATM   24  C   UNL     1      18.119  50.890  48.502  1.00  0.00    -0.035 A 
HETATM   25  C   UNL     1      18.327  52.016  49.318  1.00  0.00     0.011 A 
HETATM   26  C   UNL     1      17.245  52.723  49.848  1.00  0.00     0.024 A 
HETATM   27  C   UNL     1      15.945  52.317  49.561  1.00  0.00     0.034 A 
HETATM   28 CL   UNL     1      14.612  53.190  50.210  1.00  0.00    -0.084 Cl
HETATM   29  C   UNL     1      15.718  51.211  48.746  1.00  0.00     0.024 A 
HETATM   30  C   UNL     1      16.799  50.501  48.218  1.00  0.00     0.011 A 
ENDBRANCH   6  24
TORSDOF 6
ENDMDL
MODEL 8
REMARK VINA RESULT:      -7.3     13.792     16.186
REMARK  6 active torsions:
REMARK  status: ('A' for Active; 'I' for Inactive)
REMARK    1  A    between atoms: O_2  and  C_3 
REMARK    2  A    between atoms: C_3  and  C_4 
REMARK    3  A    between atoms: C_4  and  N_5 
REMARK       I    between atoms: N_5  and  C_6 
REMARK    4  A    between atoms: C_6  and  C_7 
REMARK    5  A    between atoms: C_12  and  C_13 
REMARK    6  A    between atoms: C_21  and  C_22 
ROOT
HETATM    1  C   UNL     1      33.535  50.926  41.519  1.00  0.00     0.170 A 
HETATM    2  N   UNL     1      32.921  52.047  41.068  1.00  0.00    -0.163 NA
HETATM    3  N   UNL     1      31.786  51.596  40.511  1.00  0.00    -0.238 N 
HETATM    4  C   UNL     1      31.701  50.228  40.471  1.00  0.00     0.145 A 
HETATM    5  N   UNL     1      30.668  49.610  39.841  1.00  0.00    -0.365 N 
HETATM    6  C   UNL     1      29.862  50.363  38.886  1.00  0.00     0.118 C 
HETATM    7  C   UNL     1      29.552  51.743  39.477  1.00  0.00     0.066 C 
HETATM    8  C   UNL     1      30.854  52.485  39.836  1.00  0.00     0.221 C 
HETATM    9  C   UNL     1      32.798  49.763  41.159  1.00  0.00     0.115 A 
HETATM   10 CL   UNL     1      33.190  48.140  41.460  1.00  0.00    -0.077 Cl
HETATM   11  H   UNL     1      30.746  48.609  39.645  1.00  0.00     0.162 HD
ENDROOT
BRANCH   1  12
HETATM   12  C   UNL     1      34.805  51.004  42.260  1.00  0.00     0.273 C 
HETATM   13  N   UNL     1      34.948  52.175  42.973  1.00  0.00    -0.353 N 
HETATM   14  H   UNL     1      34.119  52.763  43.030  1.00  0.00     0.162 HD
HETATM   15  O   UNL     1      35.653  50.118  42.254  1.00  0.00    -0.266 OA
BRANCH  13  16
HETATM   16  C   UNL     1      36.004  52.374  43.945  1.00  0.00     0.149 C 
BRANCH  16  17
HETATM   17  C   UNL     1      37.171  53.159  43.352  1.00  0.00     0.186 C 
BRANCH  17  18
HETATM   18  O   UNL     1      36.707  53.920  42.233  1.00  0.00    -0.394 OA
HETATM   19  C   UNL     1      37.542  55.043  41.983  1.00  0.00     0.201 C 
ENDBRANCH  17  18
ENDBRANCH  16  17
ENDBRANCH  13  16
ENDBRANCH   1  12
BRANCH   8  20
HETATM   20  C   UNL     1      30.530  53.705  40.671  1.00  0.00     0.409 C 
HETATM   21  F   UNL     1      30.348  53.406  41.976  1.00  0.00    -0.169 F 
HETATM   22  F   UNL     1      31.464  54.676  40.585  1.00  0.00    -0.169 F 
HETATM   23  F   UNL     1      29.368  54.261  40.233  1.00  0.00    -0.169 F 
ENDBRANCH   8  20
BRANCH   6  24
HETATM   24  C   UNL     1      28.587  49.610  38.557  1.00  0.00    -0.035 A 
HETATM   25  C   UNL     1      28.530  48.206  38.597  1.00  0.00     0.011 A 
HETATM   26  C   UNL     1      27.340  47.531  38.312  1.00  0.00     0.024 A 
HETATM   27  C   UNL     1      26.194  48.253  37.994  1.00  0.00     0.034 A 
HETATM   28 CL   UNL     1      24.727  47.424  37.647  1.00  0.00    -0.084 Cl
HETATM   29  C   UNL     1      26.227  49.645  37.960  1.00  0.00     0.024 A 
HETATM   30  C   UNL     1      27.418  50.321  38.241  1.00  0.00     0.011 A 
ENDBRANCH   6  24
TORSDOF 6
ENDMDL
MODEL 9
REMARK VINA RESULT:      -7.2     11.392     12.457
REMARK  6 active torsions:
REMARK  status: ('A' for Active; 'I' for Inactive)
REMARK    1  A    between atoms: O_2  and  C_3 
REMARK    2  A    between atoms: C_3  and  C_4 
REMARK    3  A    between atoms: C_4  and  N_5 
REMARK       I    between atoms: N_5  and  C_6 
REMARK    4  A    between atoms: C_6  and  C_7 
REMARK    5  A    between atoms: C_12  and  C_13 
REMARK    6  A    between atoms: C_21  and  C_22 
ROOT
HETATM    1  C   UNL     1      27.590  48.657  40.485  1.00  0.00     0.170 A 
HETATM    2  N   UNL     1      27.520  49.945  40.902  1.00  0.00    -0.163 NA
HETATM    3  N   UNL     1      28.793  50.266  41.182  1.00  0.00    -0.238 N 
HETATM    4  C   UNL     1      29.660  49.209  41.085  1.00  0.00     0.145 A 
HETATM    5  N   UNL     1      30.964  49.339  41.443  1.00  0.00    -0.365 N 
HETATM    6  C   UNL     1      31.365  50.463  42.283  1.00  0.00     0.118 C 
HETATM    7  C   UNL     1      30.686  51.737  41.764  1.00  0.00     0.066 C 
HETATM    8  C   UNL     1      29.155  51.562  41.735  1.00  0.00     0.221 C 
HETATM    9  C   UNL     1      28.919  48.161  40.590  1.00  0.00     0.115 A 
HETATM   10 CL   UNL     1      29.486  46.602  40.232  1.00  0.00    -0.077 Cl
HETATM   11  H   UNL     1      31.523  48.491  41.562  1.00  0.00     0.162 HD
ENDROOT
BRANCH   1  12
HETATM   12  C   UNL     1      26.388  47.946  40.019  1.00  0.00     0.273 C 
HETATM   13  N   UNL     1      25.385  47.894  40.964  1.00  0.00    -0.353 N 
HETATM   14  H   UNL     1      25.528  48.470  41.792  1.00  0.00     0.162 HD
HETATM   15  O   UNL     1      26.277  47.453  38.902  1.00  0.00    -0.266 OA
BRANCH  13  16
HETATM   16  C   UNL     1      24.042  47.447  40.656  1.00  0.00     0.149 C 
BRANCH  16  17
HETATM   17  C   UNL     1      23.655  46.224  41.483  1.00  0.00     0.186 C 
BRANCH  17  18
HETATM   18  O   UNL     1      24.805  45.391  41.661  1.00  0.00    -0.394 OA
HETATM   19  C   UNL     1      24.837  44.337  40.708  1.00  0.00     0.201 C 
ENDBRANCH  17  18
ENDBRANCH  16  17
ENDBRANCH  13  16
ENDBRANCH   1  12
BRANCH   8  20
HETATM   20  C   UNL     1      28.528  52.703  40.963  1.00  0.00     0.409 C 
HETATM   21  F   UNL     1      29.359  53.762  40.839  1.00  0.00    -0.169 F 
HETATM   22  F   UNL     1      28.109  52.347  39.729  1.00  0.00    -0.169 F 
HETATM   23  F   UNL     1      27.424  53.147  41.622  1.00  0.00    -0.169 F 
ENDBRANCH   8  20
BRANCH   6  24
HETATM   24  C   UNL     1      32.875  50.611  42.286  1.00  0.00    -0.035 A 
HETATM   25  C   UNL     1      33.528  51.477  43.181  1.00  0.00     0.011 A 
HETATM   26  C   UNL     1      34.921  51.584  43.182  1.00  0.00     0.024 A 
HETATM   27  C   UNL     1      35.675  50.820  42.296  1.00  0.00     0.034 A 
HETATM   28 CL   UNL     1      37.391  50.947  42.299  1.00  0.00    -0.084 Cl
HETATM   29  C   UNL     1      35.047  49.949  41.409  1.00  0.00     0.024 A 
HETATM   30  C   UNL     1      33.654  49.844  41.404  1.00  0.00     0.011 A 
ENDBRANCH   6  24
TORSDOF 6
ENDMDL
MODEL 10
REMARK VINA RESULT:      -7.1     17.716     19.514
REMARK  6 active torsions:
REMARK  status: ('A' for Active; 'I' for Inactive)
REMARK    1  A    between atoms: O_2  and  C_3 
REMARK    2  A    between atoms: C_3  and  C_4 
REMARK    3  A    between atoms: C_4  and  N_5 
REMARK       I    between atoms: N_5  and  C_6 
REMARK    4  A    between atoms: C_6  and  C_7 
REMARK    5  A    between atoms: C_12  and  C_13 
REMARK    6  A    between atoms: C_21  and  C_22 
ROOT
HETATM    1  C   UNL     1      37.535  46.451  64.918  1.00  0.00     0.170 A 
HETATM    2  N   UNL     1      36.470  45.613  64.950  1.00  0.00    -0.163 NA
HETATM    3  N   UNL     1      37.014  44.390  64.844  1.00  0.00    -0.238 N 
HETATM    4  C   UNL     1      38.366  44.408  64.620  1.00  0.00     0.145 A 
HETATM    5  N   UNL     1      39.051  43.260  64.379  1.00  0.00    -0.365 N 
HETATM    6  C   UNL     1      38.318  42.063  63.978  1.00  0.00     0.118 C 
HETATM    7  C   UNL     1      37.073  41.924  64.862  1.00  0.00     0.066 C 
HETATM    8  C   UNL     1      36.197  43.189  64.769  1.00  0.00     0.221 C 
HETATM    9  C   UNL     1      38.743  45.729  64.708  1.00  0.00     0.115 A 
HETATM   10 CL   UNL     1      40.317  46.344  64.550  1.00  0.00    -0.077 Cl
HETATM   11  H   UNL     1      40.001  43.328  64.008  1.00  0.00     0.162 HD
ENDROOT
BRANCH   1  12
HETATM   12  C   UNL     1      37.360  47.904  65.071  1.00  0.00     0.273 C 
HETATM   13  N   UNL     1      37.735  48.371  66.313  1.00  0.00    -0.353 N 
HETATM   14  H   UNL     1      38.221  47.702  66.908  1.00  0.00     0.162 HD
HETATM   15  O   UNL     1      36.931  48.636  64.185  1.00  0.00    -0.266 OA
BRANCH  13  16
HETATM   16  C   UNL     1      37.861  49.782  66.612  1.00  0.00     0.149 C 
BRANCH  16  17
HETATM   17  C   UNL     1      39.183  50.348  66.099  1.00  0.00     0.186 C 
BRANCH  17  18
HETATM   18  O   UNL     1      39.170  51.773  66.233  1.00  0.00    -0.394 OA
HETATM   19  C   UNL     1      37.853  52.264  66.448  1.00  0.00     0.201 C 
ENDBRANCH  17  18
ENDBRANCH  16  17
ENDBRANCH  13  16
ENDBRANCH   1  12
BRANCH   8  20
HETATM   20  C   UNL     1      35.139  43.155  65.851  1.00  0.00     0.409 C 
HETATM   21  F   UNL     1      35.561  43.716  67.005  1.00  0.00    -0.169 F 
HETATM   22  F   UNL     1      33.983  43.750  65.488  1.00  0.00    -0.169 F 
HETATM   23  F   UNL     1      34.823  41.863  66.138  1.00  0.00    -0.169 F 
ENDBRANCH   8  20
BRANCH   6  24
HETATM   24  C   UNL     1      39.204  40.837  64.086  1.00  0.00    -0.035 A 
HETATM   25  C   UNL     1      39.326  39.920  63.027  1.00  0.00     0.011 A 
HETATM   26  C   UNL     1      40.164  38.808  63.138  1.00  0.00     0.024 A 
HETATM   27  C   UNL     1      40.895  38.606  64.305  1.00  0.00     0.034 A 
HETATM   28 CL   UNL     1      41.931  37.239  64.441  1.00  0.00    -0.084 Cl
HETATM   29  C   UNL     1      40.798  39.509  65.361  1.00  0.00     0.024 A 
HETATM   30  C   UNL     1      39.956  40.619  65.252  1.00  0.00     0.011 A 
ENDBRANCH   6  24
TORSDOF 6
ENDMDL
