MODEL 1
REMARK VINA RESULT:      -9.3      0.000      0.000
REMARK  9 active torsions:
REMARK  status: ('A' for Active; 'I' for Inactive)
REMARK    1  A    between atoms: C_2  and  C_3 
REMARK    2  A    between atoms: C_3  and  C_4 
REMARK    3  A    between atoms: C_4  and  C_5 
REMARK    4  A    between atoms: C_5  and  N_6 
REMARK    5  A    between atoms: C_9  and  C_10 
REMARK       I    between atoms: C_10  and  N_11 
REMARK    6  A    between atoms: N_11  and  N_12 
REMARK    7  A    between atoms: C_13  and  C_14 
REMARK    8  A    between atoms: C_24  and  O_25 
REMARK    9  A    between atoms: C_28  and  O_29 
ROOT
HETATM    1  C   UNL     1      22.898  44.150  49.508  1.00  0.00     0.280 C 
HETATM    2  N   UNL     1      21.735  44.909  49.505  1.00  0.00    -0.242 N 
HETATM    3  O   UNL     1      23.072  43.086  48.928  1.00  0.00    -0.266 OA
HETATM    4  H   UNL     1      21.670  45.730  50.103  1.00  0.00     0.192 HD
ENDROOT
BRANCH   1   5
HETATM    5  C   UNL     1      23.935  44.731  50.390  1.00  0.00     0.135 A 
HETATM    6  C   UNL     1      24.404  46.113  50.137  1.00  0.00     0.266 A 
HETATM    7  N   UNL     1      25.351  46.649  51.011  1.00  0.00    -0.313 N 
HETATM    8  O   UNL     1      23.928  46.751  49.199  1.00  0.00    -0.267 OA
HETATM    9  C   UNL     1      25.827  45.916  52.147  1.00  0.00     0.050 A 
HETATM   10  C   UNL     1      25.368  44.600  52.354  1.00  0.00     0.025 A 
HETATM   11  C   UNL     1      26.730  46.463  53.075  1.00  0.00     0.031 A 
HETATM   12  C   UNL     1      24.406  44.005  51.415  1.00  0.00     0.099 A 
HETATM   13  C   UNL     1      25.830  43.867  53.463  1.00  0.00     0.016 A 
HETATM   14  C   UNL     1      26.732  44.423  54.365  1.00  0.00     0.001 A 
HETATM   15  C   UNL     1      27.179  45.722  54.172  1.00  0.00     0.002 A 
BRANCH   7  16
HETATM   16  C   UNL     1      25.842  47.993  50.698  1.00  0.00     0.132 C 
BRANCH  16  17
HETATM   17  C   UNL     1      26.797  48.054  49.498  1.00  0.00     0.020 C 
BRANCH  17  18
HETATM   18  C   UNL     1      27.054  49.465  48.971  1.00  0.00     0.001 C 
BRANCH  18  19
HETATM   19  C   UNL     1      26.087  49.804  47.834  1.00  0.00    -0.004 C 
HETATM   20  C   UNL     1      24.708  50.165  48.359  1.00  0.00     0.005 C 
ENDBRANCH  18  19
ENDBRANCH  17  18
ENDBRANCH  16  17
ENDBRANCH   7  16
BRANCH  12  21
HETATM   21  O   UNL     1      24.030  42.701  51.690  1.00  0.00    -0.359 OA
HETATM   22  H   UNL     1      23.091  42.564  51.457  1.00  0.00     0.218 HD
ENDBRANCH  12  21
ENDBRANCH   1   5
BRANCH   2  23
HETATM   23  N   UNL     1      20.689  44.548  48.710  1.00  0.00    -0.176 NA
HETATM   24  C   UNL     1      19.967  45.456  48.125  1.00  0.00     0.069 C 
HETATM   25  C   UNL     1      18.807  44.949  47.294  1.00  0.00     0.073 C 
BRANCH  24  26
HETATM   26  C   UNL     1      20.161  46.938  48.164  1.00  0.00     0.092 A 
HETATM   27  C   UNL     1      21.245  47.565  47.353  1.00  0.00     0.261 A 
HETATM   28  O   UNL     1      21.976  46.899  46.627  1.00  0.00    -0.267 OA
HETATM   29  N   UNL     1      21.390  48.922  47.438  1.00  0.00    -0.322 N 
HETATM   30  C   UNL     1      20.577  49.740  48.226  1.00  0.00     0.048 A 
HETATM   31  H   UNL     1      22.127  49.325  46.872  1.00  0.00     0.169 HD
HETATM   32  C   UNL     1      19.565  49.162  49.003  1.00  0.00     0.025 A 
HETATM   33  C   UNL     1      20.781  51.121  48.214  1.00  0.00     0.030 A 
HETATM   34  C   UNL     1      18.747  50.003  49.769  1.00  0.00     0.016 A 
HETATM   35  C   UNL     1      19.395  47.698  48.972  1.00  0.00     0.096 A 
HETATM   36  C   UNL     1      18.942  51.386  49.756  1.00  0.00     0.001 A 
HETATM   37  C   UNL     1      19.958  51.944  48.982  1.00  0.00     0.002 A 
BRANCH  35  38
HETATM   38  O   UNL     1      18.390  47.207  49.787  1.00  0.00    -0.359 OA
HETATM   39  H   UNL     1      18.366  46.228  49.749  1.00  0.00     0.218 HD
ENDBRANCH  35  38
ENDBRANCH  24  26
ENDBRANCH   2  23
TORSDOF 9
ENDMDL
MODEL 2
REMARK VINA RESULT:      -9.0      3.937      7.057
REMARK  9 active torsions:
REMARK  status: ('A' for Active; 'I' for Inactive)
REMARK    1  A    between atoms: C_2  and  C_3 
REMARK    2  A    between atoms: C_3  and  C_4 
REMARK    3  A    between atoms: C_4  and  C_5 
REMARK    4  A    between atoms: C_5  and  N_6 
REMARK    5  A    between atoms: C_9  and  C_10 
REMARK       I    between atoms: C_10  and  N_11 
REMARK    6  A    between atoms: N_11  and  N_12 
REMARK    7  A    between atoms: C_13  and  C_14 
REMARK    8  A    between atoms: C_24  and  O_25 
REMARK    9  A    between atoms: C_28  and  O_29 
ROOT
HETATM    1  C   UNL     1      24.795  42.186  48.932  1.00  0.00     0.280 C 
HETATM    2  N   UNL     1      25.101  43.533  48.781  1.00  0.00    -0.242 N 
HETATM    3  O   UNL     1      23.680  41.685  48.877  1.00  0.00    -0.266 OA
HETATM    4  H   UNL     1      26.052  43.853  48.943  1.00  0.00     0.192 HD
ENDROOT
BRANCH   1   5
HETATM    5  C   UNL     1      25.992  41.383  49.267  1.00  0.00     0.135 A 
HETATM    6  C   UNL     1      26.595  41.514  50.614  1.00  0.00     0.266 A 
HETATM    7  N   UNL     1      27.697  40.712  50.914  1.00  0.00    -0.313 N 
HETATM    8  O   UNL     1      26.094  42.289  51.428  1.00  0.00    -0.267 OA
HETATM    9  C   UNL     1      28.209  39.755  49.978  1.00  0.00     0.050 A 
HETATM   10  C   UNL     1      27.618  39.662  48.702  1.00  0.00     0.025 A 
HETATM   11  C   UNL     1      29.275  38.892  50.286  1.00  0.00     0.031 A 
HETATM   12  C   UNL     1      26.487  40.533  48.354  1.00  0.00     0.099 A 
HETATM   13  C   UNL     1      28.114  38.730  47.771  1.00  0.00     0.016 A 
HETATM   14  C   UNL     1      29.177  37.891  48.092  1.00  0.00     0.001 A 
HETATM   15  C   UNL     1      29.755  37.971  49.351  1.00  0.00     0.002 A 
BRANCH   7  16
HETATM   16  C   UNL     1      28.309  40.910  52.230  1.00  0.00     0.132 C 
BRANCH  16  17
HETATM   17  C   UNL     1      29.146  42.191  52.352  1.00  0.00     0.020 C 
BRANCH  17  18
HETATM   18  C   UNL     1      28.804  43.050  53.568  1.00  0.00     0.001 C 
BRANCH  18  19
HETATM   19  C   UNL     1      29.997  43.137  54.524  1.00  0.00    -0.004 C 
HETATM   20  C   UNL     1      29.919  44.370  55.407  1.00  0.00     0.005 C 
ENDBRANCH  18  19
ENDBRANCH  17  18
ENDBRANCH  16  17
ENDBRANCH   7  16
BRANCH  12  21
HETATM   21  O   UNL     1      25.988  40.383  47.071  1.00  0.00    -0.359 OA
HETATM   22  H   UNL     1      25.937  41.250  46.625  1.00  0.00     0.218 HD
ENDBRANCH  12  21
ENDBRANCH   1   5
BRANCH   2  23
HETATM   23  N   UNL     1      24.126  44.415  48.424  1.00  0.00    -0.176 NA
HETATM   24  C   UNL     1      23.922  45.487  49.130  1.00  0.00     0.069 C 
HETATM   25  C   UNL     1      22.790  46.381  48.669  1.00  0.00     0.073 C 
BRANCH  24  26
HETATM   26  C   UNL     1      24.686  45.945  50.331  1.00  0.00     0.092 A 
HETATM   27  C   UNL     1      25.498  47.194  50.260  1.00  0.00     0.261 A 
HETATM   28  O   UNL     1      25.541  47.880  49.243  1.00  0.00    -0.267 OA
HETATM   29  N   UNL     1      26.191  47.560  51.380  1.00  0.00    -0.322 N 
HETATM   30  C   UNL     1      26.166  46.838  52.576  1.00  0.00     0.048 A 
HETATM   31  H   UNL     1      26.728  48.415  51.310  1.00  0.00     0.169 HD
HETATM   32  C   UNL     1      25.418  45.655  52.652  1.00  0.00     0.025 A 
HETATM   33  C   UNL     1      26.878  47.315  53.679  1.00  0.00     0.030 A 
HETATM   34  C   UNL     1      25.390  44.958  53.866  1.00  0.00     0.016 A 
HETATM   35  C   UNL     1      24.685  45.202  51.456  1.00  0.00     0.096 A 
HETATM   36  C   UNL     1      26.095  45.434  54.975  1.00  0.00     0.001 A 
HETATM   37  C   UNL     1      26.839  46.609  54.880  1.00  0.00     0.002 A 
BRANCH  35  38
HETATM   38  O   UNL     1      23.993  44.012  51.608  1.00  0.00    -0.359 OA
HETATM   39  H   UNL     1      23.586  43.742  50.759  1.00  0.00     0.218 HD
ENDBRANCH  35  38
ENDBRANCH  24  26
ENDBRANCH   2  23
TORSDOF 9
ENDMDL
MODEL 3
REMARK VINA RESULT:      -8.8      2.046      5.207
REMARK  9 active torsions:
REMARK  status: ('A' for Active; 'I' for Inactive)
REMARK    1  A    between atoms: C_2  and  C_3 
REMARK    2  A    between atoms: C_3  and  C_4 
REMARK    3  A    between atoms: C_4  and  C_5 
REMARK    4  A    between atoms: C_5  and  N_6 
REMARK    5  A    between atoms: C_9  and  C_10 
REMARK       I    between atoms: C_10  and  N_11 
REMARK    6  A    between atoms: N_11  and  N_12 
REMARK    7  A    between atoms: C_13  and  C_14 
REMARK    8  A    between atoms: C_24  and  O_25 
REMARK    9  A    between atoms: C_28  and  O_29 
ROOT
HETATM    1  C   UNL     1      24.373  48.203  49.730  1.00  0.00     0.280 C 
HETATM    2  N   UNL     1      23.035  48.445  50.014  1.00  0.00    -0.242 N 
HETATM    3  O   UNL     1      25.161  48.989  49.223  1.00  0.00    -0.266 OA
HETATM    4  H   UNL     1      22.447  47.685  50.348  1.00  0.00     0.192 HD
ENDROOT
BRANCH   1   5
HETATM    5  C   UNL     1      24.758  46.807  50.037  1.00  0.00     0.135 A 
HETATM    6  C   UNL     1      25.705  46.549  51.148  1.00  0.00     0.266 A 
HETATM    7  N   UNL     1      26.016  45.220  51.440  1.00  0.00    -0.313 N 
HETATM    8  O   UNL     1      26.156  47.495  51.791  1.00  0.00    -0.267 OA
HETATM    9  C   UNL     1      25.411  44.131  50.732  1.00  0.00     0.050 A 
HETATM   10  C   UNL     1      24.522  44.412  49.675  1.00  0.00     0.025 A 
HETATM   11  C   UNL     1      25.662  42.786  51.056  1.00  0.00     0.031 A 
HETATM   12  C   UNL     1      24.221  45.806  49.323  1.00  0.00     0.099 A 
HETATM   13  C   UNL     1      23.925  43.352  48.967  1.00  0.00     0.016 A 
HETATM   14  C   UNL     1      24.193  42.026  49.297  1.00  0.00     0.001 A 
HETATM   15  C   UNL     1      25.059  41.745  50.344  1.00  0.00     0.002 A 
BRANCH   7  16
HETATM   16  C   UNL     1      27.002  44.999  52.501  1.00  0.00     0.132 C 
BRANCH  16  17
HETATM   17  C   UNL     1      26.393  44.714  53.881  1.00  0.00     0.020 C 
BRANCH  17  18
HETATM   18  C   UNL     1      26.932  43.453  54.555  1.00  0.00     0.001 C 
BRANCH  18  19
HETATM   19  C   UNL     1      28.163  42.925  53.815  1.00  0.00    -0.004 C 
HETATM   20  C   UNL     1      29.435  43.138  54.618  1.00  0.00     0.005 C 
ENDBRANCH  18  19
ENDBRANCH  17  18
ENDBRANCH  16  17
ENDBRANCH   7  16
BRANCH  12  21
HETATM   21  O   UNL     1      23.353  45.981  48.259  1.00  0.00    -0.359 OA
HETATM   22  H   UNL     1      22.798  45.185  48.142  1.00  0.00     0.218 HD
ENDBRANCH  12  21
ENDBRANCH   1   5
BRANCH   2  23
HETATM   23  N   UNL     1      22.517  49.693  49.837  1.00  0.00    -0.176 NA
HETATM   24  C   UNL     1      21.323  49.843  49.349  1.00  0.00     0.069 C 
HETATM   25  C   UNL     1      20.858  51.272  49.157  1.00  0.00     0.073 C 
BRANCH  24  26
HETATM   26  C   UNL     1      20.351  48.771  48.972  1.00  0.00     0.092 A 
HETATM   27  C   UNL     1      19.144  48.536  49.816  1.00  0.00     0.261 A 
HETATM   28  O   UNL     1      18.906  49.218  50.808  1.00  0.00    -0.267 OA
HETATM   29  N   UNL     1      18.296  47.533  49.438  1.00  0.00    -0.322 N 
HETATM   30  C   UNL     1      18.495  46.736  48.308  1.00  0.00     0.048 A 
HETATM   31  H   UNL     1      17.480  47.397  50.022  1.00  0.00     0.169 HD
HETATM   32  C   UNL     1      19.633  46.937  47.514  1.00  0.00     0.025 A 
HETATM   33  C   UNL     1      17.550  45.761  47.982  1.00  0.00     0.030 A 
HETATM   34  C   UNL     1      19.802  46.142  46.373  1.00  0.00     0.016 A 
HETATM   35  C   UNL     1      20.595  47.984  47.905  1.00  0.00     0.096 A 
HETATM   36  C   UNL     1      18.856  45.170  46.040  1.00  0.00     0.001 A 
HETATM   37  C   UNL     1      17.734  44.978  46.844  1.00  0.00     0.002 A 
BRANCH  35  38
HETATM   38  O   UNL     1      21.702  48.100  47.083  1.00  0.00    -0.359 OA
HETATM   39  H   UNL     1      21.583  48.839  46.450  1.00  0.00     0.218 HD
ENDBRANCH  35  38
ENDBRANCH  24  26
ENDBRANCH   2  23
TORSDOF 9
ENDMDL
MODEL 4
REMARK VINA RESULT:      -8.7      1.708      3.403
REMARK  9 active torsions:
REMARK  status: ('A' for Active; 'I' for Inactive)
REMARK    1  A    between atoms: C_2  and  C_3 
REMARK    2  A    between atoms: C_3  and  C_4 
REMARK    3  A    between atoms: C_4  and  C_5 
REMARK    4  A    between atoms: C_5  and  N_6 
REMARK    5  A    between atoms: C_9  and  C_10 
REMARK       I    between atoms: C_10  and  N_11 
REMARK    6  A    between atoms: N_11  and  N_12 
REMARK    7  A    between atoms: C_13  and  C_14 
REMARK    8  A    between atoms: C_24  and  O_25 
REMARK    9  A    between atoms: C_28  and  O_29 
ROOT
HETATM    1  C   UNL     1      22.051  43.972  48.455  1.00  0.00     0.280 C 
HETATM    2  N   UNL     1      21.107  44.727  49.139  1.00  0.00    -0.242 N 
HETATM    3  O   UNL     1      21.868  43.343  47.422  1.00  0.00    -0.266 OA
HETATM    4  H   UNL     1      21.343  45.130  50.042  1.00  0.00     0.192 HD
ENDROOT
BRANCH   1   5
HETATM    5  C   UNL     1      23.346  43.928  49.171  1.00  0.00     0.135 A 
HETATM    6  C   UNL     1      23.965  45.198  49.620  1.00  0.00     0.266 A 
HETATM    7  N   UNL     1      25.164  45.121  50.330  1.00  0.00    -0.313 N 
HETATM    8  O   UNL     1      23.396  46.264  49.388  1.00  0.00    -0.267 OA
HETATM    9  C   UNL     1      25.763  43.862  50.662  1.00  0.00     0.050 A 
HETATM   10  C   UNL     1      25.154  42.674  50.212  1.00  0.00     0.025 A 
HETATM   11  C   UNL     1      26.935  43.763  51.433  1.00  0.00     0.031 A 
HETATM   12  C   UNL     1      23.916  42.740  49.423  1.00  0.00     0.099 A 
HETATM   13  C   UNL     1      25.734  41.431  50.527  1.00  0.00     0.016 A 
HETATM   14  C   UNL     1      26.900  41.354  51.283  1.00  0.00     0.001 A 
HETATM   15  C   UNL     1      27.498  42.520  51.738  1.00  0.00     0.002 A 
BRANCH   7  16
HETATM   16  C   UNL     1      25.783  46.394  50.705  1.00  0.00     0.132 C 
BRANCH  16  17
HETATM   17  C   UNL     1      25.330  46.941  52.066  1.00  0.00     0.020 C 
BRANCH  17  18
HETATM   18  C   UNL     1      26.462  47.131  53.074  1.00  0.00     0.001 C 
BRANCH  18  19
HETATM   19  C   UNL     1      26.193  46.332  54.351  1.00  0.00    -0.004 C 
HETATM   20  C   UNL     1      27.364  45.431  54.707  1.00  0.00     0.005 C 
ENDBRANCH  18  19
ENDBRANCH  17  18
ENDBRANCH  16  17
ENDBRANCH   7  16
BRANCH  12  21
HETATM   21  O   UNL     1      23.404  41.522  49.009  1.00  0.00    -0.359 OA
HETATM   22  H   UNL     1      22.431  41.572  48.934  1.00  0.00     0.218 HD
ENDBRANCH  12  21
ENDBRANCH   1   5
BRANCH   2  23
HETATM   23  N   UNL     1      19.869  44.915  48.601  1.00  0.00    -0.176 NA
HETATM   24  C   UNL     1      19.399  46.117  48.445  1.00  0.00     0.069 C 
HETATM   25  C   UNL     1      18.000  46.214  47.873  1.00  0.00     0.073 C 
BRANCH  24  26
HETATM   26  C   UNL     1      20.087  47.410  48.746  1.00  0.00     0.092 A 
HETATM   27  C   UNL     1      19.554  48.299  49.820  1.00  0.00     0.261 A 
HETATM   28  O   UNL     1      18.573  47.988  50.489  1.00  0.00    -0.267 OA
HETATM   29  N   UNL     1      20.209  49.477  50.044  1.00  0.00    -0.322 N 
HETATM   30  C   UNL     1      21.345  49.880  49.336  1.00  0.00     0.048 A 
HETATM   31  H   UNL     1      19.834  50.060  50.783  1.00  0.00     0.169 HD
HETATM   32  C   UNL     1      21.846  49.060  48.316  1.00  0.00     0.025 A 
HETATM   33  C   UNL     1      21.966  51.085  49.667  1.00  0.00     0.030 A 
HETATM   34  C   UNL     1      22.998  49.472  47.633  1.00  0.00     0.016 A 
HETATM   35  C   UNL     1      21.150  47.796  48.013  1.00  0.00     0.096 A 
HETATM   36  C   UNL     1      23.628  50.674  47.964  1.00  0.00     0.001 A 
HETATM   37  C   UNL     1      23.112  51.480  48.978  1.00  0.00     0.002 A 
BRANCH  35  38
HETATM   38  O   UNL     1      21.695  47.060  46.976  1.00  0.00    -0.359 OA
HETATM   39  H   UNL     1      22.046  47.655  46.281  1.00  0.00     0.218 HD
ENDBRANCH  35  38
ENDBRANCH  24  26
ENDBRANCH   2  23
TORSDOF 9
ENDMDL
MODEL 5
REMARK VINA RESULT:      -8.6      5.176      7.529
REMARK  9 active torsions:
REMARK  status: ('A' for Active; 'I' for Inactive)
REMARK    1  A    between atoms: C_2  and  C_3 
REMARK    2  A    between atoms: C_3  and  C_4 
REMARK    3  A    between atoms: C_4  and  C_5 
REMARK    4  A    between atoms: C_5  and  N_6 
REMARK    5  A    between atoms: C_9  and  C_10 
REMARK       I    between atoms: C_10  and  N_11 
REMARK    6  A    between atoms: N_11  and  N_12 
REMARK    7  A    between atoms: C_13  and  C_14 
REMARK    8  A    between atoms: C_24  and  O_25 
REMARK    9  A    between atoms: C_28  and  O_29 
ROOT
HETATM    1  C   UNL     1      28.591  41.218  52.897  1.00  0.00     0.280 C 
HETATM    2  N   UNL     1      28.690  41.189  51.512  1.00  0.00    -0.242 N 
HETATM    3  O   UNL     1      28.668  40.256  53.650  1.00  0.00    -0.266 OA
HETATM    4  H   UNL     1      28.513  42.036  50.978  1.00  0.00     0.192 HD
ENDROOT
BRANCH   1   5
HETATM    5  C   UNL     1      28.284  42.575  53.400  1.00  0.00     0.135 A 
HETATM    6  C   UNL     1      27.013  43.223  53.000  1.00  0.00     0.266 A 
HETATM    7  N   UNL     1      26.732  44.485  53.524  1.00  0.00    -0.313 N 
HETATM    8  O   UNL     1      26.238  42.624  52.255  1.00  0.00    -0.267 OA
HETATM    9  C   UNL     1      27.611  45.125  54.458  1.00  0.00     0.050 A 
HETATM   10  C   UNL     1      28.817  44.486  54.811  1.00  0.00     0.025 A 
HETATM   11  C   UNL     1      27.314  46.366  55.048  1.00  0.00     0.031 A 
HETATM   12  C   UNL     1      29.149  43.178  54.230  1.00  0.00     0.099 A 
HETATM   13  C   UNL     1      29.693  45.106  55.723  1.00  0.00     0.016 A 
HETATM   14  C   UNL     1      29.385  46.339  56.289  1.00  0.00     0.001 A 
HETATM   15  C   UNL     1      28.194  46.967  55.953  1.00  0.00     0.002 A 
BRANCH   7  16
HETATM   16  C   UNL     1      25.499  45.125  53.061  1.00  0.00     0.132 C 
BRANCH  16  17
HETATM   17  C   UNL     1      25.656  45.937  51.767  1.00  0.00     0.020 C 
BRANCH  17  18
HETATM   18  C   UNL     1      24.618  45.613  50.694  1.00  0.00     0.001 C 
BRANCH  18  19
HETATM   19  C   UNL     1      25.298  45.212  49.382  1.00  0.00    -0.004 C 
HETATM   20  C   UNL     1      26.717  44.721  49.613  1.00  0.00     0.005 C 
ENDBRANCH  18  19
ENDBRANCH  17  18
ENDBRANCH  16  17
ENDBRANCH   7  16
BRANCH  12  21
HETATM   21  O   UNL     1      30.364  42.640  54.621  1.00  0.00    -0.359 OA
HETATM   22  H   UNL     1      30.220  41.865  55.198  1.00  0.00     0.218 HD
ENDBRANCH  12  21
ENDBRANCH   1   5
BRANCH   2  23
HETATM   23  N   UNL     1      29.016  40.028  50.878  1.00  0.00    -0.176 NA
HETATM   24  C   UNL     1      28.365  39.658  49.815  1.00  0.00     0.069 C 
HETATM   25  C   UNL     1      28.781  38.333  49.210  1.00  0.00     0.073 C 
BRANCH  24  26
HETATM   26  C   UNL     1      27.270  40.396  49.114  1.00  0.00     0.092 A 
HETATM   27  C   UNL     1      27.490  40.906  47.729  1.00  0.00     0.261 A 
HETATM   28  O   UNL     1      28.543  40.716  47.130  1.00  0.00    -0.267 OA
HETATM   29  N   UNL     1      26.463  41.589  47.140  1.00  0.00    -0.322 N 
HETATM   30  C   UNL     1      25.230  41.819  47.757  1.00  0.00     0.048 A 
HETATM   31  H   UNL     1      26.632  41.919  46.198  1.00  0.00     0.169 HD
HETATM   32  C   UNL     1      25.017  41.357  49.063  1.00  0.00     0.025 A 
HETATM   33  C   UNL     1      24.229  42.494  47.056  1.00  0.00     0.030 A 
HETATM   34  C   UNL     1      23.767  41.579  49.655  1.00  0.00     0.016 A 
HETATM   35  C   UNL     1      26.110  40.647  49.752  1.00  0.00     0.096 A 
HETATM   36  C   UNL     1      22.759  42.248  48.955  1.00  0.00     0.001 A 
HETATM   37  C   UNL     1      22.991  42.707  47.659  1.00  0.00     0.002 A 
BRANCH  35  38
HETATM   38  O   UNL     1      25.825  40.248  51.046  1.00  0.00    -0.359 OA
HETATM   39  H   UNL     1      24.867  40.335  51.228  1.00  0.00     0.218 HD
ENDBRANCH  35  38
ENDBRANCH  24  26
ENDBRANCH   2  23
TORSDOF 9
ENDMDL
MODEL 6
REMARK VINA RESULT:      -8.5      5.227      8.461
REMARK  9 active torsions:
REMARK  status: ('A' for Active; 'I' for Inactive)
REMARK    1  A    between atoms: C_2  and  C_3 
REMARK    2  A    between atoms: C_3  and  C_4 
REMARK    3  A    between atoms: C_4  and  C_5 
REMARK    4  A    between atoms: C_5  and  N_6 
REMARK    5  A    between atoms: C_9  and  C_10 
REMARK       I    between atoms: C_10  and  N_11 
REMARK    6  A    between atoms: N_11  and  N_12 
REMARK    7  A    between atoms: C_13  and  C_14 
REMARK    8  A    between atoms: C_24  and  O_25 
REMARK    9  A    between atoms: C_28  and  O_29 
ROOT
HETATM    1  C   UNL     1      27.369  40.704  50.382  1.00  0.00     0.280 C 
HETATM    2  N   UNL     1      28.476  40.701  49.543  1.00  0.00    -0.242 N 
HETATM    3  O   UNL     1      26.636  39.754  50.619  1.00  0.00    -0.266 OA
HETATM    4  H   UNL     1      28.957  41.574  49.344  1.00  0.00     0.192 HD
ENDROOT
BRANCH   1   5
HETATM    5  C   UNL     1      27.094  42.052  50.928  1.00  0.00     0.135 A 
HETATM    6  C   UNL     1      27.415  42.334  52.347  1.00  0.00     0.266 A 
HETATM    7  N   UNL     1      27.183  43.626  52.822  1.00  0.00    -0.313 N 
HETATM    8  O   UNL     1      27.899  41.445  53.046  1.00  0.00    -0.267 OA
HETATM    9  C   UNL     1      26.699  44.667  51.965  1.00  0.00     0.050 A 
HETATM   10  C   UNL     1      26.394  44.363  50.623  1.00  0.00     0.025 A 
HETATM   11  C   UNL     1      26.523  45.990  52.408  1.00  0.00     0.031 A 
HETATM   12  C   UNL     1      26.587  42.996  50.121  1.00  0.00     0.099 A 
HETATM   13  C   UNL     1      25.913  45.375  49.771  1.00  0.00     0.016 A 
HETATM   14  C   UNL     1      25.736  46.677  50.231  1.00  0.00     0.001 A 
HETATM   15  C   UNL     1      26.044  46.983  51.549  1.00  0.00     0.002 A 
BRANCH   7  16
HETATM   16  C   UNL     1      27.451  43.856  54.243  1.00  0.00     0.132 C 
BRANCH  16  17
HETATM   17  C   UNL     1      28.823  44.479  54.535  1.00  0.00     0.020 C 
BRANCH  17  18
HETATM   18  C   UNL     1      29.876  43.481  55.013  1.00  0.00     0.001 C 
BRANCH  18  19
HETATM   19  C   UNL     1      30.918  44.171  55.897  1.00  0.00    -0.004 C 
HETATM   20  C   UNL     1      31.476  43.228  56.949  1.00  0.00     0.005 C 
ENDBRANCH  18  19
ENDBRANCH  17  18
ENDBRANCH  16  17
ENDBRANCH   7  16
BRANCH  12  21
HETATM   21  O   UNL     1      26.242  42.790  48.796  1.00  0.00    -0.359 OA
HETATM   22  H   UNL     1      25.654  43.507  48.485  1.00  0.00     0.218 HD
ENDBRANCH  12  21
ENDBRANCH   1   5
BRANCH   2  23
HETATM   23  N   UNL     1      28.905  39.533  48.987  1.00  0.00    -0.176 NA
HETATM   24  C   UNL     1      28.345  39.078  47.907  1.00  0.00     0.069 C 
HETATM   25  C   UNL     1      28.870  37.754  47.393  1.00  0.00     0.073 C 
BRANCH  24  26
HETATM   26  C   UNL     1      27.257  39.719  47.105  1.00  0.00     0.092 A 
HETATM   27  C   UNL     1      27.584  40.837  46.174  1.00  0.00     0.261 A 
HETATM   28  O   UNL     1      28.735  41.237  46.023  1.00  0.00    -0.267 OA
HETATM   29  N   UNL     1      26.551  41.399  45.477  1.00  0.00    -0.322 N 
HETATM   30  C   UNL     1      25.224  40.976  45.584  1.00  0.00     0.048 A 
HETATM   31  H   UNL     1      26.799  42.151  44.845  1.00  0.00     0.169 HD
HETATM   32  C   UNL     1      24.901  39.936  46.467  1.00  0.00     0.025 A 
HETATM   33  C   UNL     1      24.245  41.589  44.800  1.00  0.00     0.030 A 
HETATM   34  C   UNL     1      23.568  39.513  46.543  1.00  0.00     0.016 A 
HETATM   35  C   UNL     1      25.978  39.324  47.266  1.00  0.00     0.096 A 
HETATM   36  C   UNL     1      22.585  40.119  45.756  1.00  0.00     0.001 A 
HETATM   37  C   UNL     1      22.922  41.156  44.888  1.00  0.00     0.002 A 
BRANCH  35  38
HETATM   38  O   UNL     1      25.570  38.323  48.130  1.00  0.00    -0.359 OA
HETATM   39  H   UNL     1      26.267  37.640  48.216  1.00  0.00     0.218 HD
ENDBRANCH  35  38
ENDBRANCH  24  26
ENDBRANCH   2  23
TORSDOF 9
ENDMDL
MODEL 7
REMARK VINA RESULT:      -8.4     12.097     16.377
REMARK  9 active torsions:
REMARK  status: ('A' for Active; 'I' for Inactive)
REMARK    1  A    between atoms: C_2  and  C_3 
REMARK    2  A    between atoms: C_3  and  C_4 
REMARK    3  A    between atoms: C_4  and  C_5 
REMARK    4  A    between atoms: C_5  and  N_6 
REMARK    5  A    between atoms: C_9  and  C_10 
REMARK       I    between atoms: C_10  and  N_11 
REMARK    6  A    between atoms: N_11  and  N_12 
REMARK    7  A    between atoms: C_13  and  C_14 
REMARK    8  A    between atoms: C_24  and  O_25 
REMARK    9  A    between atoms: C_28  and  O_29 
ROOT
HETATM    1  C   UNL     1      32.894  51.351  43.226  1.00  0.00     0.280 C 
HETATM    2  N   UNL     1      34.179  51.740  42.871  1.00  0.00    -0.242 N 
HETATM    3  O   UNL     1      32.415  51.371  44.352  1.00  0.00    -0.266 OA
HETATM    4  H   UNL     1      34.504  51.590  41.919  1.00  0.00     0.192 HD
ENDROOT
BRANCH   1   5
HETATM    5  C   UNL     1      32.145  50.803  42.074  1.00  0.00     0.135 A 
HETATM    6  C   UNL     1      31.759  51.710  40.967  1.00  0.00     0.266 A 
HETATM    7  N   UNL     1      31.090  51.155  39.875  1.00  0.00    -0.313 N 
HETATM    8  O   UNL     1      32.064  52.900  41.027  1.00  0.00    -0.267 OA
HETATM    9  C   UNL     1      30.823  49.750  39.790  1.00  0.00     0.050 A 
HETATM   10  C   UNL     1      31.194  48.916  40.864  1.00  0.00     0.025 A 
HETATM   11  C   UNL     1      30.210  49.164  38.669  1.00  0.00     0.031 A 
HETATM   12  C   UNL     1      31.856  49.493  42.042  1.00  0.00     0.099 A 
HETATM   13  C   UNL     1      30.933  47.535  40.796  1.00  0.00     0.016 A 
HETATM   14  C   UNL     1      30.316  46.975  39.681  1.00  0.00     0.001 A 
HETATM   15  C   UNL     1      29.958  47.790  38.617  1.00  0.00     0.002 A 
BRANCH   7  16
HETATM   16  C   UNL     1      30.667  52.087  38.828  1.00  0.00     0.132 C 
BRANCH  16  17
HETATM   17  C   UNL     1      29.324  52.779  39.102  1.00  0.00     0.020 C 
BRANCH  17  18
HETATM   18  C   UNL     1      28.100  51.916  38.796  1.00  0.00     0.001 C 
BRANCH  18  19
HETATM   19  C   UNL     1      27.523  51.316  40.080  1.00  0.00    -0.004 C 
HETATM   20  C   UNL     1      27.812  52.192  41.288  1.00  0.00     0.005 C 
ENDBRANCH  18  19
ENDBRANCH  17  18
ENDBRANCH  16  17
ENDBRANCH   7  16
BRANCH  12  21
HETATM   21  O   UNL     1      32.164  48.598  43.053  1.00  0.00    -0.359 OA
HETATM   22  H   UNL     1      31.926  48.975  43.922  1.00  0.00     0.218 HD
ENDBRANCH  12  21
ENDBRANCH   1   5
BRANCH   2  23
HETATM   23  N   UNL     1      34.997  52.313  43.798  1.00  0.00    -0.176 NA
HETATM   24  C   UNL     1      36.259  52.484  43.542  1.00  0.00     0.069 C 
HETATM   25  C   UNL     1      37.086  53.094  44.654  1.00  0.00     0.073 C 
BRANCH  24  26
HETATM   26  C   UNL     1      36.982  52.163  42.273  1.00  0.00     0.092 A 
HETATM   27  C   UNL     1      37.706  50.865  42.141  1.00  0.00     0.261 A 
HETATM   28  O   UNL     1      37.705  50.030  43.041  1.00  0.00    -0.267 OA
HETATM   29  N   UNL     1      38.365  50.628  40.967  1.00  0.00    -0.322 N 
HETATM   30  C   UNL     1      38.385  51.524  39.895  1.00  0.00     0.048 A 
HETATM   31  H   UNL     1      38.841  49.737  40.898  1.00  0.00     0.169 HD
HETATM   32  C   UNL     1      37.721  52.753  40.013  1.00  0.00     0.025 A 
HETATM   33  C   UNL     1      39.055  51.173  38.722  1.00  0.00     0.030 A 
HETATM   34  C   UNL     1      37.736  53.628  38.919  1.00  0.00     0.016 A 
HETATM   35  C   UNL     1      37.027  53.067  41.275  1.00  0.00     0.096 A 
HETATM   36  C   UNL     1      38.399  53.279  37.740  1.00  0.00     0.001 A 
HETATM   37  C   UNL     1      39.060  52.055  37.642  1.00  0.00     0.002 A 
BRANCH  35  38
HETATM   38  O   UNL     1      36.420  54.311  41.316  1.00  0.00    -0.359 OA
HETATM   39  H   UNL     1      36.522  54.770  40.457  1.00  0.00     0.218 HD
ENDBRANCH  35  38
ENDBRANCH  24  26
ENDBRANCH   2  23
TORSDOF 9
ENDMDL
MODEL 8
REMARK VINA RESULT:      -8.3      2.509      3.519
REMARK  9 active torsions:
REMARK  status: ('A' for Active; 'I' for Inactive)
REMARK    1  A    between atoms: C_2  and  C_3 
REMARK    2  A    between atoms: C_3  and  C_4 
REMARK    3  A    between atoms: C_4  and  C_5 
REMARK    4  A    between atoms: C_5  and  N_6 
REMARK    5  A    between atoms: C_9  and  C_10 
REMARK       I    between atoms: C_10  and  N_11 
REMARK    6  A    between atoms: N_11  and  N_12 
REMARK    7  A    between atoms: C_13  and  C_14 
REMARK    8  A    between atoms: C_24  and  O_25 
REMARK    9  A    between atoms: C_28  and  O_29 
ROOT
HETATM    1  C   UNL     1      19.936  45.261  47.652  1.00  0.00     0.280 C 
HETATM    2  N   UNL     1      19.702  45.925  46.454  1.00  0.00    -0.242 N 
HETATM    3  O   UNL     1      19.116  44.628  48.302  1.00  0.00    -0.266 OA
HETATM    4  H   UNL     1      20.434  46.502  46.048  1.00  0.00     0.192 HD
ENDROOT
BRANCH   1   5
HETATM    5  C   UNL     1      21.319  45.469  48.137  1.00  0.00     0.135 A 
HETATM    6  C   UNL     1      21.730  46.820  48.585  1.00  0.00     0.266 A 
HETATM    7  N   UNL     1      23.028  46.974  49.077  1.00  0.00    -0.313 N 
HETATM    8  O   UNL     1      20.919  47.744  48.543  1.00  0.00    -0.267 OA
HETATM    9  C   UNL     1      23.925  45.864  49.195  1.00  0.00     0.050 A 
HETATM   10  C   UNL     1      23.506  44.594  48.751  1.00  0.00     0.025 A 
HETATM   11  C   UNL     1      25.211  45.988  49.749  1.00  0.00     0.031 A 
HETATM   12  C   UNL     1      22.160  44.425  48.186  1.00  0.00     0.099 A 
HETATM   13  C   UNL     1      24.379  43.495  48.856  1.00  0.00     0.016 A 
HETATM   14  C   UNL     1      25.653  43.640  49.400  1.00  0.00     0.001 A 
HETATM   15  C   UNL     1      26.066  44.886  49.848  1.00  0.00     0.002 A 
BRANCH   7  16
HETATM   16  C   UNL     1      23.425  48.333  49.453  1.00  0.00     0.132 C 
BRANCH  16  17
HETATM   17  C   UNL     1      23.855  49.215  48.272  1.00  0.00     0.020 C 
BRANCH  17  18
HETATM   18  C   UNL     1      23.555  50.702  48.459  1.00  0.00     0.001 C 
BRANCH  18  19
HETATM   19  C   UNL     1      22.056  50.932  48.666  1.00  0.00    -0.004 C 
HETATM   20  C   UNL     1      21.707  51.065  50.139  1.00  0.00     0.005 C 
ENDBRANCH  18  19
ENDBRANCH  17  18
ENDBRANCH  16  17
ENDBRANCH   7  16
BRANCH  12  21
HETATM   21  O   UNL     1      21.847  43.145  47.759  1.00  0.00    -0.359 OA
HETATM   22  H   UNL     1      22.654  42.596  47.717  1.00  0.00     0.218 HD
ENDBRANCH  12  21
ENDBRANCH   1   5
BRANCH   2  23
HETATM   23  N   UNL     1      18.493  45.806  45.836  1.00  0.00    -0.176 NA
HETATM   24  C   UNL     1      17.683  46.820  45.782  1.00  0.00     0.069 C 
HETATM   25  C   UNL     1      16.351  46.571  45.106  1.00  0.00     0.073 C 
BRANCH  24  26
HETATM   26  C   UNL     1      17.921  48.205  46.295  1.00  0.00     0.092 A 
HETATM   27  C   UNL     1      18.249  49.302  45.338  1.00  0.00     0.261 A 
HETATM   28  O   UNL     1      18.307  49.108  44.128  1.00  0.00    -0.267 OA
HETATM   29  N   UNL     1      18.474  50.545  45.859  1.00  0.00    -0.322 N 
HETATM   30  C   UNL     1      18.401  50.838  47.223  1.00  0.00     0.048 A 
HETATM   31  H   UNL     1      18.687  51.275  45.190  1.00  0.00     0.169 HD
HETATM   32  C   UNL     1      18.108  49.814  48.133  1.00  0.00     0.025 A 
HETATM   33  C   UNL     1      18.609  52.150  47.653  1.00  0.00     0.030 A 
HETATM   34  C   UNL     1      18.018  50.133  49.494  1.00  0.00     0.016 A 
HETATM   35  C   UNL     1      17.894  48.448  47.620  1.00  0.00     0.096 A 
HETATM   36  C   UNL     1      18.219  51.445  49.929  1.00  0.00     0.001 A 
HETATM   37  C   UNL     1      18.516  52.451  49.011  1.00  0.00     0.002 A 
BRANCH  35  38
HETATM   38  O   UNL     1      17.634  47.492  48.586  1.00  0.00    -0.359 OA
HETATM   39  H   UNL     1      18.385  46.867  48.660  1.00  0.00     0.218 HD
ENDBRANCH  35  38
ENDBRANCH  24  26
ENDBRANCH   2  23
TORSDOF 9
ENDMDL
MODEL 9
REMARK VINA RESULT:      -8.3      1.665      6.594
REMARK  9 active torsions:
REMARK  status: ('A' for Active; 'I' for Inactive)
REMARK    1  A    between atoms: C_2  and  C_3 
REMARK    2  A    between atoms: C_3  and  C_4 
REMARK    3  A    between atoms: C_4  and  C_5 
REMARK    4  A    between atoms: C_5  and  N_6 
REMARK    5  A    between atoms: C_9  and  C_10 
REMARK       I    between atoms: C_10  and  N_11 
REMARK    6  A    between atoms: N_11  and  N_12 
REMARK    7  A    between atoms: C_13  and  C_14 
REMARK    8  A    between atoms: C_24  and  O_25 
REMARK    9  A    between atoms: C_28  and  O_29 
ROOT
HETATM    1  C   UNL     1      20.386  45.315  47.803  1.00  0.00     0.280 C 
HETATM    2  N   UNL     1      21.522  44.591  48.143  1.00  0.00    -0.242 N 
HETATM    3  O   UNL     1      19.410  44.892  47.198  1.00  0.00    -0.266 OA
HETATM    4  H   UNL     1      22.315  45.069  48.562  1.00  0.00     0.192 HD
ENDROOT
BRANCH   1   5
HETATM    5  C   UNL     1      20.505  46.739  48.186  1.00  0.00     0.135 A 
HETATM    6  C   UNL     1      21.721  47.492  47.798  1.00  0.00     0.266 A 
HETATM    7  N   UNL     1      21.785  48.844  48.136  1.00  0.00    -0.313 N 
HETATM    8  O   UNL     1      22.611  46.920  47.169  1.00  0.00    -0.267 OA
HETATM    9  C   UNL     1      20.698  49.508  48.794  1.00  0.00     0.050 A 
HETATM   10  C   UNL     1      19.560  48.761  49.158  1.00  0.00     0.025 A 
HETATM   11  C   UNL     1      20.717  50.884  49.083  1.00  0.00     0.031 A 
HETATM   12  C   UNL     1      19.497  47.326  48.851  1.00  0.00     0.099 A 
HETATM   13  C   UNL     1      18.487  49.400  49.808  1.00  0.00     0.016 A 
HETATM   14  C   UNL     1      18.528  50.761  50.095  1.00  0.00     0.001 A 
HETATM   15  C   UNL     1      19.643  51.502  49.729  1.00  0.00     0.002 A 
BRANCH   7  16
HETATM   16  C   UNL     1      23.025  49.544  47.795  1.00  0.00     0.132 C 
BRANCH  16  17
HETATM   17  C   UNL     1      24.061  49.583  48.928  1.00  0.00     0.020 C 
BRANCH  17  18
HETATM   18  C   UNL     1      25.511  49.654  48.450  1.00  0.00     0.001 C 
BRANCH  18  19
HETATM   19  C   UNL     1      26.388  48.670  49.228  1.00  0.00    -0.004 C 
HETATM   20  C   UNL     1      27.859  49.038  49.139  1.00  0.00     0.005 C 
ENDBRANCH  18  19
ENDBRANCH  17  18
ENDBRANCH  16  17
ENDBRANCH   7  16
BRANCH  12  21
HETATM   21  O   UNL     1      18.348  46.674  49.265  1.00  0.00    -0.359 OA
HETATM   22  H   UNL     1      18.550  45.747  49.498  1.00  0.00     0.218 HD
ENDBRANCH  12  21
ENDBRANCH   1   5
BRANCH   2  23
HETATM   23  N   UNL     1      21.568  43.249  47.907  1.00  0.00    -0.176 NA
HETATM   24  C   UNL     1      22.595  42.553  48.292  1.00  0.00     0.069 C 
HETATM   25  C   UNL     1      22.564  41.078  47.948  1.00  0.00     0.073 C 
BRANCH  24  26
HETATM   26  C   UNL     1      23.792  43.035  49.048  1.00  0.00     0.092 A 
HETATM   27  C   UNL     1      25.161  42.714  48.550  1.00  0.00     0.261 A 
HETATM   28  O   UNL     1      25.340  42.081  47.514  1.00  0.00    -0.267 OA
HETATM   29  N   UNL     1      26.221  43.163  49.287  1.00  0.00    -0.322 N 
HETATM   30  C   UNL     1      26.087  43.909  50.462  1.00  0.00     0.048 A 
HETATM   31  H   UNL     1      27.140  42.940  48.926  1.00  0.00     0.169 HD
HETATM   32  C   UNL     1      24.806  44.204  50.948  1.00  0.00     0.025 A 
HETATM   33  C   UNL     1      27.232  44.356  51.123  1.00  0.00     0.030 A 
HETATM   34  C   UNL     1      24.694  44.971  52.115  1.00  0.00     0.016 A 
HETATM   35  C   UNL     1      23.633  43.708  50.205  1.00  0.00     0.096 A 
HETATM   36  C   UNL     1      25.837  45.427  52.776  1.00  0.00     0.001 A 
HETATM   37  C   UNL     1      27.103  45.118  52.283  1.00  0.00     0.002 A 
BRANCH  35  38
HETATM   38  O   UNL     1      22.407  44.022  50.766  1.00  0.00    -0.359 OA
HETATM   39  H   UNL     1      22.329  44.990  50.898  1.00  0.00     0.218 HD
ENDBRANCH  35  38
ENDBRANCH  24  26
ENDBRANCH   2  23
TORSDOF 9
ENDMDL
MODEL 10
REMARK VINA RESULT:      -8.3      3.315      7.751
REMARK  9 active torsions:
REMARK  status: ('A' for Active; 'I' for Inactive)
REMARK    1  A    between atoms: C_2  and  C_3 
REMARK    2  A    between atoms: C_3  and  C_4 
REMARK    3  A    between atoms: C_4  and  C_5 
REMARK    4  A    between atoms: C_5  and  N_6 
REMARK    5  A    between atoms: C_9  and  C_10 
REMARK       I    between atoms: C_10  and  N_11 
REMARK    6  A    between atoms: N_11  and  N_12 
REMARK    7  A    between atoms: C_13  and  C_14 
REMARK    8  A    between atoms: C_24  and  O_25 
REMARK    9  A    between atoms: C_28  and  O_29 
ROOT
HETATM    1  C   UNL     1      19.942  45.328  47.705  1.00  0.00     0.280 C 
HETATM    2  N   UNL     1      20.905  46.273  47.376  1.00  0.00    -0.242 N 
HETATM    3  O   UNL     1      20.031  44.475  48.578  1.00  0.00    -0.266 OA
HETATM    4  H   UNL     1      20.765  46.872  46.567  1.00  0.00     0.192 HD
ENDROOT
BRANCH   1   5
HETATM    5  C   UNL     1      18.772  45.396  46.802  1.00  0.00     0.135 A 
HETATM    6  C   UNL     1      17.858  46.559  46.892  1.00  0.00     0.266 A 
HETATM    7  N   UNL     1      16.787  46.616  45.998  1.00  0.00    -0.313 N 
HETATM    8  O   UNL     1      18.086  47.445  47.715  1.00  0.00    -0.267 OA
HETATM    9  C   UNL     1      16.593  45.615  44.992  1.00  0.00     0.050 A 
HETATM   10  C   UNL     1      17.474  44.516  44.940  1.00  0.00     0.025 A 
HETATM   11  C   UNL     1      15.560  45.690  44.041  1.00  0.00     0.031 A 
HETATM   12  C   UNL     1      18.578  44.418  45.904  1.00  0.00     0.099 A 
HETATM   13  C   UNL     1      17.291  43.523  43.959  1.00  0.00     0.016 A 
HETATM   14  C   UNL     1      16.256  43.610  43.032  1.00  0.00     0.001 A 
HETATM   15  C   UNL     1      15.393  44.696  43.073  1.00  0.00     0.002 A 
BRANCH   7  16
HETATM   16  C   UNL     1      15.868  47.745  46.154  1.00  0.00     0.132 C 
BRANCH  16  17
HETATM   17  C   UNL     1      16.263  48.997  45.357  1.00  0.00     0.020 C 
BRANCH  17  18
HETATM   18  C   UNL     1      16.337  50.274  46.192  1.00  0.00     0.001 C 
BRANCH  18  19
HETATM   19  C   UNL     1      17.502  51.155  45.735  1.00  0.00    -0.004 C 
HETATM   20  C   UNL     1      18.708  50.325  45.329  1.00  0.00     0.005 C 
ENDBRANCH  18  19
ENDBRANCH  17  18
ENDBRANCH  16  17
ENDBRANCH   7  16
BRANCH  12  21
HETATM   21  O   UNL     1      19.377  43.293  45.786  1.00  0.00    -0.359 OA
HETATM   22  H   UNL     1      18.833  42.484  45.854  1.00  0.00     0.218 HD
ENDBRANCH  12  21
ENDBRANCH   1   5
BRANCH   2  23
HETATM   23  N   UNL     1      22.033  46.386  48.133  1.00  0.00    -0.176 NA
HETATM   24  C   UNL     1      22.337  47.520  48.689  1.00  0.00     0.069 C 
HETATM   25  C   UNL     1      23.630  47.548  49.478  1.00  0.00     0.073 C 
BRANCH  24  26
HETATM   26  C   UNL     1      21.551  48.791  48.654  1.00  0.00     0.092 A 
HETATM   27  C   UNL     1      22.085  49.972  47.916  1.00  0.00     0.261 A 
HETATM   28  O   UNL     1      23.150  49.926  47.307  1.00  0.00    -0.267 OA
HETATM   29  N   UNL     1      21.336  51.115  47.929  1.00  0.00    -0.322 N 
HETATM   30  C   UNL     1      20.105  51.227  48.581  1.00  0.00     0.048 A 
HETATM   31  H   UNL     1      21.715  51.901  47.414  1.00  0.00     0.169 HD
HETATM   32  C   UNL     1      19.599  50.130  49.290  1.00  0.00     0.025 A 
HETATM   33  C   UNL     1      19.396  52.427  48.503  1.00  0.00     0.030 A 
HETATM   34  C   UNL     1      18.354  50.256  49.919  1.00  0.00     0.016 A 
HETATM   35  C   UNL     1      20.392  48.887  49.334  1.00  0.00     0.096 A 
HETATM   36  C   UNL     1      17.637  51.452  49.839  1.00  0.00     0.001 A 
HETATM   37  C   UNL     1      18.158  52.537  49.134  1.00  0.00     0.002 A 
BRANCH  35  38
HETATM   38  O   UNL     1      19.832  47.861  50.077  1.00  0.00    -0.359 OA
HETATM   39  H   UNL     1      19.273  47.292  49.508  1.00  0.00     0.218 HD
ENDBRANCH  35  38
ENDBRANCH  24  26
ENDBRANCH   2  23
TORSDOF 9
ENDMDL
