MODEL 1
REMARK VINA RESULT:      -9.4      0.000      0.000
REMARK  5 active torsions:
REMARK  status: ('A' for Active; 'I' for Inactive)
REMARK    1  A    between atoms: C_7  and  C_8 
REMARK    2  A    between atoms: C_8  and  C_9 
REMARK    3  A    between atoms: C_9  and  N_10 
REMARK       I    between atoms: N_10  and  C_11 
REMARK       I    between atoms: C_11  and  N_12 
REMARK    4  A    between atoms: N_12  and  C_13 
REMARK    5  A    between atoms: C_14  and  O_15 
ROOT
HETATM    1  C   UNL     1      27.286  43.032  53.551  1.00  0.00     0.129 C 
ENDROOT
BRANCH   1   2
HETATM    2  C   UNL     1      28.458  44.000  53.355  1.00  0.00     0.061 C 
BRANCH   2   3
HETATM    3  C   UNL     1      28.757  44.829  54.572  1.00  0.00    -0.022 A 
HETATM    4  C   UNL     1      28.127  46.009  54.942  1.00  0.00     0.013 A 
HETATM    5  C   UNL     1      27.035  46.777  54.287  1.00  0.00     0.068 C 
HETATM    6  N   UNL     1      28.683  46.430  56.125  1.00  0.00    -0.356 N 
HETATM    7  H   UNL     1      28.417  47.259  56.640  1.00  0.00     0.166 HD
HETATM    8  C   UNL     1      29.659  45.555  56.531  1.00  0.00     0.082 A 
HETATM    9  C   UNL     1      29.737  44.542  55.577  1.00  0.00     0.005 A 
HETATM   10  C   UNL     1      30.473  45.582  57.665  1.00  0.00     0.146 A 
HETATM   11  C   UNL     1      30.679  43.512  55.776  1.00  0.00     0.056 A 
HETATM   12  C   UNL     1      31.489  43.545  56.915  1.00  0.00     0.120 A 
HETATM   13  C   UNL     1      31.397  44.561  57.854  1.00  0.00     0.086 A 
HETATM   14  F   UNL     1      32.384  42.563  57.102  1.00  0.00    -0.206 F 
HETATM   15  F   UNL     1      30.370  46.571  58.561  1.00  0.00    -0.204 F 
ENDBRANCH   2   3
ENDBRANCH   1   2
BRANCH   1  16
HETATM   16  N   UNL     1      27.006  42.236  52.363  1.00  0.00    -0.343 N 
HETATM   17  C   UNL     1      26.175  42.630  51.349  1.00  0.00     0.320 C 
HETATM   18  N   UNL     1      25.113  43.399  51.744  1.00  0.00    -0.303 N 
HETATM   19  O   UNL     1      26.415  42.243  50.210  1.00  0.00    -0.247 OA
HETATM   20  H   UNL     1      24.718  43.176  52.643  1.00  0.00     0.171 HD
HETATM   21  H   UNL     1      27.808  41.760  51.961  1.00  0.00     0.164 HD
BRANCH  18  22
HETATM   22  C   UNL     1      24.321  44.117  50.864  1.00  0.00     0.115 A 
HETATM   23  C   UNL     1      23.202  43.725  50.096  1.00  0.00     0.212 A 
HETATM   24  N   UNL     1      22.723  44.707  49.334  1.00  0.00    -0.145 NA
HETATM   25  N   UNL     1      23.532  45.745  49.623  1.00  0.00    -0.274 N 
HETATM   26  C   UNL     1      23.293  47.012  48.970  1.00  0.00     0.180 C 
HETATM   27  C   UNL     1      24.532  45.440  50.519  1.00  0.00     0.057 A 
HETATM   28  C   UNL     1      25.551  46.414  50.983  1.00  0.00     0.072 C 
BRANCH  23  29
HETATM   29  O   UNL     1      22.715  42.477  49.943  1.00  0.00    -0.337 OA
HETATM   30  C   UNL     1      23.228  41.836  48.783  1.00  0.00     0.212 C 
ENDBRANCH  23  29
ENDBRANCH  18  22
ENDBRANCH   1  16
TORSDOF 5
ENDMDL
MODEL 2
REMARK VINA RESULT:      -9.4      3.541      5.080
REMARK  5 active torsions:
REMARK  status: ('A' for Active; 'I' for Inactive)
REMARK    1  A    between atoms: C_7  and  C_8 
REMARK    2  A    between atoms: C_8  and  C_9 
REMARK    3  A    between atoms: C_9  and  N_10 
REMARK       I    between atoms: N_10  and  C_11 
REMARK       I    between atoms: C_11  and  N_12 
REMARK    4  A    between atoms: N_12  and  C_13 
REMARK    5  A    between atoms: C_14  and  O_15 
ROOT
HETATM    1  C   UNL     1      28.687  41.450  53.070  1.00  0.00     0.129 C 
ENDROOT
BRANCH   1   2
HETATM    2  C   UNL     1      29.455  42.760  52.864  1.00  0.00     0.061 C 
BRANCH   2   3
HETATM    3  C   UNL     1      29.178  43.788  53.925  1.00  0.00    -0.022 A 
HETATM    4  C   UNL     1      28.161  44.733  53.913  1.00  0.00     0.013 A 
HETATM    5  C   UNL     1      27.103  45.012  52.907  1.00  0.00     0.068 C 
HETATM    6  N   UNL     1      28.248  45.458  55.075  1.00  0.00    -0.356 N 
HETATM    7  H   UNL     1      27.631  46.213  55.348  1.00  0.00     0.166 HD
HETATM    8  C   UNL     1      29.295  45.010  55.841  1.00  0.00     0.082 A 
HETATM    9  C   UNL     1      29.904  43.967  55.147  1.00  0.00     0.005 A 
HETATM   10  C   UNL     1      29.745  45.445  57.089  1.00  0.00     0.146 A 
HETATM   11  C   UNL     1      31.019  43.336  55.738  1.00  0.00     0.056 A 
HETATM   12  C   UNL     1      31.462  43.776  56.989  1.00  0.00     0.120 A 
HETATM   13  C   UNL     1      30.842  44.815  57.665  1.00  0.00     0.086 A 
HETATM   14  F   UNL     1      32.522  43.174  57.549  1.00  0.00    -0.206 F 
HETATM   15  F   UNL     1      29.134  46.451  57.727  1.00  0.00    -0.204 F 
ENDBRANCH   2   3
ENDBRANCH   1   2
BRANCH   1  16
HETATM   16  N   UNL     1      27.474  41.373  52.267  1.00  0.00    -0.343 N 
HETATM   17  C   UNL     1      27.350  40.623  51.128  1.00  0.00     0.320 C 
HETATM   18  N   UNL     1      28.495  40.514  50.386  1.00  0.00    -0.303 N 
HETATM   19  O   UNL     1      26.250  40.158  50.849  1.00  0.00    -0.247 OA
HETATM   20  H   UNL     1      29.094  41.324  50.377  1.00  0.00     0.171 HD
HETATM   21  H   UNL     1      26.608  41.312  52.793  1.00  0.00     0.164 HD
BRANCH  18  22
HETATM   22  C   UNL     1      28.658  39.594  49.364  1.00  0.00     0.115 A 
HETATM   23  C   UNL     1      29.412  38.402  49.304  1.00  0.00     0.212 A 
HETATM   24  N   UNL     1      29.340  37.798  48.119  1.00  0.00    -0.145 NA
HETATM   25  N   UNL     1      28.521  38.600  47.412  1.00  0.00    -0.274 N 
HETATM   26  C   UNL     1      28.203  38.239  46.050  1.00  0.00     0.180 C 
HETATM   27  C   UNL     1      28.100  39.714  48.103  1.00  0.00     0.057 A 
HETATM   28  C   UNL     1      27.203  40.750  47.534  1.00  0.00     0.072 C 
BRANCH  23  29
HETATM   29  O   UNL     1      30.285  37.942  50.224  1.00  0.00    -0.337 OA
HETATM   30  C   UNL     1      29.693  37.002  51.109  1.00  0.00     0.212 C 
ENDBRANCH  23  29
ENDBRANCH  18  22
ENDBRANCH   1  16
TORSDOF 5
ENDMDL
MODEL 3
REMARK VINA RESULT:      -9.2      1.066      2.088
REMARK  5 active torsions:
REMARK  status: ('A' for Active; 'I' for Inactive)
REMARK    1  A    between atoms: C_7  and  C_8 
REMARK    2  A    between atoms: C_8  and  C_9 
REMARK    3  A    between atoms: C_9  and  N_10 
REMARK       I    between atoms: N_10  and  C_11 
REMARK       I    between atoms: C_11  and  N_12 
REMARK    4  A    between atoms: N_12  and  C_13 
REMARK    5  A    between atoms: C_14  and  O_15 
ROOT
HETATM    1  C   UNL     1      27.493  42.924  53.659  1.00  0.00     0.129 C 
ENDROOT
BRANCH   1   2
HETATM    2  C   UNL     1      28.590  43.970  53.432  1.00  0.00     0.061 C 
BRANCH   2   3
HETATM    3  C   UNL     1      28.875  44.810  54.646  1.00  0.00    -0.022 A 
HETATM    4  C   UNL     1      28.244  45.996  54.996  1.00  0.00     0.013 A 
HETATM    5  C   UNL     1      27.164  46.761  54.318  1.00  0.00     0.068 C 
HETATM    6  N   UNL     1      28.784  46.426  56.182  1.00  0.00    -0.356 N 
HETATM    7  H   UNL     1      28.514  47.261  56.686  1.00  0.00     0.166 HD
HETATM    8  C   UNL     1      29.751  45.551  56.611  1.00  0.00     0.082 A 
HETATM    9  C   UNL     1      29.839  44.529  55.668  1.00  0.00     0.005 A 
HETATM   10  C   UNL     1      30.549  45.585  57.756  1.00  0.00     0.146 A 
HETATM   11  C   UNL     1      30.775  43.497  55.890  1.00  0.00     0.056 A 
HETATM   12  C   UNL     1      31.569  43.538  57.040  1.00  0.00     0.120 A 
HETATM   13  C   UNL     1      31.466  44.563  57.968  1.00  0.00     0.086 A 
HETATM   14  F   UNL     1      32.457  42.555  57.249  1.00  0.00    -0.206 F 
HETATM   15  F   UNL     1      30.437  46.584  58.641  1.00  0.00    -0.204 F 
ENDBRANCH   2   3
ENDBRANCH   1   2
BRANCH   1  16
HETATM   16  N   UNL     1      27.146  42.197  52.446  1.00  0.00    -0.343 N 
HETATM   17  C   UNL     1      26.439  42.733  51.403  1.00  0.00     0.320 C 
HETATM   18  N   UNL     1      25.497  43.659  51.763  1.00  0.00    -0.303 N 
HETATM   19  O   UNL     1      26.667  42.325  50.269  1.00  0.00    -0.247 OA
HETATM   20  H   UNL     1      25.029  43.494  52.639  1.00  0.00     0.171 HD
HETATM   21  H   UNL     1      27.878  41.603  52.071  1.00  0.00     0.164 HD
BRANCH  18  22
HETATM   22  C   UNL     1      24.875  44.506  50.862  1.00  0.00     0.115 A 
HETATM   23  C   UNL     1      25.187  45.826  50.467  1.00  0.00     0.212 A 
HETATM   24  N   UNL     1      24.320  46.325  49.587  1.00  0.00    -0.145 NA
HETATM   25  N   UNL     1      23.450  45.314  49.403  1.00  0.00    -0.274 N 
HETATM   26  C   UNL     1      22.353  45.503  48.480  1.00  0.00     0.180 C 
HETATM   27  C   UNL     1      23.719  44.201  50.167  1.00  0.00     0.057 A 
HETATM   28  C   UNL     1      22.897  42.965  50.146  1.00  0.00     0.072 C 
BRANCH  23  29
HETATM   29  O   UNL     1      26.123  46.637  51.000  1.00  0.00    -0.337 OA
HETATM   30  C   UNL     1      26.364  47.785  50.198  1.00  0.00     0.212 C 
ENDBRANCH  23  29
ENDBRANCH  18  22
ENDBRANCH   1  16
TORSDOF 5
ENDMDL
MODEL 4
REMARK VINA RESULT:      -9.1      2.168      3.053
REMARK  5 active torsions:
REMARK  status: ('A' for Active; 'I' for Inactive)
REMARK    1  A    between atoms: C_7  and  C_8 
REMARK    2  A    between atoms: C_8  and  C_9 
REMARK    3  A    between atoms: C_9  and  N_10 
REMARK       I    between atoms: N_10  and  C_11 
REMARK       I    between atoms: C_11  and  N_12 
REMARK    4  A    between atoms: N_12  and  C_13 
REMARK    5  A    between atoms: C_14  and  O_15 
ROOT
HETATM    1  C   UNL     1      25.380  44.748  52.804  1.00  0.00     0.129 C 
ENDROOT
BRANCH   1   2
HETATM    2  C   UNL     1      26.886  45.007  52.686  1.00  0.00     0.061 C 
BRANCH   2   3
HETATM    3  C   UNL     1      27.491  45.593  53.930  1.00  0.00    -0.022 A 
HETATM    4  C   UNL     1      27.070  46.737  54.593  1.00  0.00     0.013 A 
HETATM    5  C   UNL     1      25.965  47.685  54.293  1.00  0.00     0.068 C 
HETATM    6  N   UNL     1      27.876  46.908  55.691  1.00  0.00    -0.356 N 
HETATM    7  H   UNL     1      27.800  47.656  56.369  1.00  0.00     0.166 HD
HETATM    8  C   UNL     1      28.811  45.905  55.758  1.00  0.00     0.082 A 
HETATM    9  C   UNL     1      28.603  45.066  54.666  1.00  0.00     0.005 A 
HETATM   10  C   UNL     1      29.818  45.678  56.698  1.00  0.00     0.146 A 
HETATM   11  C   UNL     1      29.450  43.948  54.514  1.00  0.00     0.056 A 
HETATM   12  C   UNL     1      30.455  43.727  55.461  1.00  0.00     0.120 A 
HETATM   13  C   UNL     1      30.646  44.572  56.543  1.00  0.00     0.086 A 
HETATM   14  F   UNL     1      31.258  42.662  55.316  1.00  0.00    -0.206 F 
HETATM   15  F   UNL     1      29.988  46.506  57.736  1.00  0.00    -0.204 F 
ENDBRANCH   2   3
ENDBRANCH   1   2
BRANCH   1  16
HETATM   16  N   UNL     1      24.782  44.309  51.551  1.00  0.00    -0.343 N 
HETATM   17  C   UNL     1      24.561  45.126  50.474  1.00  0.00     0.320 C 
HETATM   18  N   UNL     1      24.256  46.422  50.791  1.00  0.00    -0.303 N 
HETATM   19  O   UNL     1      24.612  44.640  49.349  1.00  0.00    -0.247 OA
HETATM   20  H   UNL     1      23.711  46.555  51.628  1.00  0.00     0.171 HD
HETATM   21  H   UNL     1      25.096  43.404  51.213  1.00  0.00     0.164 HD
BRANCH  18  22
HETATM   22  C   UNL     1      24.266  47.456  49.871  1.00  0.00     0.115 A 
HETATM   23  C   UNL     1      23.232  47.991  49.070  1.00  0.00     0.212 A 
HETATM   24  N   UNL     1      23.646  48.975  48.273  1.00  0.00    -0.145 NA
HETATM   25  N   UNL     1      24.954  49.085  48.572  1.00  0.00    -0.274 N 
HETATM   26  C   UNL     1      25.740  50.088  47.889  1.00  0.00     0.180 C 
HETATM   27  C   UNL     1      25.391  48.176  49.510  1.00  0.00     0.057 A 
HETATM   28  C   UNL     1      26.791  48.094  49.993  1.00  0.00     0.072 C 
BRANCH  23  29
HETATM   29  O   UNL     1      21.982  47.506  48.921  1.00  0.00    -0.337 OA
HETATM   30  C   UNL     1      21.009  48.538  48.841  1.00  0.00     0.212 C 
ENDBRANCH  23  29
ENDBRANCH  18  22
ENDBRANCH   1  16
TORSDOF 5
ENDMDL
MODEL 5
REMARK VINA RESULT:      -8.8      2.625      3.937
REMARK  5 active torsions:
REMARK  status: ('A' for Active; 'I' for Inactive)
REMARK    1  A    between atoms: C_7  and  C_8 
REMARK    2  A    between atoms: C_8  and  C_9 
REMARK    3  A    between atoms: C_9  and  N_10 
REMARK       I    between atoms: N_10  and  C_11 
REMARK       I    between atoms: C_11  and  N_12 
REMARK    4  A    between atoms: N_12  and  C_13 
REMARK    5  A    between atoms: C_14  and  O_15 
ROOT
HETATM    1  C   UNL     1      27.956  41.967  53.591  1.00  0.00     0.129 C 
ENDROOT
BRANCH   1   2
HETATM    2  C   UNL     1      28.783  43.205  53.232  1.00  0.00     0.061 C 
BRANCH   2   3
HETATM    3  C   UNL     1      28.902  44.192  54.359  1.00  0.00    -0.022 A 
HETATM    4  C   UNL     1      28.125  45.327  54.548  1.00  0.00     0.013 A 
HETATM    5  C   UNL     1      27.010  45.889  53.742  1.00  0.00     0.068 C 
HETATM    6  N   UNL     1      28.544  45.935  55.705  1.00  0.00    -0.356 N 
HETATM    7  H   UNL     1      28.155  46.781  56.102  1.00  0.00     0.166 HD
HETATM    8  C   UNL     1      29.575  45.227  56.271  1.00  0.00     0.082 A 
HETATM    9  C   UNL     1      29.829  44.130  55.449  1.00  0.00     0.005 A 
HETATM   10  C   UNL     1      30.295  45.470  57.442  1.00  0.00     0.146 A 
HETATM   11  C   UNL     1      30.858  43.242  55.825  1.00  0.00     0.056 A 
HETATM   12  C   UNL     1      31.574  43.492  57.000  1.00  0.00     0.120 A 
HETATM   13  C   UNL     1      31.305  44.587  57.806  1.00  0.00     0.086 A 
HETATM   14  F   UNL     1      32.550  42.644  57.356  1.00  0.00    -0.206 F 
HETATM   15  F   UNL     1      30.022  46.534  58.207  1.00  0.00    -0.204 F 
ENDBRANCH   2   3
ENDBRANCH   1   2
BRANCH   1  16
HETATM   16  N   UNL     1      28.557  40.728  53.116  1.00  0.00    -0.343 N 
HETATM   17  C   UNL     1      28.477  40.279  51.825  1.00  0.00     0.320 C 
HETATM   18  N   UNL     1      27.311  40.594  51.179  1.00  0.00    -0.303 N 
HETATM   19  O   UNL     1      29.406  39.615  51.376  1.00  0.00    -0.247 OA
HETATM   20  H   UNL     1      26.481  40.602  51.748  1.00  0.00     0.171 HD
HETATM   21  H   UNL     1      29.488  40.533  53.471  1.00  0.00     0.164 HD
BRANCH  18  22
HETATM   22  C   UNL     1      27.141  40.476  49.810  1.00  0.00     0.115 A 
HETATM   23  C   UNL     1      27.134  41.455  48.792  1.00  0.00     0.212 A 
HETATM   24  N   UNL     1      26.905  40.946  47.582  1.00  0.00    -0.145 NA
HETATM   25  N   UNL     1      26.776  39.627  47.820  1.00  0.00    -0.274 N 
HETATM   26  C   UNL     1      26.525  38.743  46.705  1.00  0.00     0.180 C 
HETATM   27  C   UNL     1      26.882  39.288  49.150  1.00  0.00     0.057 A 
HETATM   28  C   UNL     1      26.765  37.899  49.661  1.00  0.00     0.072 C 
BRANCH  23  29
HETATM   29  O   UNL     1      27.161  42.794  48.948  1.00  0.00    -0.337 OA
HETATM   30  C   UNL     1      25.916  43.311  49.398  1.00  0.00     0.212 C 
ENDBRANCH  23  29
ENDBRANCH  18  22
ENDBRANCH   1  16
TORSDOF 5
ENDMDL
MODEL 6
REMARK VINA RESULT:      -8.7      2.377      3.560
REMARK  5 active torsions:
REMARK  status: ('A' for Active; 'I' for Inactive)
REMARK    1  A    between atoms: C_7  and  C_8 
REMARK    2  A    between atoms: C_8  and  C_9 
REMARK    3  A    between atoms: C_9  and  N_10 
REMARK       I    between atoms: N_10  and  C_11 
REMARK       I    between atoms: C_11  and  N_12 
REMARK    4  A    between atoms: N_12  and  C_13 
REMARK    5  A    between atoms: C_14  and  O_15 
ROOT
HETATM    1  C   UNL     1      25.234  44.886  52.678  1.00  0.00     0.129 C 
ENDROOT
BRANCH   1   2
HETATM    2  C   UNL     1      26.766  44.878  52.639  1.00  0.00     0.061 C 
BRANCH   2   3
HETATM    3  C   UNL     1      27.398  45.494  53.856  1.00  0.00    -0.022 A 
HETATM    4  C   UNL     1      26.987  46.651  54.503  1.00  0.00     0.013 A 
HETATM    5  C   UNL     1      25.871  47.588  54.208  1.00  0.00     0.068 C 
HETATM    6  N   UNL     1      27.818  46.850  55.578  1.00  0.00    -0.356 N 
HETATM    7  H   UNL     1      27.755  47.612  56.240  1.00  0.00     0.166 HD
HETATM    8  C   UNL     1      28.759  45.853  55.644  1.00  0.00     0.082 A 
HETATM    9  C   UNL     1      28.529  44.988  54.576  1.00  0.00     0.005 A 
HETATM   10  C   UNL     1      29.789  45.650  56.564  1.00  0.00     0.146 A 
HETATM   11  C   UNL     1      29.378  43.871  54.429  1.00  0.00     0.056 A 
HETATM   12  C   UNL     1      30.406  43.675  55.356  1.00  0.00     0.120 A 
HETATM   13  C   UNL     1      30.619  44.545  56.414  1.00  0.00     0.086 A 
HETATM   14  F   UNL     1      31.210  42.611  55.214  1.00  0.00    -0.206 F 
HETATM   15  F   UNL     1      29.981  46.502  57.580  1.00  0.00    -0.204 F 
ENDBRANCH   2   3
ENDBRANCH   1   2
BRANCH   1  16
HETATM   16  N   UNL     1      24.635  44.553  51.393  1.00  0.00    -0.343 N 
HETATM   17  C   UNL     1      24.513  45.430  50.349  1.00  0.00     0.320 C 
HETATM   18  N   UNL     1      24.312  46.734  50.715  1.00  0.00    -0.303 N 
HETATM   19  O   UNL     1      24.552  44.989  49.205  1.00  0.00    -0.247 OA
HETATM   20  H   UNL     1      23.758  46.878  51.543  1.00  0.00     0.171 HD
HETATM   21  H   UNL     1      24.878  43.639  51.024  1.00  0.00     0.164 HD
BRANCH  18  22
HETATM   22  C   UNL     1      24.434  47.800  49.840  1.00  0.00     0.115 A 
HETATM   23  C   UNL     1      25.564  48.559  49.461  1.00  0.00     0.212 A 
HETATM   24  N   UNL     1      25.270  49.539  48.607  1.00  0.00    -0.145 NA
HETATM   25  N   UNL     1      23.943  49.402  48.424  1.00  0.00    -0.274 N 
HETATM   26  C   UNL     1      23.270  50.313  47.526  1.00  0.00     0.180 C 
HETATM   27  C   UNL     1      23.380  48.386  49.163  1.00  0.00     0.057 A 
HETATM   28  C   UNL     1      21.935  48.048  49.138  1.00  0.00     0.072 C 
BRANCH  23  29
HETATM   29  O   UNL     1      26.803  48.497  49.989  1.00  0.00    -0.337 OA
HETATM   30  C   UNL     1      27.815  48.470  48.992  1.00  0.00     0.212 C 
ENDBRANCH  23  29
ENDBRANCH  18  22
ENDBRANCH   1  16
TORSDOF 5
ENDMDL
MODEL 7
REMARK VINA RESULT:      -8.6      2.487      3.732
REMARK  5 active torsions:
REMARK  status: ('A' for Active; 'I' for Inactive)
REMARK    1  A    between atoms: C_7  and  C_8 
REMARK    2  A    between atoms: C_8  and  C_9 
REMARK    3  A    between atoms: C_9  and  N_10 
REMARK       I    between atoms: N_10  and  C_11 
REMARK       I    between atoms: C_11  and  N_12 
REMARK    4  A    between atoms: N_12  and  C_13 
REMARK    5  A    between atoms: C_14  and  O_15 
ROOT
HETATM    1  C   UNL     1      26.014  46.536  52.335  1.00  0.00     0.129 C 
ENDROOT
BRANCH   1   2
HETATM    2  C   UNL     1      25.865  45.844  53.695  1.00  0.00     0.061 C 
BRANCH   2   3
HETATM    3  C   UNL     1      27.125  45.857  54.513  1.00  0.00    -0.022 A 
HETATM    4  C   UNL     1      27.529  46.854  55.391  1.00  0.00     0.013 A 
HETATM    5  C   UNL     1      26.887  48.141  55.765  1.00  0.00     0.068 C 
HETATM    6  N   UNL     1      28.722  46.465  55.949  1.00  0.00    -0.356 N 
HETATM    7  H   UNL     1      29.252  46.988  56.633  1.00  0.00     0.166 HD
HETATM    8  C   UNL     1      29.105  45.243  55.454  1.00  0.00     0.082 A 
HETATM    9  C   UNL     1      28.129  44.835  54.546  1.00  0.00     0.005 A 
HETATM   10  C   UNL     1      30.232  44.471  55.741  1.00  0.00     0.146 A 
HETATM   11  C   UNL     1      28.301  43.594  53.898  1.00  0.00     0.056 A 
HETATM   12  C   UNL     1      29.432  42.827  54.193  1.00  0.00     0.120 A 
HETATM   13  C   UNL     1      30.391  43.248  55.100  1.00  0.00     0.086 A 
HETATM   14  F   UNL     1      29.592  41.646  53.576  1.00  0.00    -0.206 F 
HETATM   15  F   UNL     1      31.149  44.895  56.620  1.00  0.00    -0.204 F 
ENDBRANCH   2   3
ENDBRANCH   1   2
BRANCH   1  16
HETATM   16  N   UNL     1      25.982  45.601  51.219  1.00  0.00    -0.343 N 
HETATM   17  C   UNL     1      25.252  45.792  50.075  1.00  0.00     0.320 C 
HETATM   18  N   UNL     1      24.070  46.459  50.253  1.00  0.00    -0.303 N 
HETATM   19  O   UNL     1      25.680  45.329  49.023  1.00  0.00    -0.247 OA
HETATM   20  H   UNL     1      23.588  46.277  51.118  1.00  0.00     0.171 HD
HETATM   21  H   UNL     1      26.876  45.191  50.970  1.00  0.00     0.164 HD
BRANCH  18  22
HETATM   22  C   UNL     1      23.327  46.987  49.211  1.00  0.00     0.115 A 
HETATM   23  C   UNL     1      23.296  48.289  48.666  1.00  0.00     0.212 A 
HETATM   24  N   UNL     1      22.413  48.418  47.675  1.00  0.00    -0.145 NA
HETATM   25  N   UNL     1      21.882  47.185  47.573  1.00  0.00    -0.274 N 
HETATM   26  C   UNL     1      20.871  46.947  46.567  1.00  0.00     0.180 C 
HETATM   27  C   UNL     1      22.375  46.287  48.492  1.00  0.00     0.057 A 
HETATM   28  C   UNL     1      21.937  44.872  48.583  1.00  0.00     0.072 C 
BRANCH  23  29
HETATM   29  O   UNL     1      23.911  49.389  49.144  1.00  0.00    -0.337 OA
HETATM   30  C   UNL     1      24.869  49.912  48.234  1.00  0.00     0.212 C 
ENDBRANCH  23  29
ENDBRANCH  18  22
ENDBRANCH   1  16
TORSDOF 5
ENDMDL
MODEL 8
REMARK VINA RESULT:      -8.5      2.533      4.208
REMARK  5 active torsions:
REMARK  status: ('A' for Active; 'I' for Inactive)
REMARK    1  A    between atoms: C_7  and  C_8 
REMARK    2  A    between atoms: C_8  and  C_9 
REMARK    3  A    between atoms: C_9  and  N_10 
REMARK       I    between atoms: N_10  and  C_11 
REMARK       I    between atoms: C_11  and  N_12 
REMARK    4  A    between atoms: N_12  and  C_13 
REMARK    5  A    between atoms: C_14  and  O_15 
ROOT
HETATM    1  C   UNL     1      25.829  47.187  53.128  1.00  0.00     0.129 C 
ENDROOT
BRANCH   1   2
HETATM    2  C   UNL     1      25.655  45.902  53.946  1.00  0.00     0.061 C 
BRANCH   2   3
HETATM    3  C   UNL     1      26.830  44.970  53.851  1.00  0.00    -0.022 A 
HETATM    4  C   UNL     1      26.984  43.927  52.947  1.00  0.00     0.013 A 
HETATM    5  C   UNL     1      26.090  43.433  51.868  1.00  0.00     0.068 C 
HETATM    6  N   UNL     1      28.204  43.343  53.184  1.00  0.00    -0.356 N 
HETATM    7  H   UNL     1      28.594  42.561  52.673  1.00  0.00     0.166 HD
HETATM    8  C   UNL     1      28.845  43.978  54.219  1.00  0.00     0.082 A 
HETATM    9  C   UNL     1      28.008  44.999  54.665  1.00  0.00     0.005 A 
HETATM   10  C   UNL     1      30.094  43.728  54.790  1.00  0.00     0.146 A 
HETATM   11  C   UNL     1      28.452  45.803  55.736  1.00  0.00     0.056 A 
HETATM   12  C   UNL     1      29.706  45.547  56.300  1.00  0.00     0.120 A 
HETATM   13  C   UNL     1      30.525  44.527  55.842  1.00  0.00     0.086 A 
HETATM   14  F   UNL     1      30.126  46.314  57.317  1.00  0.00    -0.206 F 
HETATM   15  F   UNL     1      30.871  42.737  54.335  1.00  0.00    -0.204 F 
ENDBRANCH   2   3
ENDBRANCH   1   2
BRANCH   1  16
HETATM   16  N   UNL     1      26.519  46.963  51.865  1.00  0.00    -0.343 N 
HETATM   17  C   UNL     1      25.941  47.120  50.633  1.00  0.00     0.320 C 
HETATM   18  N   UNL     1      24.609  46.810  50.581  1.00  0.00    -0.303 N 
HETATM   19  O   UNL     1      26.648  47.474  49.695  1.00  0.00    -0.247 OA
HETATM   20  H   UNL     1      24.310  46.050  51.170  1.00  0.00     0.171 HD
HETATM   21  H   UNL     1      27.472  47.309  51.824  1.00  0.00     0.164 HD
BRANCH  18  22
HETATM   22  C   UNL     1      23.787  47.153  49.521  1.00  0.00     0.115 A 
HETATM   23  C   UNL     1      23.463  48.414  48.973  1.00  0.00     0.212 A 
HETATM   24  N   UNL     1      22.598  48.336  47.962  1.00  0.00    -0.145 NA
HETATM   25  N   UNL     1      22.372  47.013  47.850  1.00  0.00    -0.274 N 
HETATM   26  C   UNL     1      21.468  46.549  46.822  1.00  0.00     0.180 C 
HETATM   27  C   UNL     1      23.041  46.252  48.782  1.00  0.00     0.057 A 
HETATM   28  C   UNL     1      22.944  44.773  48.866  1.00  0.00     0.072 C 
BRANCH  23  29
HETATM   29  O   UNL     1      23.794  49.625  49.463  1.00  0.00    -0.337 OA
HETATM   30  C   UNL     1      22.743  50.571  49.319  1.00  0.00     0.212 C 
ENDBRANCH  23  29
ENDBRANCH  18  22
ENDBRANCH   1  16
TORSDOF 5
ENDMDL
MODEL 9
REMARK VINA RESULT:      -8.5      3.020      3.838
REMARK  5 active torsions:
REMARK  status: ('A' for Active; 'I' for Inactive)
REMARK    1  A    between atoms: C_7  and  C_8 
REMARK    2  A    between atoms: C_8  and  C_9 
REMARK    3  A    between atoms: C_9  and  N_10 
REMARK       I    between atoms: N_10  and  C_11 
REMARK       I    between atoms: C_11  and  N_12 
REMARK    4  A    between atoms: N_12  and  C_13 
REMARK    5  A    between atoms: C_14  and  O_15 
ROOT
HETATM    1  C   UNL     1      28.659  41.133  52.825  1.00  0.00     0.129 C 
ENDROOT
BRANCH   1   2
HETATM    2  C   UNL     1      29.453  42.420  52.582  1.00  0.00     0.061 C 
BRANCH   2   3
HETATM    3  C   UNL     1      29.099  43.530  53.532  1.00  0.00    -0.022 A 
HETATM    4  C   UNL     1      28.051  44.430  53.395  1.00  0.00     0.013 A 
HETATM    5  C   UNL     1      27.024  44.575  52.330  1.00  0.00     0.068 C 
HETATM    6  N   UNL     1      28.066  45.261  54.488  1.00  0.00    -0.356 N 
HETATM    7  H   UNL     1      27.413  46.013  54.667  1.00  0.00     0.166 HD
HETATM    8  C   UNL     1      29.097  44.925  55.330  1.00  0.00     0.082 A 
HETATM    9  C   UNL     1      29.769  43.847  54.758  1.00  0.00     0.005 A 
HETATM   10  C   UNL     1      29.482  45.488  56.548  1.00  0.00     0.146 A 
HETATM   11  C   UNL     1      30.881  43.316  55.445  1.00  0.00     0.056 A 
HETATM   12  C   UNL     1      31.259  43.885  56.665  1.00  0.00     0.120 A 
HETATM   13  C   UNL     1      30.576  44.956  57.219  1.00  0.00     0.086 A 
HETATM   14  F   UNL     1      32.315  43.376  57.317  1.00  0.00    -0.206 F 
HETATM   15  F   UNL     1      28.811  46.524  57.068  1.00  0.00    -0.204 F 
ENDBRANCH   2   3
ENDBRANCH   1   2
BRANCH   1  16
HETATM   16  N   UNL     1      29.105  40.027  51.988  1.00  0.00    -0.343 N 
HETATM   17  C   UNL     1      28.546  39.699  50.782  1.00  0.00     0.320 C 
HETATM   18  N   UNL     1      27.200  39.935  50.690  1.00  0.00    -0.303 N 
HETATM   19  O   UNL     1      29.262  39.199  49.920  1.00  0.00    -0.247 OA
HETATM   20  H   UNL     1      26.669  39.788  51.533  1.00  0.00     0.171 HD
HETATM   21  H   UNL     1      30.111  39.911  51.923  1.00  0.00     0.164 HD
BRANCH  18  22
HETATM   22  C   UNL     1      26.505  39.932  49.493  1.00  0.00     0.115 A 
HETATM   23  C   UNL     1      26.226  38.883  48.589  1.00  0.00     0.212 A 
HETATM   24  N   UNL     1      25.546  39.287  47.516  1.00  0.00    -0.145 NA
HETATM   25  N   UNL     1      25.373  40.604  47.738  1.00  0.00    -0.274 N 
HETATM   26  C   UNL     1      24.648  41.382  46.759  1.00  0.00     0.180 C 
HETATM   27  C   UNL     1      25.954  41.055  48.902  1.00  0.00     0.057 A 
HETATM   28  C   UNL     1      25.907  42.467  49.356  1.00  0.00     0.072 C 
BRANCH  23  29
HETATM   29  O   UNL     1      26.709  37.625  48.625  1.00  0.00    -0.337 OA
HETATM   30  C   UNL     1      27.494  37.314  47.482  1.00  0.00     0.212 C 
ENDBRANCH  23  29
ENDBRANCH  18  22
ENDBRANCH   1  16
TORSDOF 5
ENDMDL
MODEL 10
REMARK VINA RESULT:      -8.5      2.692      4.250
REMARK  5 active torsions:
REMARK  status: ('A' for Active; 'I' for Inactive)
REMARK    1  A    between atoms: C_7  and  C_8 
REMARK    2  A    between atoms: C_8  and  C_9 
REMARK    3  A    between atoms: C_9  and  N_10 
REMARK       I    between atoms: N_10  and  C_11 
REMARK       I    between atoms: C_11  and  N_12 
REMARK    4  A    between atoms: N_12  and  C_13 
REMARK    5  A    between atoms: C_14  and  O_15 
ROOT
HETATM    1  C   UNL     1      26.786  44.656  51.597  1.00  0.00     0.129 C 
ENDROOT
BRANCH   1   2
HETATM    2  C   UNL     1      26.623  43.586  52.682  1.00  0.00     0.061 C 
BRANCH   2   3
HETATM    3  C   UNL     1      27.910  43.235  53.374  1.00  0.00    -0.022 A 
HETATM    4  C   UNL     1      28.715  42.135  53.111  1.00  0.00     0.013 A 
HETATM    5  C   UNL     1      28.561  41.027  52.132  1.00  0.00     0.068 C 
HETATM    6  N   UNL     1      29.802  42.200  53.947  1.00  0.00    -0.356 N 
HETATM    7  H   UNL     1      30.565  41.536  53.977  1.00  0.00     0.166 HD
HETATM    8  C   UNL     1      29.723  43.312  54.748  1.00  0.00     0.082 A 
HETATM    9  C   UNL     1      28.545  43.981  54.419  1.00  0.00     0.005 A 
HETATM   10  C   UNL     1      30.599  43.776  55.730  1.00  0.00     0.146 A 
HETATM   11  C   UNL     1      28.238  45.169  55.116  1.00  0.00     0.056 A 
HETATM   12  C   UNL     1      29.122  45.627  56.097  1.00  0.00     0.120 A 
HETATM   13  C   UNL     1      30.290  44.949  56.409  1.00  0.00     0.086 A 
HETATM   14  F   UNL     1      28.829  46.758  56.756  1.00  0.00    -0.206 F 
HETATM   15  F   UNL     1      31.722  43.106  56.019  1.00  0.00    -0.204 F 
ENDBRANCH   2   3
ENDBRANCH   1   2
BRANCH   1  16
HETATM   16  N   UNL     1      26.477  45.997  52.075  1.00  0.00    -0.343 N 
HETATM   17  C   UNL     1      25.584  46.843  51.473  1.00  0.00     0.320 C 
HETATM   18  N   UNL     1      25.514  46.727  50.111  1.00  0.00    -0.303 N 
HETATM   19  O   UNL     1      24.968  47.640  52.173  1.00  0.00    -0.247 OA
HETATM   20  H   UNL     1      26.378  46.512  49.642  1.00  0.00     0.171 HD
HETATM   21  H   UNL     1      26.384  46.088  53.082  1.00  0.00     0.164 HD
BRANCH  18  22
HETATM   22  C   UNL     1      24.500  47.283  49.349  1.00  0.00     0.115 A 
HETATM   23  C   UNL     1      24.329  48.594  48.853  1.00  0.00     0.212 A 
HETATM   24  N   UNL     1      23.191  48.752  48.178  1.00  0.00    -0.145 NA
HETATM   25  N   UNL     1      22.629  47.529  48.229  1.00  0.00    -0.274 N 
HETATM   26  C   UNL     1      21.357  47.323  47.575  1.00  0.00     0.180 C 
HETATM   27  C   UNL     1      23.361  46.609  48.946  1.00  0.00     0.057 A 
HETATM   28  C   UNL     1      22.943  45.200  49.151  1.00  0.00     0.072 C 
BRANCH  23  29
HETATM   29  O   UNL     1      25.082  49.677  49.133  1.00  0.00    -0.337 OA
HETATM   30  C   UNL     1      26.200  49.797  48.264  1.00  0.00     0.212 C 
ENDBRANCH  23  29
ENDBRANCH  18  22
ENDBRANCH   1  16
TORSDOF 5
ENDMDL
