MODEL 1
REMARK VINA RESULT:      -9.8      0.000      0.000
REMARK  5 active torsions:
REMARK  status: ('A' for Active; 'I' for Inactive)
REMARK    1  A    between atoms: C_3  and  C_4 
REMARK    2  A    between atoms: C_9  and  C_10 
REMARK    3  A    between atoms: C_10  and  C_11 
REMARK       I    between atoms: C_11  and  N_12 
REMARK    4  A    between atoms: N_12  and  C_13 
REMARK    5  A    between atoms: C_20  and  C_21 
REMARK       I    between atoms: C_21  and  N_22 
ROOT
HETATM    1  C   UNL     1      25.691  47.681  50.503  1.00  0.00     0.035 A 
HETATM    2  C   UNL     1      24.406  47.981  50.029  1.00  0.00     0.046 A 
HETATM    3  C   UNL     1      24.247  48.904  48.971  1.00  0.00     0.030 A 
HETATM    4  C   UNL     1      25.378  49.500  48.427  1.00  0.00     0.063 A 
HETATM    5  N   UNL     1      24.914  50.325  47.440  1.00  0.00    -0.277 N 
HETATM    6  H   UNL     1      25.462  50.919  46.828  1.00  0.00     0.189 HD
HETATM    7  N   UNL     1      23.579  50.318  47.291  1.00  0.00    -0.168 NA
HETATM    8  C   UNL     1      23.152  49.443  48.230  1.00  0.00     0.156 A 
HETATM    9  C   UNL     1      26.672  49.230  48.875  1.00  0.00     0.034 A 
HETATM   10  C   UNL     1      26.803  48.307  49.922  1.00  0.00     0.032 A 
ENDROOT
BRANCH   1  11
HETATM   11  N   UNL     1      25.950  46.745  51.529  1.00  0.00    -0.327 N 
HETATM   12  C   UNL     1      25.682  46.885  52.881  1.00  0.00     0.226 C 
HETATM   13  O   UNL     1      25.293  47.903  53.444  1.00  0.00    -0.273 OA
HETATM   14  H   UNL     1      26.406  45.887  51.245  1.00  0.00     0.169 HD
BRANCH  12  15
HETATM   15  C   UNL     1      25.927  45.608  53.672  1.00  0.00     0.141 C 
BRANCH  15  16
HETATM   16  C   UNL     1      27.259  45.523  54.383  1.00  0.00    -0.049 A 
HETATM   17  C   UNL     1      28.070  44.395  54.173  1.00  0.00     0.023 A 
HETATM   18  C   UNL     1      29.282  44.225  54.865  1.00  0.00     0.048 A 
HETATM   19  C   UNL     1      29.685  45.211  55.775  1.00  0.00     0.016 A 
HETATM   20  C   UNL     1      28.883  46.329  56.002  1.00  0.00     0.001 A 
HETATM   21  C   UNL     1      27.674  46.478  55.320  1.00  0.00     0.007 A 
BRANCH  18  22
HETATM   22  C   UNL     1      30.127  43.000  54.619  1.00  0.00     0.417 C 
HETATM   23  F   UNL     1      31.009  42.731  55.622  1.00  0.00    -0.166 F 
HETATM   24  F   UNL     1      29.381  41.869  54.467  1.00  0.00    -0.166 F 
HETATM   25  F   UNL     1      30.873  43.107  53.484  1.00  0.00    -0.166 F 
ENDBRANCH  18  22
ENDBRANCH  15  16
ENDBRANCH  12  15
ENDBRANCH   1  11
BRANCH   8  26
HETATM   26  C   UNL     1      21.723  49.141  48.394  1.00  0.00     0.270 C 
HETATM   27  N   UNL     1      21.231  49.426  49.639  1.00  0.00    -0.365 N 
HETATM   28  H   UNL     1      21.858  49.814  50.333  1.00  0.00     0.159 HD
HETATM   29  H   UNL     1      20.258  49.254  49.842  1.00  0.00     0.159 HD
HETATM   30  O   UNL     1      21.000  48.677  47.518  1.00  0.00    -0.266 OA
ENDBRANCH   8  26
TORSDOF 5
ENDMDL
MODEL 2
REMARK VINA RESULT:      -9.7      1.217      1.796
REMARK  5 active torsions:
REMARK  status: ('A' for Active; 'I' for Inactive)
REMARK    1  A    between atoms: C_3  and  C_4 
REMARK    2  A    between atoms: C_9  and  C_10 
REMARK    3  A    between atoms: C_10  and  C_11 
REMARK       I    between atoms: C_11  and  N_12 
REMARK    4  A    between atoms: N_12  and  C_13 
REMARK    5  A    between atoms: C_20  and  C_21 
REMARK       I    between atoms: C_21  and  N_22 
ROOT
HETATM    1  C   UNL     1      25.866  47.223  50.532  1.00  0.00     0.035 A 
HETATM    2  C   UNL     1      24.603  47.580  50.041  1.00  0.00     0.046 A 
HETATM    3  C   UNL     1      24.492  48.601  49.070  1.00  0.00     0.030 A 
HETATM    4  C   UNL     1      25.647  49.232  48.627  1.00  0.00     0.063 A 
HETATM    5  N   UNL     1      25.228  50.152  47.706  1.00  0.00    -0.277 N 
HETATM    6  H   UNL     1      25.804  50.794  47.174  1.00  0.00     0.189 HD
HETATM    7  N   UNL     1      23.900  50.174  47.507  1.00  0.00    -0.168 NA
HETATM    8  C   UNL     1      23.430  49.219  48.343  1.00  0.00     0.156 A 
HETATM    9  C   UNL     1      26.921  48.907  49.096  1.00  0.00     0.034 A 
HETATM   10  C   UNL     1      27.004  47.888  50.055  1.00  0.00     0.032 A 
ENDROOT
BRANCH   1  11
HETATM   11  N   UNL     1      26.078  46.191  51.474  1.00  0.00    -0.327 N 
HETATM   12  C   UNL     1      26.320  46.330  52.832  1.00  0.00     0.226 C 
HETATM   13  O   UNL     1      26.522  47.381  53.431  1.00  0.00    -0.273 OA
HETATM   14  H   UNL     1      26.079  45.247  51.109  1.00  0.00     0.169 HD
BRANCH  12  15
HETATM   15  C   UNL     1      26.322  45.002  53.575  1.00  0.00     0.141 C 
BRANCH  15  16
HETATM   16  C   UNL     1      27.641  44.263  53.591  1.00  0.00    -0.049 A 
HETATM   17  C   UNL     1      28.478  44.391  54.713  1.00  0.00     0.023 A 
HETATM   18  C   UNL     1      29.748  43.790  54.751  1.00  0.00     0.048 A 
HETATM   19  C   UNL     1      30.178  43.044  53.645  1.00  0.00     0.016 A 
HETATM   20  C   UNL     1      29.363  42.921  52.520  1.00  0.00     0.001 A 
HETATM   21  C   UNL     1      28.109  43.536  52.489  1.00  0.00     0.007 A 
BRANCH  18  22
HETATM   22  C   UNL     1      30.623  43.950  55.969  1.00  0.00     0.417 C 
HETATM   23  F   UNL     1      30.079  44.742  56.935  1.00  0.00    -0.166 F 
HETATM   24  F   UNL     1      30.900  42.761  56.577  1.00  0.00    -0.166 F 
HETATM   25  F   UNL     1      31.831  44.503  55.669  1.00  0.00    -0.166 F 
ENDBRANCH  18  22
ENDBRANCH  15  16
ENDBRANCH  12  15
ENDBRANCH   1  11
BRANCH   8  26
HETATM   26  C   UNL     1      21.993  48.919  48.424  1.00  0.00     0.270 C 
HETATM   27  N   UNL     1      21.406  49.312  49.596  1.00  0.00    -0.365 N 
HETATM   28  H   UNL     1      21.976  49.768  50.296  1.00  0.00     0.159 HD
HETATM   29  H   UNL     1      20.421  49.151  49.738  1.00  0.00     0.159 HD
HETATM   30  O   UNL     1      21.342  48.370  47.541  1.00  0.00    -0.266 OA
ENDBRANCH   8  26
TORSDOF 5
ENDMDL
MODEL 3
REMARK VINA RESULT:      -9.6      6.148      8.344
REMARK  5 active torsions:
REMARK  status: ('A' for Active; 'I' for Inactive)
REMARK    1  A    between atoms: C_3  and  C_4 
REMARK    2  A    between atoms: C_9  and  C_10 
REMARK    3  A    between atoms: C_10  and  C_11 
REMARK       I    between atoms: C_11  and  N_12 
REMARK    4  A    between atoms: N_12  and  C_13 
REMARK    5  A    between atoms: C_20  and  C_21 
REMARK       I    between atoms: C_21  and  N_22 
ROOT
HETATM    1  C   UNL     1      27.488  41.754  51.078  1.00  0.00     0.035 A 
HETATM    2  C   UNL     1      28.249  40.580  50.988  1.00  0.00     0.046 A 
HETATM    3  C   UNL     1      27.777  39.498  50.210  1.00  0.00     0.030 A 
HETATM    4  C   UNL     1      26.559  39.625  49.554  1.00  0.00     0.063 A 
HETATM    5  N   UNL     1      26.377  38.441  48.895  1.00  0.00    -0.277 N 
HETATM    6  H   UNL     1      25.593  38.179  48.309  1.00  0.00     0.189 HD
HETATM    7  N   UNL     1      27.371  37.552  49.061  1.00  0.00    -0.168 NA
HETATM    8  C   UNL     1      28.246  38.192  49.872  1.00  0.00     0.156 A 
HETATM    9  C   UNL     1      25.773  40.777  49.623  1.00  0.00     0.034 A 
HETATM   10  C   UNL     1      26.265  41.837  50.397  1.00  0.00     0.032 A 
ENDROOT
BRANCH   1  11
HETATM   11  N   UNL     1      27.895  42.899  51.799  1.00  0.00    -0.327 N 
HETATM   12  C   UNL     1      27.733  43.140  53.154  1.00  0.00     0.226 C 
HETATM   13  O   UNL     1      27.087  42.457  53.942  1.00  0.00    -0.273 OA
HETATM   14  H   UNL     1      28.332  43.634  51.257  1.00  0.00     0.169 HD
BRANCH  12  15
HETATM   15  C   UNL     1      28.452  44.396  53.625  1.00  0.00     0.141 C 
BRANCH  15  16
HETATM   16  C   UNL     1      29.411  44.206  54.779  1.00  0.00    -0.049 A 
HETATM   17  C   UNL     1      29.295  45.042  55.903  1.00  0.00     0.023 A 
HETATM   18  C   UNL     1      30.207  44.963  56.970  1.00  0.00     0.048 A 
HETATM   19  C   UNL     1      31.244  44.024  56.907  1.00  0.00     0.016 A 
HETATM   20  C   UNL     1      31.378  43.198  55.791  1.00  0.00     0.001 A 
HETATM   21  C   UNL     1      30.475  43.297  54.730  1.00  0.00     0.007 A 
BRANCH  18  22
HETATM   22  C   UNL     1      30.056  45.877  58.161  1.00  0.00     0.417 C 
HETATM   23  F   UNL     1      31.037  46.817  58.259  1.00  0.00    -0.166 F 
HETATM   24  F   UNL     1      28.880  46.568  58.148  1.00  0.00    -0.166 F 
HETATM   25  F   UNL     1      30.071  45.196  59.341  1.00  0.00    -0.166 F 
ENDBRANCH  18  22
ENDBRANCH  15  16
ENDBRANCH  12  15
ENDBRANCH   1  11
BRANCH   8  26
HETATM   26  C   UNL     1      29.497  37.550  50.297  1.00  0.00     0.270 C 
HETATM   27  N   UNL     1      29.328  36.549  51.215  1.00  0.00    -0.365 N 
HETATM   28  H   UNL     1      28.390  36.325  51.523  1.00  0.00     0.159 HD
HETATM   29  H   UNL     1      30.132  36.049  51.561  1.00  0.00     0.159 HD
HETATM   30  O   UNL     1      30.613  37.852  49.887  1.00  0.00    -0.266 OA
ENDBRANCH   8  26
TORSDOF 5
ENDMDL
MODEL 4
REMARK VINA RESULT:      -9.3      5.561      7.935
REMARK  5 active torsions:
REMARK  status: ('A' for Active; 'I' for Inactive)
REMARK    1  A    between atoms: C_3  and  C_4 
REMARK    2  A    between atoms: C_9  and  C_10 
REMARK    3  A    between atoms: C_10  and  C_11 
REMARK       I    between atoms: C_11  and  N_12 
REMARK    4  A    between atoms: N_12  and  C_13 
REMARK    5  A    between atoms: C_20  and  C_21 
REMARK       I    between atoms: C_21  and  N_22 
ROOT
HETATM    1  C   UNL     1      26.626  41.321  50.927  1.00  0.00     0.035 A 
HETATM    2  C   UNL     1      27.676  40.392  50.935  1.00  0.00     0.046 A 
HETATM    3  C   UNL     1      27.782  39.446  49.891  1.00  0.00     0.030 A 
HETATM    4  C   UNL     1      26.831  39.458  48.878  1.00  0.00     0.063 A 
HETATM    5  N   UNL     1      27.195  38.449  48.029  1.00  0.00    -0.277 N 
HETATM    6  H   UNL     1      26.728  38.168  47.174  1.00  0.00     0.189 HD
HETATM    7  N   UNL     1      28.300  37.781  48.398  1.00  0.00    -0.168 NA
HETATM    8  C   UNL     1      28.677  38.387  49.548  1.00  0.00     0.156 A 
HETATM    9  C   UNL     1      25.770  40.364  48.838  1.00  0.00     0.034 A 
HETATM   10  C   UNL     1      25.691  41.295  49.883  1.00  0.00     0.032 A 
ENDROOT
BRANCH   1  11
HETATM   11  N   UNL     1      26.460  42.326  51.906  1.00  0.00    -0.327 N 
HETATM   12  C   UNL     1      26.825  43.660  51.811  1.00  0.00     0.226 C 
HETATM   13  O   UNL     1      27.476  44.173  50.907  1.00  0.00    -0.273 OA
HETATM   14  H   UNL     1      26.053  42.030  52.784  1.00  0.00     0.169 HD
BRANCH  12  15
HETATM   15  C   UNL     1      26.334  44.497  52.984  1.00  0.00     0.141 C 
BRANCH  15  16
HETATM   16  C   UNL     1      27.405  44.985  53.933  1.00  0.00    -0.049 A 
HETATM   17  C   UNL     1      28.501  44.149  54.208  1.00  0.00     0.023 A 
HETATM   18  C   UNL     1      29.486  44.518  55.140  1.00  0.00     0.048 A 
HETATM   19  C   UNL     1      29.370  45.749  55.798  1.00  0.00     0.016 A 
HETATM   20  C   UNL     1      28.280  46.582  55.543  1.00  0.00     0.001 A 
HETATM   21  C   UNL     1      27.299  46.197  54.626  1.00  0.00     0.007 A 
BRANCH  18  22
HETATM   22  C   UNL     1      30.648  43.596  55.415  1.00  0.00     0.417 C 
HETATM   23  F   UNL     1      30.381  42.639  56.348  1.00  0.00    -0.166 F 
HETATM   24  F   UNL     1      31.061  42.924  54.303  1.00  0.00    -0.166 F 
HETATM   25  F   UNL     1      31.743  44.266  55.871  1.00  0.00    -0.166 F 
ENDBRANCH  18  22
ENDBRANCH  15  16
ENDBRANCH  12  15
ENDBRANCH   1  11
BRANCH   8  26
HETATM   26  C   UNL     1      29.871  37.949  50.282  1.00  0.00     0.270 C 
HETATM   27  N   UNL     1      29.605  37.414  51.514  1.00  0.00    -0.365 N 
HETATM   28  H   UNL     1      28.642  37.354  51.820  1.00  0.00     0.159 HD
HETATM   29  H   UNL     1      30.365  37.082  52.088  1.00  0.00     0.159 HD
HETATM   30  O   UNL     1      31.021  38.035  49.864  1.00  0.00    -0.266 OA
ENDBRANCH   8  26
TORSDOF 5
ENDMDL
MODEL 5
REMARK VINA RESULT:      -9.2      1.953      2.948
REMARK  5 active torsions:
REMARK  status: ('A' for Active; 'I' for Inactive)
REMARK    1  A    between atoms: C_3  and  C_4 
REMARK    2  A    between atoms: C_9  and  C_10 
REMARK    3  A    between atoms: C_10  and  C_11 
REMARK       I    between atoms: C_11  and  N_12 
REMARK    4  A    between atoms: N_12  and  C_13 
REMARK    5  A    between atoms: C_20  and  C_21 
REMARK       I    between atoms: C_21  and  N_22 
ROOT
HETATM    1  C   UNL     1      25.638  46.409  51.610  1.00  0.00     0.035 A 
HETATM    2  C   UNL     1      25.066  47.499  50.940  1.00  0.00     0.046 A 
HETATM    3  C   UNL     1      24.113  47.274  49.921  1.00  0.00     0.030 A 
HETATM    4  C   UNL     1      23.770  45.965  49.603  1.00  0.00     0.063 A 
HETATM    5  N   UNL     1      22.843  46.067  48.603  1.00  0.00    -0.277 N 
HETATM    6  H   UNL     1      22.368  45.308  48.126  1.00  0.00     0.189 HD
HETATM    7  N   UNL     1      22.549  47.327  48.241  1.00  0.00    -0.168 NA
HETATM    8  C   UNL     1      23.326  48.086  49.048  1.00  0.00     0.156 A 
HETATM    9  C   UNL     1      24.321  44.855  50.245  1.00  0.00     0.034 A 
HETATM   10  C   UNL     1      25.259  45.107  51.256  1.00  0.00     0.032 A 
ENDROOT
BRANCH   1  11
HETATM   11  N   UNL     1      26.568  46.538  52.666  1.00  0.00    -0.327 N 
HETATM   12  C   UNL     1      26.403  46.144  53.984  1.00  0.00     0.226 C 
HETATM   13  O   UNL     1      25.366  45.734  54.496  1.00  0.00    -0.273 OA
HETATM   14  H   UNL     1      27.443  46.992  52.436  1.00  0.00     0.169 HD
BRANCH  12  15
HETATM   15  C   UNL     1      27.676  46.270  54.808  1.00  0.00     0.141 C 
BRANCH  15  16
HETATM   16  C   UNL     1      28.610  45.082  54.754  1.00  0.00    -0.049 A 
HETATM   17  C   UNL     1      29.489  44.860  55.828  1.00  0.00     0.023 A 
HETATM   18  C   UNL     1      30.432  43.818  55.798  1.00  0.00     0.048 A 
HETATM   19  C   UNL     1      30.484  42.983  54.674  1.00  0.00     0.016 A 
HETATM   20  C   UNL     1      29.627  43.201  53.596  1.00  0.00     0.001 A 
HETATM   21  C   UNL     1      28.704  44.250  53.631  1.00  0.00     0.007 A 
BRANCH  18  22
HETATM   22  C   UNL     1      31.364  43.609  56.966  1.00  0.00     0.417 C 
HETATM   23  F   UNL     1      31.287  44.587  57.911  1.00  0.00    -0.166 F 
HETATM   24  F   UNL     1      31.127  42.438  57.624  1.00  0.00    -0.166 F 
HETATM   25  F   UNL     1      32.670  43.560  56.583  1.00  0.00    -0.166 F 
ENDBRANCH  18  22
ENDBRANCH  15  16
ENDBRANCH  12  15
ENDBRANCH   1  11
BRANCH   8  26
HETATM   26  C   UNL     1      23.297  49.553  48.972  1.00  0.00     0.270 C 
HETATM   27  N   UNL     1      23.667  50.057  47.754  1.00  0.00    -0.365 N 
HETATM   28  H   UNL     1      23.922  49.410  47.018  1.00  0.00     0.159 HD
HETATM   29  H   UNL     1      23.673  51.054  47.609  1.00  0.00     0.159 HD
HETATM   30  O   UNL     1      22.973  50.295  49.893  1.00  0.00    -0.266 OA
ENDBRANCH   8  26
TORSDOF 5
ENDMDL
MODEL 6
REMARK VINA RESULT:      -9.2      2.918      3.927
REMARK  5 active torsions:
REMARK  status: ('A' for Active; 'I' for Inactive)
REMARK    1  A    between atoms: C_3  and  C_4 
REMARK    2  A    between atoms: C_9  and  C_10 
REMARK    3  A    between atoms: C_10  and  C_11 
REMARK       I    between atoms: C_11  and  N_12 
REMARK    4  A    between atoms: N_12  and  C_13 
REMARK    5  A    between atoms: C_20  and  C_21 
REMARK       I    between atoms: C_21  and  N_22 
ROOT
HETATM    1  C   UNL     1      25.119  43.612  51.265  1.00  0.00     0.035 A 
HETATM    2  C   UNL     1      24.967  44.973  50.967  1.00  0.00     0.046 A 
HETATM    3  C   UNL     1      24.065  45.372  49.955  1.00  0.00     0.030 A 
HETATM    4  C   UNL     1      23.349  44.396  49.273  1.00  0.00     0.063 A 
HETATM    5  N   UNL     1      22.573  45.077  48.376  1.00  0.00    -0.277 N 
HETATM    6  H   UNL     1      21.918  44.684  47.709  1.00  0.00     0.189 HD
HETATM    7  N   UNL     1      22.717  46.412  48.415  1.00  0.00    -0.168 NA
HETATM    8  C   UNL     1      23.636  46.611  49.388  1.00  0.00     0.156 A 
HETATM    9  C   UNL     1      23.477  43.032  49.538  1.00  0.00     0.034 A 
HETATM   10  C   UNL     1      24.375  42.663  50.549  1.00  0.00     0.032 A 
ENDROOT
BRANCH   1  11
HETATM   11  N   UNL     1      25.967  43.121  52.282  1.00  0.00    -0.327 N 
HETATM   12  C   UNL     1      27.344  43.259  52.368  1.00  0.00     0.226 C 
HETATM   13  O   UNL     1      28.084  43.718  51.504  1.00  0.00    -0.273 OA
HETATM   14  H   UNL     1      25.520  42.588  53.017  1.00  0.00     0.169 HD
BRANCH  12  15
HETATM   15  C   UNL     1      27.911  42.763  53.690  1.00  0.00     0.141 C 
BRANCH  15  16
HETATM   16  C   UNL     1      28.678  43.785  54.498  1.00  0.00    -0.049 A 
HETATM   17  C   UNL     1      29.699  43.345  55.358  1.00  0.00     0.023 A 
HETATM   18  C   UNL     1      30.393  44.240  56.190  1.00  0.00     0.048 A 
HETATM   19  C   UNL     1      30.058  45.600  56.148  1.00  0.00     0.016 A 
HETATM   20  C   UNL     1      29.038  46.048  55.310  1.00  0.00     0.001 A 
HETATM   21  C   UNL     1      28.345  45.146  54.499  1.00  0.00     0.007 A 
BRANCH  18  22
HETATM   22  C   UNL     1      31.481  43.734  57.104  1.00  0.00     0.417 C 
HETATM   23  F   UNL     1      31.270  42.468  57.559  1.00  0.00    -0.166 F 
HETATM   24  F   UNL     1      32.704  43.713  56.503  1.00  0.00    -0.166 F 
HETATM   25  F   UNL     1      31.627  44.511  58.213  1.00  0.00    -0.166 F 
ENDBRANCH  18  22
ENDBRANCH  15  16
ENDBRANCH  12  15
ENDBRANCH   1  11
BRANCH   8  26
HETATM   26  C   UNL     1      24.075  47.964  49.753  1.00  0.00     0.270 C 
HETATM   27  N   UNL     1      23.070  48.894  49.764  1.00  0.00    -0.365 N 
HETATM   28  H   UNL     1      22.131  48.596  49.534  1.00  0.00     0.159 HD
HETATM   29  H   UNL     1      23.279  49.850  50.008  1.00  0.00     0.159 HD
HETATM   30  O   UNL     1      25.229  48.275  50.033  1.00  0.00    -0.266 OA
ENDBRANCH   8  26
TORSDOF 5
ENDMDL
MODEL 7
REMARK VINA RESULT:      -9.1      1.938      2.726
REMARK  5 active torsions:
REMARK  status: ('A' for Active; 'I' for Inactive)
REMARK    1  A    between atoms: C_3  and  C_4 
REMARK    2  A    between atoms: C_9  and  C_10 
REMARK    3  A    between atoms: C_10  and  C_11 
REMARK       I    between atoms: C_11  and  N_12 
REMARK    4  A    between atoms: N_12  and  C_13 
REMARK    5  A    between atoms: C_20  and  C_21 
REMARK       I    between atoms: C_21  and  N_22 
ROOT
HETATM    1  C   UNL     1      25.835  46.217  51.774  1.00  0.00     0.035 A 
HETATM    2  C   UNL     1      24.987  47.081  51.068  1.00  0.00     0.046 A 
HETATM    3  C   UNL     1      24.188  46.576  50.018  1.00  0.00     0.030 A 
HETATM    4  C   UNL     1      24.270  45.225  49.705  1.00  0.00     0.063 A 
HETATM    5  N   UNL     1      23.396  45.039  48.670  1.00  0.00    -0.277 N 
HETATM    6  H   UNL     1      23.193  44.171  48.186  1.00  0.00     0.189 HD
HETATM    7  N   UNL     1      22.749  46.150  48.281  1.00  0.00    -0.168 NA
HETATM    8  C   UNL     1      23.227  47.110  49.106  1.00  0.00     0.156 A 
HETATM    9  C   UNL     1      25.106  44.335  50.381  1.00  0.00     0.034 A 
HETATM   10  C   UNL     1      25.884  44.860  51.422  1.00  0.00     0.032 A 
ENDROOT
BRANCH   1  11
HETATM   11  N   UNL     1      26.641  46.623  52.861  1.00  0.00    -0.327 N 
HETATM   12  C   UNL     1      26.376  46.456  54.212  1.00  0.00     0.226 C 
HETATM   13  O   UNL     1      25.330  46.043  54.702  1.00  0.00    -0.273 OA
HETATM   14  H   UNL     1      27.494  47.113  52.625  1.00  0.00     0.169 HD
BRANCH  12  15
HETATM   15  C   UNL     1      27.545  46.852  55.101  1.00  0.00     0.141 C 
BRANCH  15  16
HETATM   16  C   UNL     1      28.640  45.818  55.242  1.00  0.00    -0.049 A 
HETATM   17  C   UNL     1      28.667  44.732  54.350  1.00  0.00     0.023 A 
HETATM   18  C   UNL     1      29.613  43.701  54.480  1.00  0.00     0.048 A 
HETATM   19  C   UNL     1      30.550  43.770  55.519  1.00  0.00     0.016 A 
HETATM   20  C   UNL     1      30.526  44.835  56.419  1.00  0.00     0.001 A 
HETATM   21  C   UNL     1      29.570  45.845  56.288  1.00  0.00     0.007 A 
BRANCH  18  22
HETATM   22  C   UNL     1      29.612  42.548  53.508  1.00  0.00     0.417 C 
HETATM   23  F   UNL     1      29.054  41.410  54.006  1.00  0.00    -0.166 F 
HETATM   24  F   UNL     1      28.927  42.826  52.362  1.00  0.00    -0.166 F 
HETATM   25  F   UNL     1      30.870  42.205  53.112  1.00  0.00    -0.166 F 
ENDBRANCH  18  22
ENDBRANCH  15  16
ENDBRANCH  12  15
ENDBRANCH   1  11
BRANCH   8  26
HETATM   26  C   UNL     1      22.757  48.499  49.010  1.00  0.00     0.270 C 
HETATM   27  N   UNL     1      21.498  48.698  49.508  1.00  0.00    -0.365 N 
HETATM   28  H   UNL     1      20.999  47.908  49.897  1.00  0.00     0.159 HD
HETATM   29  H   UNL     1      21.095  49.622  49.487  1.00  0.00     0.159 HD
HETATM   30  O   UNL     1      23.405  49.425  48.534  1.00  0.00    -0.266 OA
ENDBRANCH   8  26
TORSDOF 5
ENDMDL
MODEL 8
REMARK VINA RESULT:      -9.0      3.462      4.525
REMARK  5 active torsions:
REMARK  status: ('A' for Active; 'I' for Inactive)
REMARK    1  A    between atoms: C_3  and  C_4 
REMARK    2  A    between atoms: C_9  and  C_10 
REMARK    3  A    between atoms: C_10  and  C_11 
REMARK       I    between atoms: C_11  and  N_12 
REMARK    4  A    between atoms: N_12  and  C_13 
REMARK    5  A    between atoms: C_20  and  C_21 
REMARK       I    between atoms: C_21  and  N_22 
ROOT
HETATM    1  C   UNL     1      25.059  43.415  51.373  1.00  0.00     0.035 A 
HETATM    2  C   UNL     1      25.084  44.773  51.030  1.00  0.00     0.046 A 
HETATM    3  C   UNL     1      24.169  45.272  50.075  1.00  0.00     0.030 A 
HETATM    4  C   UNL     1      23.265  44.393  49.492  1.00  0.00     0.063 A 
HETATM    5  N   UNL     1      22.525  45.154  48.630  1.00  0.00    -0.277 N 
HETATM    6  H   UNL     1      21.766  44.844  48.033  1.00  0.00     0.189 HD
HETATM    7  N   UNL     1      22.866  46.453  48.601  1.00  0.00    -0.168 NA
HETATM    8  C   UNL     1      23.881  46.543  49.490  1.00  0.00     0.156 A 
HETATM    9  C   UNL     1      23.212  43.034  49.805  1.00  0.00     0.034 A 
HETATM   10  C   UNL     1      24.127  42.566  50.759  1.00  0.00     0.032 A 
ENDROOT
BRANCH   1  11
HETATM   11  N   UNL     1      25.907  42.834  52.342  1.00  0.00    -0.327 N 
HETATM   12  C   UNL     1      27.259  42.555  52.217  1.00  0.00     0.226 C 
HETATM   13  O   UNL     1      27.927  42.641  51.192  1.00  0.00    -0.273 OA
HETATM   14  H   UNL     1      25.470  42.571  53.217  1.00  0.00     0.169 HD
BRANCH  12  15
HETATM   15  C   UNL     1      27.896  42.097  53.521  1.00  0.00     0.141 C 
BRANCH  15  16
HETATM   16  C   UNL     1      28.568  43.180  54.335  1.00  0.00    -0.049 A 
HETATM   17  C   UNL     1      27.919  44.417  54.488  1.00  0.00     0.023 A 
HETATM   18  C   UNL     1      28.529  45.485  55.168  1.00  0.00     0.048 A 
HETATM   19  C   UNL     1      29.809  45.300  55.709  1.00  0.00     0.016 A 
HETATM   20  C   UNL     1      30.470  44.083  55.552  1.00  0.00     0.001 A 
HETATM   21  C   UNL     1      29.859  43.034  54.860  1.00  0.00     0.007 A 
BRANCH  18  22
HETATM   22  C   UNL     1      27.806  46.801  55.312  1.00  0.00     0.417 C 
HETATM   23  F   UNL     1      28.402  47.830  54.647  1.00  0.00    -0.166 F 
HETATM   24  F   UNL     1      26.525  46.750  54.847  1.00  0.00    -0.166 F 
HETATM   25  F   UNL     1      27.713  47.200  56.611  1.00  0.00    -0.166 F 
ENDBRANCH  18  22
ENDBRANCH  15  16
ENDBRANCH  12  15
ENDBRANCH   1  11
BRANCH   8  26
HETATM   26  C   UNL     1      24.543  47.826  49.762  1.00  0.00     0.270 C 
HETATM   27  N   UNL     1      25.910  47.765  49.743  1.00  0.00    -0.365 N 
HETATM   28  H   UNL     1      26.354  46.876  49.546  1.00  0.00     0.159 HD
HETATM   29  H   UNL     1      26.449  48.599  49.915  1.00  0.00     0.159 HD
HETATM   30  O   UNL     1      23.959  48.881  49.988  1.00  0.00    -0.266 OA
ENDBRANCH   8  26
TORSDOF 5
ENDMDL
MODEL 9
REMARK VINA RESULT:      -9.0      4.671      6.183
REMARK  5 active torsions:
REMARK  status: ('A' for Active; 'I' for Inactive)
REMARK    1  A    between atoms: C_3  and  C_4 
REMARK    2  A    between atoms: C_9  and  C_10 
REMARK    3  A    between atoms: C_10  and  C_11 
REMARK       I    between atoms: C_11  and  N_12 
REMARK    4  A    between atoms: N_12  and  C_13 
REMARK    5  A    between atoms: C_20  and  C_21 
REMARK       I    between atoms: C_21  and  N_22 
ROOT
HETATM    1  C   UNL     1      27.654  41.730  50.820  1.00  0.00     0.035 A 
HETATM    2  C   UNL     1      26.452  42.428  50.634  1.00  0.00     0.046 A 
HETATM    3  C   UNL     1      25.448  41.884  49.802  1.00  0.00     0.030 A 
HETATM    4  C   UNL     1      25.682  40.664  49.180  1.00  0.00     0.063 A 
HETATM    5  N   UNL     1      24.550  40.403  48.458  1.00  0.00    -0.277 N 
HETATM    6  H   UNL     1      24.366  39.592  47.878  1.00  0.00     0.189 HD
HETATM    7  N   UNL     1      23.597  41.344  48.557  1.00  0.00    -0.168 NA
HETATM    8  C   UNL     1      24.136  42.267  49.386  1.00  0.00     0.156 A 
HETATM    9  C   UNL     1      26.867  39.943  49.337  1.00  0.00     0.034 A 
HETATM   10  C   UNL     1      27.844  40.502  50.172  1.00  0.00     0.032 A 
ENDROOT
BRANCH   1  11
HETATM   11  N   UNL     1      28.697  42.176  51.662  1.00  0.00    -0.327 N 
HETATM   12  C   UNL     1      28.900  41.851  52.994  1.00  0.00     0.226 C 
HETATM   13  O   UNL     1      28.131  41.222  53.714  1.00  0.00    -0.273 OA
HETATM   14  H   UNL     1      29.355  42.825  51.250  1.00  0.00     0.169 HD
BRANCH  12  15
HETATM   15  C   UNL     1      30.224  42.367  53.538  1.00  0.00     0.141 C 
BRANCH  15  16
HETATM   16  C   UNL     1      30.121  43.392  54.646  1.00  0.00    -0.049 A 
HETATM   17  C   UNL     1      29.195  44.441  54.516  1.00  0.00     0.023 A 
HETATM   18  C   UNL     1      29.110  45.465  55.476  1.00  0.00     0.048 A 
HETATM   19  C   UNL     1      29.964  45.425  56.586  1.00  0.00     0.016 A 
HETATM   20  C   UNL     1      30.896  44.397  56.719  1.00  0.00     0.001 A 
HETATM   21  C   UNL     1      30.982  43.394  55.750  1.00  0.00     0.007 A 
BRANCH  18  22
HETATM   22  C   UNL     1      28.107  46.579  55.305  1.00  0.00     0.417 C 
HETATM   23  F   UNL     1      27.617  47.061  56.481  1.00  0.00    -0.166 F 
HETATM   24  F   UNL     1      28.624  47.656  54.648  1.00  0.00    -0.166 F 
HETATM   25  F   UNL     1      27.021  46.190  54.579  1.00  0.00    -0.166 F 
ENDBRANCH  18  22
ENDBRANCH  15  16
ENDBRANCH  12  15
ENDBRANCH   1  11
BRANCH   8  26
HETATM   26  C   UNL     1      23.394  43.478  49.762  1.00  0.00     0.270 C 
HETATM   27  N   UNL     1      23.755  44.596  49.059  1.00  0.00    -0.365 N 
HETATM   28  H   UNL     1      24.477  44.514  48.354  1.00  0.00     0.159 HD
HETATM   29  H   UNL     1      23.295  45.473  49.247  1.00  0.00     0.159 HD
HETATM   30  O   UNL     1      22.519  43.525  50.621  1.00  0.00    -0.266 OA
ENDBRANCH   8  26
TORSDOF 5
ENDMDL
MODEL 10
REMARK VINA RESULT:      -8.9      5.118      6.979
REMARK  5 active torsions:
REMARK  status: ('A' for Active; 'I' for Inactive)
REMARK    1  A    between atoms: C_3  and  C_4 
REMARK    2  A    between atoms: C_9  and  C_10 
REMARK    3  A    between atoms: C_10  and  C_11 
REMARK       I    between atoms: C_11  and  N_12 
REMARK    4  A    between atoms: N_12  and  C_13 
REMARK    5  A    between atoms: C_20  and  C_21 
REMARK       I    between atoms: C_21  and  N_22 
ROOT
HETATM    1  C   UNL     1      26.715  43.229  51.713  1.00  0.00     0.035 A 
HETATM    2  C   UNL     1      27.553  42.142  51.431  1.00  0.00     0.046 A 
HETATM    3  C   UNL     1      27.069  41.068  50.650  1.00  0.00     0.030 A 
HETATM    4  C   UNL     1      25.762  41.116  50.183  1.00  0.00     0.063 A 
HETATM    5  N   UNL     1      25.589  39.962  49.470  1.00  0.00    -0.277 N 
HETATM    6  H   UNL     1      24.753  39.661  48.983  1.00  0.00     0.189 HD
HETATM    7  N   UNL     1      26.670  39.165  49.430  1.00  0.00    -0.168 NA
HETATM    8  C   UNL     1      27.595  39.836  50.154  1.00  0.00     0.156 A 
HETATM    9  C   UNL     1      24.897  42.180  50.446  1.00  0.00     0.034 A 
HETATM   10  C   UNL     1      25.403  43.234  51.219  1.00  0.00     0.032 A 
ENDROOT
BRANCH   1  11
HETATM   11  N   UNL     1      27.122  44.362  52.452  1.00  0.00    -0.327 N 
HETATM   12  C   UNL     1      27.064  44.535  53.826  1.00  0.00     0.226 C 
HETATM   13  O   UNL     1      26.524  43.783  54.631  1.00  0.00    -0.273 OA
HETATM   14  H   UNL     1      27.472  45.144  51.912  1.00  0.00     0.169 HD
BRANCH  12  15
HETATM   15  C   UNL     1      27.754  45.808  54.296  1.00  0.00     0.141 C 
BRANCH  15  16
HETATM   16  C   UNL     1      28.615  45.666  55.531  1.00  0.00    -0.049 A 
HETATM   17  C   UNL     1      29.611  44.674  55.555  1.00  0.00     0.023 A 
HETATM   18  C   UNL     1      30.389  44.445  56.703  1.00  0.00     0.048 A 
HETATM   19  C   UNL     1      30.166  45.234  57.839  1.00  0.00     0.016 A 
HETATM   20  C   UNL     1      29.173  46.212  57.833  1.00  0.00     0.001 A 
HETATM   21  C   UNL     1      28.395  46.419  56.691  1.00  0.00     0.007 A 
BRANCH  18  22
HETATM   22  C   UNL     1      31.447  43.370  56.696  1.00  0.00     0.417 C 
HETATM   23  F   UNL     1      32.649  43.780  57.188  1.00  0.00    -0.166 F 
HETATM   24  F   UNL     1      31.094  42.281  57.437  1.00  0.00    -0.166 F 
HETATM   25  F   UNL     1      31.697  42.899  55.442  1.00  0.00    -0.166 F 
ENDBRANCH  18  22
ENDBRANCH  15  16
ENDBRANCH  12  15
ENDBRANCH   1  11
BRANCH   8  26
HETATM   26  C   UNL     1      28.946  39.294  50.351  1.00  0.00     0.270 C 
HETATM   27  N   UNL     1      29.655  39.128  49.192  1.00  0.00    -0.365 N 
HETATM   28  H   UNL     1      29.220  39.384  48.315  1.00  0.00     0.159 HD
HETATM   29  H   UNL     1      30.595  38.765  49.230  1.00  0.00     0.159 HD
HETATM   30  O   UNL     1      29.434  39.005  51.439  1.00  0.00    -0.266 OA
ENDBRANCH   8  26
TORSDOF 5
ENDMDL
