MODEL 1
REMARK VINA RESULT:      -8.9      0.000      0.000
REMARK  4 active torsions:
REMARK  status: ('A' for Active; 'I' for Inactive)
REMARK    1  A    between atoms: C_3  and  N_4 
REMARK       I    between atoms: N_4  and  C_5 
REMARK    2  A    between atoms: C_5  and  C_6 
REMARK    3  A    between atoms: C_7  and  C_8 
REMARK    4  A    between atoms: C_16  and  C_17 
ROOT
HETATM    1  C   UNL     1      24.181  45.472  50.545  1.00  0.00     0.003 A 
HETATM    2  C   UNL     1      24.885  45.261  51.732  1.00  0.00     0.029 A 
HETATM    3  C   UNL     1      25.912  46.127  52.101  1.00  0.00     0.035 A 
HETATM    4  C   UNL     1      26.234  47.202  51.258  1.00  0.00     0.042 A 
HETATM    5  C   UNL     1      25.540  47.425  50.056  1.00  0.00    -0.021 A 
HETATM    6  C   UNL     1      24.504  46.547  49.716  1.00  0.00     0.012 A 
ENDROOT
BRANCH   3   7
HETATM    7  N   UNL     1      26.640  46.012  53.305  1.00  0.00    -0.327 N 
HETATM    8  C   UNL     1      27.584  45.058  53.624  1.00  0.00     0.227 C 
HETATM    9  O   UNL     1      28.057  44.207  52.884  1.00  0.00    -0.273 OA
HETATM   10  H   UNL     1      26.420  46.691  54.021  1.00  0.00     0.169 HD
BRANCH   8  11
HETATM   11  C   UNL     1      28.005  45.109  55.056  1.00  0.00     0.089 A 
HETATM   12  C   UNL     1      29.335  45.789  55.365  1.00  0.00     0.057 A 
HETATM   13  C   UNL     1      28.028  46.385  55.835  1.00  0.00     0.027 A 
BRANCH  12  14
HETATM   14  C   UNL     1      30.240  45.086  56.353  1.00  0.00     0.057 A 
HETATM   15  O   UNL     1      30.476  45.505  57.628  1.00  0.00    -0.327 OA
HETATM   16  C   UNL     1      31.313  44.597  58.194  1.00  0.00     0.142 A 
HETATM   17  C   UNL     1      31.616  43.598  57.299  1.00  0.00     0.027 A 
HETATM   18  C   UNL     1      30.925  43.915  56.105  1.00  0.00     0.035 A 
ENDBRANCH  12  14
ENDBRANCH   8  11
ENDBRANCH   3   7
BRANCH   5  19
HETATM   19  C   UNL     1      25.895  48.552  49.202  1.00  0.00     0.010 A 
HETATM   20  C   UNL     1      25.098  49.372  48.366  1.00  0.00     0.152 A 
HETATM   21  N   UNL     1      25.799  50.323  47.742  1.00  0.00    -0.187 NA
HETATM   22  N   UNL     1      27.051  50.119  48.172  1.00  0.00    -0.289 N 
HETATM   23  H   UNL     1      27.784  50.732  47.830  1.00  0.00     0.188 HD
HETATM   24  C   UNL     1      27.163  49.076  49.046  1.00  0.00     0.123 A 
ENDBRANCH   5  19
TORSDOF 4
ENDMDL
MODEL 2
REMARK VINA RESULT:      -8.6      2.843      8.324
REMARK  4 active torsions:
REMARK  status: ('A' for Active; 'I' for Inactive)
REMARK    1  A    between atoms: C_3  and  N_4 
REMARK       I    between atoms: N_4  and  C_5 
REMARK    2  A    between atoms: C_5  and  C_6 
REMARK    3  A    between atoms: C_7  and  C_8 
REMARK    4  A    between atoms: C_16  and  C_17 
ROOT
HETATM    1  C   UNL     1      30.008  42.583  53.351  1.00  0.00     0.003 A 
HETATM    2  C   UNL     1      28.976  43.300  52.741  1.00  0.00     0.029 A 
HETATM    3  C   UNL     1      28.438  44.423  53.365  1.00  0.00     0.035 A 
HETATM    4  C   UNL     1      28.937  44.812  54.618  1.00  0.00     0.042 A 
HETATM    5  C   UNL     1      29.971  44.098  55.251  1.00  0.00    -0.021 A 
HETATM    6  C   UNL     1      30.503  42.981  54.594  1.00  0.00     0.012 A 
ENDROOT
BRANCH   3   7
HETATM    7  N   UNL     1      27.428  45.228  52.796  1.00  0.00    -0.327 N 
HETATM    8  C   UNL     1      26.162  44.837  52.414  1.00  0.00     0.227 C 
HETATM    9  O   UNL     1      25.631  43.753  52.608  1.00  0.00    -0.273 OA
HETATM   10  H   UNL     1      27.676  46.193  52.624  1.00  0.00     0.169 HD
BRANCH   8  11
HETATM   11  C   UNL     1      25.427  45.894  51.659  1.00  0.00     0.089 A 
HETATM   12  C   UNL     1      25.705  45.999  50.163  1.00  0.00     0.057 A 
HETATM   13  C   UNL     1      24.350  45.568  50.674  1.00  0.00     0.027 A 
BRANCH  12  14
HETATM   14  C   UNL     1      25.890  47.394  49.605  1.00  0.00     0.057 A 
HETATM   15  O   UNL     1      24.875  48.235  49.258  1.00  0.00    -0.327 OA
HETATM   16  C   UNL     1      25.448  49.390  48.831  1.00  0.00     0.142 A 
HETATM   17  C   UNL     1      26.818  49.303  48.902  1.00  0.00     0.027 A 
HETATM   18  C   UNL     1      27.106  48.009  49.399  1.00  0.00     0.035 A 
ENDBRANCH  12  14
ENDBRANCH   8  11
ENDBRANCH   3   7
BRANCH   5  19
HETATM   19  C   UNL     1      30.470  44.528  56.551  1.00  0.00     0.010 A 
HETATM   20  C   UNL     1      31.405  43.929  57.431  1.00  0.00     0.152 A 
HETATM   21  N   UNL     1      31.614  44.644  58.540  1.00  0.00    -0.187 NA
HETATM   22  N   UNL     1      30.814  45.707  58.380  1.00  0.00    -0.289 N 
HETATM   23  H   UNL     1      30.797  46.412  59.109  1.00  0.00     0.188 HD
HETATM   24  C   UNL     1      30.112  45.687  57.209  1.00  0.00     0.123 A 
ENDBRANCH   5  19
TORSDOF 4
ENDMDL
MODEL 3
REMARK VINA RESULT:      -8.2      2.538      3.869
REMARK  4 active torsions:
REMARK  status: ('A' for Active; 'I' for Inactive)
REMARK    1  A    between atoms: C_3  and  N_4 
REMARK       I    between atoms: N_4  and  C_5 
REMARK    2  A    between atoms: C_5  and  C_6 
REMARK    3  A    between atoms: C_7  and  C_8 
REMARK    4  A    between atoms: C_16  and  C_17 
ROOT
HETATM    1  C   UNL     1      26.894  49.602  48.557  1.00  0.00     0.003 A 
HETATM    2  C   UNL     1      27.106  48.534  49.431  1.00  0.00     0.029 A 
HETATM    3  C   UNL     1      26.023  47.831  49.955  1.00  0.00     0.035 A 
HETATM    4  C   UNL     1      24.722  48.221  49.602  1.00  0.00     0.042 A 
HETATM    5  C   UNL     1      24.490  49.299  48.729  1.00  0.00    -0.021 A 
HETATM    6  C   UNL     1      25.597  49.979  48.207  1.00  0.00     0.012 A 
ENDROOT
BRANCH   3   7
HETATM    7  N   UNL     1      26.152  46.713  50.805  1.00  0.00    -0.327 N 
HETATM    8  C   UNL     1      25.917  46.662  52.163  1.00  0.00     0.227 C 
HETATM    9  O   UNL     1      25.438  47.540  52.865  1.00  0.00    -0.273 OA
HETATM   10  H   UNL     1      26.481  45.861  50.369  1.00  0.00     0.169 HD
BRANCH   8  11
HETATM   11  C   UNL     1      26.350  45.375  52.784  1.00  0.00     0.089 A 
HETATM   12  C   UNL     1      27.438  45.449  53.850  1.00  0.00     0.057 A 
HETATM   13  C   UNL     1      26.031  45.026  54.202  1.00  0.00     0.027 A 
BRANCH  12  14
HETATM   14  C   UNL     1      28.537  44.412  53.768  1.00  0.00     0.057 A 
HETATM   15  O   UNL     1      28.905  43.755  52.631  1.00  0.00    -0.327 OA
HETATM   16  C   UNL     1      29.936  42.936  52.965  1.00  0.00     0.142 A 
HETATM   17  C   UNL     1      30.238  43.060  54.300  1.00  0.00     0.027 A 
HETATM   18  C   UNL     1      29.330  44.013  54.822  1.00  0.00     0.035 A 
ENDBRANCH  12  14
ENDBRANCH   8  11
ENDBRANCH   3   7
BRANCH   5  19
HETATM   19  C   UNL     1      23.127  49.680  48.380  1.00  0.00     0.010 A 
HETATM   20  C   UNL     1      22.055  48.917  47.854  1.00  0.00     0.152 A 
HETATM   21  N   UNL     1      20.940  49.632  47.677  1.00  0.00    -0.187 NA
HETATM   22  N   UNL     1      21.289  50.859  48.088  1.00  0.00    -0.289 N 
HETATM   23  H   UNL     1      20.592  51.596  48.049  1.00  0.00     0.188 HD
HETATM   24  C   UNL     1      22.582  50.940  48.519  1.00  0.00     0.123 A 
ENDBRANCH   5  19
TORSDOF 4
ENDMDL
MODEL 4
REMARK VINA RESULT:      -7.9      5.330     10.417
REMARK  4 active torsions:
REMARK  status: ('A' for Active; 'I' for Inactive)
REMARK    1  A    between atoms: C_3  and  N_4 
REMARK       I    between atoms: N_4  and  C_5 
REMARK    2  A    between atoms: C_5  and  C_6 
REMARK    3  A    between atoms: C_7  and  C_8 
REMARK    4  A    between atoms: C_16  and  C_17 
ROOT
HETATM    1  C   UNL     1      26.766  49.696  48.473  1.00  0.00     0.003 A 
HETATM    2  C   UNL     1      25.457  50.052  48.144  1.00  0.00     0.029 A 
HETATM    3  C   UNL     1      24.383  49.335  48.668  1.00  0.00     0.035 A 
HETATM    4  C   UNL     1      24.638  48.247  49.516  1.00  0.00     0.042 A 
HETATM    5  C   UNL     1      25.950  47.870  49.852  1.00  0.00    -0.021 A 
HETATM    6  C   UNL     1      27.011  48.616  49.322  1.00  0.00     0.012 A 
ENDROOT
BRANCH   3   7
HETATM    7  N   UNL     1      23.031  49.659  48.423  1.00  0.00    -0.327 N 
HETATM    8  C   UNL     1      22.162  50.317  49.269  1.00  0.00     0.227 C 
HETATM    9  O   UNL     1      22.429  50.850  50.336  1.00  0.00    -0.273 OA
HETATM   10  H   UNL     1      22.654  49.346  47.539  1.00  0.00     0.169 HD
BRANCH   8  11
HETATM   11  C   UNL     1      20.752  50.309  48.778  1.00  0.00     0.089 A 
HETATM   12  C   UNL     1      20.180  51.635  48.288  1.00  0.00     0.057 A 
HETATM   13  C   UNL     1      20.409  50.487  47.334  1.00  0.00     0.027 A 
BRANCH  12  14
HETATM   14  C   UNL     1      18.774  51.973  48.736  1.00  0.00     0.057 A 
HETATM   15  O   UNL     1      18.430  52.351  50.000  1.00  0.00    -0.327 OA
HETATM   16  C   UNL     1      17.093  52.589  49.989  1.00  0.00     0.142 A 
HETATM   17  C   UNL     1      16.574  52.372  48.735  1.00  0.00     0.027 A 
HETATM   18  C   UNL     1      17.661  51.969  47.923  1.00  0.00     0.035 A 
ENDBRANCH  12  14
ENDBRANCH   8  11
ENDBRANCH   3   7
BRANCH   5  19
HETATM   19  C   UNL     1      26.184  46.736  50.738  1.00  0.00     0.010 A 
HETATM   20  C   UNL     1      26.596  45.409  50.459  1.00  0.00     0.152 A 
HETATM   21  N   UNL     1      26.711  44.655  51.555  1.00  0.00    -0.187 NA
HETATM   22  N   UNL     1      26.374  45.492  52.546  1.00  0.00    -0.289 N 
HETATM   23  H   UNL     1      26.386  45.141  53.498  1.00  0.00     0.188 HD
HETATM   24  C   UNL     1      26.053  46.746  52.112  1.00  0.00     0.123 A 
ENDBRANCH   5  19
TORSDOF 4
ENDMDL
MODEL 5
REMARK VINA RESULT:      -7.8      3.911      8.972
REMARK  4 active torsions:
REMARK  status: ('A' for Active; 'I' for Inactive)
REMARK    1  A    between atoms: C_3  and  N_4 
REMARK       I    between atoms: N_4  and  C_5 
REMARK    2  A    between atoms: C_5  and  C_6 
REMARK    3  A    between atoms: C_7  and  C_8 
REMARK    4  A    between atoms: C_16  and  C_17 
ROOT
HETATM    1  C   UNL     1      25.979  44.429  50.982  1.00  0.00     0.003 A 
HETATM    2  C   UNL     1      25.168  45.200  50.148  1.00  0.00     0.029 A 
HETATM    3  C   UNL     1      24.806  46.493  50.521  1.00  0.00     0.035 A 
HETATM    4  C   UNL     1      25.258  47.000  51.750  1.00  0.00     0.042 A 
HETATM    5  C   UNL     1      26.070  46.234  52.606  1.00  0.00    -0.021 A 
HETATM    6  C   UNL     1      26.429  44.943  52.200  1.00  0.00     0.012 A 
ENDROOT
BRANCH   3   7
HETATM    7  N   UNL     1      24.030  47.353  49.716  1.00  0.00    -0.327 N 
HETATM    8  C   UNL     1      24.399  48.579  49.202  1.00  0.00     0.227 C 
HETATM    9  O   UNL     1      25.506  49.096  49.245  1.00  0.00    -0.273 OA
HETATM   10  H   UNL     1      23.087  47.044  49.519  1.00  0.00     0.169 HD
BRANCH   8  11
HETATM   11  C   UNL     1      23.265  49.313  48.568  1.00  0.00     0.089 A 
HETATM   12  C   UNL     1      22.890  50.664  49.167  1.00  0.00     0.057 A 
HETATM   13  C   UNL     1      23.469  50.564  47.775  1.00  0.00     0.027 A 
BRANCH  12  14
HETATM   14  C   UNL     1      21.413  50.937  49.350  1.00  0.00     0.057 A 
HETATM   15  O   UNL     1      20.685  50.578  50.445  1.00  0.00    -0.327 OA
HETATM   16  C   UNL     1      19.418  51.022  50.239  1.00  0.00     0.142 A 
HETATM   17  C   UNL     1      19.323  51.663  49.027  1.00  0.00     0.027 A 
HETATM   18  C   UNL     1      20.613  51.606  48.448  1.00  0.00     0.035 A 
ENDBRANCH  12  14
ENDBRANCH   8  11
ENDBRANCH   3   7
BRANCH   5  19
HETATM   19  C   UNL     1      26.525  46.788  53.875  1.00  0.00     0.010 A 
HETATM   20  C   UNL     1      27.564  46.379  54.748  1.00  0.00     0.152 A 
HETATM   21  N   UNL     1      27.682  47.162  55.824  1.00  0.00    -0.187 NA
HETATM   22  N   UNL     1      26.720  48.078  55.650  1.00  0.00    -0.289 N 
HETATM   23  H   UNL     1      26.609  48.800  56.355  1.00  0.00     0.188 HD
HETATM   24  C   UNL     1      26.003  47.901  54.502  1.00  0.00     0.123 A 
ENDBRANCH   5  19
TORSDOF 4
ENDMDL
MODEL 6
REMARK VINA RESULT:      -7.8      4.390      8.369
REMARK  4 active torsions:
REMARK  status: ('A' for Active; 'I' for Inactive)
REMARK    1  A    between atoms: C_3  and  N_4 
REMARK       I    between atoms: N_4  and  C_5 
REMARK    2  A    between atoms: C_5  and  C_6 
REMARK    3  A    between atoms: C_7  and  C_8 
REMARK    4  A    between atoms: C_16  and  C_17 
ROOT
HETATM    1  C   UNL     1      27.412  46.713  54.732  1.00  0.00     0.003 A 
HETATM    2  C   UNL     1      27.147  45.763  53.744  1.00  0.00     0.029 A 
HETATM    3  C   UNL     1      27.839  44.554  53.729  1.00  0.00     0.035 A 
HETATM    4  C   UNL     1      28.811  44.313  54.712  1.00  0.00     0.042 A 
HETATM    5  C   UNL     1      29.097  45.262  55.711  1.00  0.00    -0.021 A 
HETATM    6  C   UNL     1      28.377  46.463  55.709  1.00  0.00     0.012 A 
ENDROOT
BRANCH   3   7
HETATM    7  N   UNL     1      27.598  43.525  52.795  1.00  0.00    -0.327 N 
HETATM    8  C   UNL     1      27.486  43.646  51.426  1.00  0.00     0.227 C 
HETATM    9  O   UNL     1      27.694  44.644  50.751  1.00  0.00    -0.273 OA
HETATM   10  H   UNL     1      27.465  42.599  53.181  1.00  0.00     0.169 HD
BRANCH   8  11
HETATM   11  C   UNL     1      27.025  42.389  50.764  1.00  0.00     0.089 A 
HETATM   12  C   UNL     1      28.098  41.390  50.346  1.00  0.00     0.057 A 
HETATM   13  C   UNL     1      27.107  41.057  51.437  1.00  0.00     0.027 A 
BRANCH  12  14
HETATM   14  C   UNL     1      27.946  40.767  48.975  1.00  0.00     0.057 A 
HETATM   15  O   UNL     1      27.876  41.465  47.806  1.00  0.00    -0.327 OA
HETATM   16  C   UNL     1      27.772  40.552  46.807  1.00  0.00     0.142 A 
HETATM   17  C   UNL     1      27.776  39.276  47.318  1.00  0.00     0.027 A 
HETATM   18  C   UNL     1      27.885  39.414  48.722  1.00  0.00     0.035 A 
ENDBRANCH  12  14
ENDBRANCH   8  11
ENDBRANCH   3   7
BRANCH   5  19
HETATM   19  C   UNL     1      30.111  44.983  56.719  1.00  0.00     0.010 A 
HETATM   20  C   UNL     1      31.119  43.988  56.773  1.00  0.00     0.152 A 
HETATM   21  N   UNL     1      31.874  44.065  57.872  1.00  0.00    -0.187 NA
HETATM   22  N   UNL     1      31.356  45.110  58.533  1.00  0.00    -0.289 N 
HETATM   23  H   UNL     1      31.771  45.373  59.420  1.00  0.00     0.188 HD
HETATM   24  C   UNL     1      30.304  45.694  57.886  1.00  0.00     0.123 A 
ENDBRANCH   5  19
TORSDOF 4
ENDMDL
MODEL 7
REMARK VINA RESULT:      -7.6      3.054      8.526
REMARK  4 active torsions:
REMARK  status: ('A' for Active; 'I' for Inactive)
REMARK    1  A    between atoms: C_3  and  N_4 
REMARK       I    between atoms: N_4  and  C_5 
REMARK    2  A    between atoms: C_5  and  C_6 
REMARK    3  A    between atoms: C_7  and  C_8 
REMARK    4  A    between atoms: C_16  and  C_17 
ROOT
HETATM    1  C   UNL     1      27.874  41.544  52.852  1.00  0.00     0.003 A 
HETATM    2  C   UNL     1      27.331  42.469  51.959  1.00  0.00     0.029 A 
HETATM    3  C   UNL     1      27.600  43.828  52.107  1.00  0.00     0.035 A 
HETATM    4  C   UNL     1      28.413  44.250  53.171  1.00  0.00     0.042 A 
HETATM    5  C   UNL     1      28.962  43.333  54.084  1.00  0.00    -0.021 A 
HETATM    6  C   UNL     1      28.686  41.972  53.904  1.00  0.00     0.012 A 
ENDROOT
BRANCH   3   7
HETATM    7  N   UNL     1      27.130  44.821  51.222  1.00  0.00    -0.327 N 
HETATM    8  C   UNL     1      25.838  45.290  51.099  1.00  0.00     0.227 C 
HETATM    9  O   UNL     1      24.883  45.023  51.814  1.00  0.00    -0.273 OA
HETATM   10  H   UNL     1      27.815  45.210  50.588  1.00  0.00     0.169 HD
BRANCH   8  11
HETATM   11  C   UNL     1      25.653  46.192  49.924  1.00  0.00     0.089 A 
HETATM   12  C   UNL     1      25.362  47.660  50.215  1.00  0.00     0.057 A 
HETATM   13  C   UNL     1      26.655  47.239  49.556  1.00  0.00     0.027 A 
BRANCH  12  14
HETATM   14  C   UNL     1      24.273  48.311  49.388  1.00  0.00     0.057 A 
HETATM   15  O   UNL     1      22.975  47.897  49.347  1.00  0.00    -0.327 OA
HETATM   16  C   UNL     1      22.316  48.749  48.520  1.00  0.00     0.142 A 
HETATM   17  C   UNL     1      23.173  49.706  48.031  1.00  0.00     0.027 A 
HETATM   18  C   UNL     1      24.442  49.422  48.590  1.00  0.00     0.035 A 
ENDBRANCH  12  14
ENDBRANCH   8  11
ENDBRANCH   3   7
BRANCH   5  19
HETATM   19  C   UNL     1      29.804  43.802  55.178  1.00  0.00     0.010 A 
HETATM   20  C   UNL     1      30.880  43.177  55.856  1.00  0.00     0.152 A 
HETATM   21  N   UNL     1      31.415  43.944  56.809  1.00  0.00    -0.187 NA
HETATM   22  N   UNL     1      30.686  45.067  56.751  1.00  0.00    -0.289 N 
HETATM   23  H   UNL     1      30.908  45.820  57.394  1.00  0.00     0.188 HD
HETATM   24  C   UNL     1      29.713  45.034  55.793  1.00  0.00     0.123 A 
ENDBRANCH   5  19
TORSDOF 4
ENDMDL
MODEL 8
REMARK VINA RESULT:      -7.5      4.849      6.457
REMARK  4 active torsions:
REMARK  status: ('A' for Active; 'I' for Inactive)
REMARK    1  A    between atoms: C_3  and  N_4 
REMARK       I    between atoms: N_4  and  C_5 
REMARK    2  A    between atoms: C_5  and  C_6 
REMARK    3  A    between atoms: C_7  and  C_8 
REMARK    4  A    between atoms: C_16  and  C_17 
ROOT
HETATM    1  C   UNL     1      26.638  42.401  49.061  1.00  0.00     0.003 A 
HETATM    2  C   UNL     1      26.700  43.069  50.285  1.00  0.00     0.029 A 
HETATM    3  C   UNL     1      27.415  42.521  51.347  1.00  0.00     0.035 A 
HETATM    4  C   UNL     1      28.059  41.286  51.171  1.00  0.00     0.042 A 
HETATM    5  C   UNL     1      28.001  40.596  49.948  1.00  0.00    -0.021 A 
HETATM    6  C   UNL     1      27.286  41.176  48.893  1.00  0.00     0.012 A 
ENDROOT
BRANCH   3   7
HETATM    7  N   UNL     1      27.566  43.153  52.600  1.00  0.00    -0.327 N 
HETATM    8  C   UNL     1      28.745  43.462  53.245  1.00  0.00     0.227 C 
HETATM    9  O   UNL     1      29.881  43.358  52.802  1.00  0.00    -0.273 OA
HETATM   10  H   UNL     1      26.710  43.378  53.088  1.00  0.00     0.169 HD
BRANCH   8  11
HETATM   11  C   UNL     1      28.539  43.940  54.644  1.00  0.00     0.089 A 
HETATM   12  C   UNL     1      29.288  45.199  55.066  1.00  0.00     0.057 A 
HETATM   13  C   UNL     1      27.781  45.191  54.956  1.00  0.00     0.027 A 
BRANCH  12  14
HETATM   14  C   UNL     1      29.944  45.171  56.430  1.00  0.00     0.057 A 
HETATM   15  O   UNL     1      31.016  44.398  56.763  1.00  0.00    -0.327 OA
HETATM   16  C   UNL     1      31.318  44.679  58.057  1.00  0.00     0.142 A 
HETATM   17  C   UNL     1      30.456  45.624  58.559  1.00  0.00     0.027 A 
HETATM   18  C   UNL     1      29.563  45.941  57.508  1.00  0.00     0.035 A 
ENDBRANCH  12  14
ENDBRANCH   8  11
ENDBRANCH   3   7
BRANCH   5  19
HETATM   19  C   UNL     1      28.681  39.316  49.794  1.00  0.00     0.010 A 
HETATM   20  C   UNL     1      29.544  38.611  50.669  1.00  0.00     0.152 A 
HETATM   21  N   UNL     1      29.962  37.446  50.168  1.00  0.00    -0.187 NA
HETATM   22  N   UNL     1      29.371  37.394  48.967  1.00  0.00    -0.289 N 
HETATM   23  H   UNL     1      29.539  36.582  48.381  1.00  0.00     0.188 HD
HETATM   24  C   UNL     1      28.593  38.484  48.696  1.00  0.00     0.123 A 
ENDBRANCH   5  19
TORSDOF 4
ENDMDL
MODEL 9
REMARK VINA RESULT:      -7.3      4.175      8.601
REMARK  4 active torsions:
REMARK  status: ('A' for Active; 'I' for Inactive)
REMARK    1  A    between atoms: C_3  and  N_4 
REMARK       I    between atoms: N_4  and  C_5 
REMARK    2  A    between atoms: C_5  and  C_6 
REMARK    3  A    between atoms: C_7  and  C_8 
REMARK    4  A    between atoms: C_16  and  C_17 
ROOT
HETATM    1  C   UNL     1      27.745  46.543  54.624  1.00  0.00     0.003 A 
HETATM    2  C   UNL     1      27.169  45.606  53.765  1.00  0.00     0.029 A 
HETATM    3  C   UNL     1      27.619  44.287  53.761  1.00  0.00     0.035 A 
HETATM    4  C   UNL     1      28.665  43.922  54.623  1.00  0.00     0.042 A 
HETATM    5  C   UNL     1      29.261  44.854  55.491  1.00  0.00    -0.021 A 
HETATM    6  C   UNL     1      28.781  46.169  55.482  1.00  0.00     0.012 A 
ENDROOT
BRANCH   3   7
HETATM    7  N   UNL     1      27.060  43.270  52.959  1.00  0.00    -0.327 N 
HETATM    8  C   UNL     1      27.728  42.410  52.112  1.00  0.00     0.227 C 
HETATM    9  O   UNL     1      28.938  42.284  51.987  1.00  0.00    -0.273 OA
HETATM   10  H   UNL     1      26.053  43.185  52.991  1.00  0.00     0.169 HD
BRANCH   8  11
HETATM   11  C   UNL     1      26.809  41.597  51.261  1.00  0.00     0.089 A 
HETATM   12  C   UNL     1      26.557  42.093  49.841  1.00  0.00     0.057 A 
HETATM   13  C   UNL     1      27.299  40.801  50.094  1.00  0.00     0.027 A 
BRANCH  12  14
HETATM   14  C   UNL     1      25.123  42.055  49.356  1.00  0.00     0.057 A 
HETATM   15  O   UNL     1      24.572  41.039  48.634  1.00  0.00    -0.327 OA
HETATM   16  C   UNL     1      23.271  41.367  48.422  1.00  0.00     0.142 A 
HETATM   17  C   UNL     1      22.979  42.579  49.000  1.00  0.00     0.027 A 
HETATM   18  C   UNL     1      24.178  43.028  49.603  1.00  0.00     0.035 A 
ENDBRANCH  12  14
ENDBRANCH   8  11
ENDBRANCH   3   7
BRANCH   5  19
HETATM   19  C   UNL     1      30.345  44.444  56.376  1.00  0.00     0.010 A 
HETATM   20  C   UNL     1      30.767  44.958  57.627  1.00  0.00     0.152 A 
HETATM   21  N   UNL     1      31.807  44.296  58.142  1.00  0.00    -0.187 NA
HETATM   22  N   UNL     1      32.060  43.352  57.224  1.00  0.00    -0.289 N 
HETATM   23  H   UNL     1      32.825  42.708  57.394  1.00  0.00     0.188 HD
HETATM   24  C   UNL     1      31.215  43.396  56.152  1.00  0.00     0.123 A 
ENDBRANCH   5  19
TORSDOF 4
ENDMDL
MODEL 10
REMARK VINA RESULT:      -7.2      4.284      6.555
REMARK  4 active torsions:
REMARK  status: ('A' for Active; 'I' for Inactive)
REMARK    1  A    between atoms: C_3  and  N_4 
REMARK       I    between atoms: N_4  and  C_5 
REMARK    2  A    between atoms: C_5  and  C_6 
REMARK    3  A    between atoms: C_7  and  C_8 
REMARK    4  A    between atoms: C_16  and  C_17 
ROOT
HETATM    1  C   UNL     1      23.198  50.936  48.264  1.00  0.00     0.003 A 
HETATM    2  C   UNL     1      23.745  49.692  48.582  1.00  0.00     0.029 A 
HETATM    3  C   UNL     1      22.943  48.692  49.128  1.00  0.00     0.035 A 
HETATM    4  C   UNL     1      21.586  48.960  49.364  1.00  0.00     0.042 A 
HETATM    5  C   UNL     1      21.020  50.210  49.057  1.00  0.00    -0.021 A 
HETATM    6  C   UNL     1      21.846  51.192  48.497  1.00  0.00     0.012 A 
ENDROOT
BRANCH   3   7
HETATM    7  N   UNL     1      23.406  47.394  49.433  1.00  0.00    -0.327 N 
HETATM    8  C   UNL     1      24.437  47.052  50.283  1.00  0.00     0.227 C 
HETATM    9  O   UNL     1      25.063  47.794  51.024  1.00  0.00    -0.273 OA
HETATM   10  H   UNL     1      22.945  46.635  48.949  1.00  0.00     0.169 HD
BRANCH   8  11
HETATM   11  C   UNL     1      24.795  45.604  50.213  1.00  0.00     0.089 A 
HETATM   12  C   UNL     1      24.887  44.847  51.534  1.00  0.00     0.057 A 
HETATM   13  C   UNL     1      23.810  44.523  50.526  1.00  0.00     0.027 A 
BRANCH  12  14
HETATM   14  C   UNL     1      26.069  43.915  51.698  1.00  0.00     0.057 A 
HETATM   15  O   UNL     1      26.068  42.592  51.374  1.00  0.00    -0.327 OA
HETATM   16  C   UNL     1      27.313  42.119  51.641  1.00  0.00     0.142 A 
HETATM   17  C   UNL     1      28.115  43.123  52.130  1.00  0.00     0.027 A 
HETATM   18  C   UNL     1      27.310  44.286  52.171  1.00  0.00     0.035 A 
ENDBRANCH  12  14
ENDBRANCH   8  11
ENDBRANCH   3   7
BRANCH   5  19
HETATM   19  C   UNL     1      19.606  50.458  49.313  1.00  0.00     0.010 A 
HETATM   20  C   UNL     1      18.955  51.536  49.962  1.00  0.00     0.152 A 
HETATM   21  N   UNL     1      17.626  51.407  49.987  1.00  0.00    -0.187 NA
HETATM   22  N   UNL     1      17.414  50.245  49.355  1.00  0.00    -0.289 N 
HETATM   23  H   UNL     1      16.458  49.923  49.245  1.00  0.00     0.188 HD
HETATM   24  C   UNL     1      18.563  49.640  48.930  1.00  0.00     0.123 A 
ENDBRANCH   5  19
TORSDOF 4
ENDMDL
