MODEL 1
REMARK VINA RESULT:      -9.2      0.000      0.000
REMARK  4 active torsions:
REMARK  status: ('A' for Active; 'I' for Inactive)
REMARK    1  A    between atoms: N_2  and  C_3 
REMARK    2  A    between atoms: C_5  and  C_6 
REMARK    3  A    between atoms: C_6  and  C_7 
REMARK    4  A    between atoms: C_14  and  O_15 
ROOT
HETATM    1  C   UNL     1      24.211  47.752  49.845  1.00  0.00     0.113 A 
HETATM    2  N   UNL     1      24.339  46.624  50.572  1.00  0.00    -0.223 NA
HETATM    3  C   UNL     1      25.584  46.119  50.783  1.00  0.00     0.106 A 
HETATM    4  N   UNL     1      26.699  46.686  50.296  1.00  0.00    -0.347 N 
HETATM    5  H   UNL     1      27.611  46.268  50.466  1.00  0.00     0.167 HD
HETATM    6  C   UNL     1      26.577  47.810  49.597  1.00  0.00     0.020 A 
HETATM    7  C   UNL     1      25.337  48.377  49.360  1.00  0.00     0.005 A 
HETATM    8  C   UNL     1      25.479  49.626  48.551  1.00  0.00     0.044 C 
HETATM    9  C   UNL     1      26.977  49.936  48.736  1.00  0.00     0.011 C 
HETATM   10  C   UNL     1      27.685  48.593  48.968  1.00  0.00     0.058 C 
ENDROOT
BRANCH   3  11
HETATM   11  C   UNL     1      25.699  44.849  51.579  1.00  0.00     0.085 C 
BRANCH  11  12
HETATM   12  C   UNL     1      27.024  44.741  52.343  1.00  0.00     0.021 C 
HETATM   13  C   UNL     1      27.383  43.305  52.736  1.00  0.00     0.181 C 
HETATM   14  O   UNL     1      28.695  43.243  53.299  1.00  0.00    -0.350 OA
HETATM   15  C   UNL     1      28.912  44.128  54.324  1.00  0.00     0.077 A 
HETATM   16  C   UNL     1      28.125  45.266  54.527  1.00  0.00    -0.024 A 
HETATM   17  C   UNL     1      30.004  43.854  55.152  1.00  0.00     0.074 A 
HETATM   18  C   UNL     1      26.960  45.571  53.632  1.00  0.00     0.048 C 
HETATM   19  C   UNL     1      28.418  46.107  55.605  1.00  0.00     0.012 A 
HETATM   20  C   UNL     1      29.498  45.822  56.443  1.00  0.00     0.037 A 
HETATM   21  C   UNL     1      30.298  44.700  56.221  1.00  0.00     0.070 A 
BRANCH  21  22
HETATM   22  O   UNL     1      31.323  44.545  57.113  1.00  0.00    -0.356 OA
HETATM   23  C   UNL     1      31.913  43.254  57.203  1.00  0.00     0.210 C 
ENDBRANCH  21  22
ENDBRANCH  11  12
ENDBRANCH   3  11
BRANCH   1  24
HETATM   24  N   UNL     1      22.962  48.335  49.660  1.00  0.00    -0.281 NA
HETATM   25  C   UNL     1      22.167  47.822  48.553  1.00  0.00     0.114 C 
HETATM   26  H   UNL     1      23.012  49.350  49.644  1.00  0.00     0.128 HD
ENDBRANCH   1  24
TORSDOF 4
ENDMDL
MODEL 2
REMARK VINA RESULT:      -8.9      1.479      2.850
REMARK  4 active torsions:
REMARK  status: ('A' for Active; 'I' for Inactive)
REMARK    1  A    between atoms: N_2  and  C_3 
REMARK    2  A    between atoms: C_5  and  C_6 
REMARK    3  A    between atoms: C_6  and  C_7 
REMARK    4  A    between atoms: C_14  and  O_15 
ROOT
HETATM    1  C   UNL     1      25.555  48.795  48.934  1.00  0.00     0.113 A 
HETATM    2  N   UNL     1      25.623  47.621  49.593  1.00  0.00    -0.223 NA
HETATM    3  C   UNL     1      24.473  47.059  50.053  1.00  0.00     0.106 A 
HETATM    4  N   UNL     1      23.265  47.621  49.889  1.00  0.00    -0.347 N 
HETATM    5  H   UNL     1      22.430  47.175  50.260  1.00  0.00     0.167 HD
HETATM    6  C   UNL     1      23.192  48.769  49.220  1.00  0.00     0.020 A 
HETATM    7  C   UNL     1      24.328  49.380  48.719  1.00  0.00     0.005 A 
HETATM    8  C   UNL     1      23.971  50.651  48.017  1.00  0.00     0.044 C 
HETATM    9  C   UNL     1      22.458  50.459  47.797  1.00  0.00     0.011 C 
HETATM   10  C   UNL     1      21.953  49.555  48.933  1.00  0.00     0.058 C 
ENDROOT
BRANCH   3  11
HETATM   11  C   UNL     1      24.579  45.761  50.804  1.00  0.00     0.085 C 
BRANCH  11  12
HETATM   12  C   UNL     1      25.872  45.649  51.620  1.00  0.00     0.021 C 
HETATM   13  C   UNL     1      26.203  44.213  52.037  1.00  0.00     0.181 C 
HETATM   14  O   UNL     1      27.491  44.144  52.653  1.00  0.00    -0.350 OA
HETATM   15  C   UNL     1      27.674  45.034  53.680  1.00  0.00     0.077 A 
HETATM   16  C   UNL     1      26.889  46.180  53.843  1.00  0.00    -0.024 A 
HETATM   17  C   UNL     1      28.730  44.758  54.553  1.00  0.00     0.074 A 
HETATM   18  C   UNL     1      25.763  46.488  52.900  1.00  0.00     0.048 C 
HETATM   19  C   UNL     1      27.145  47.026  54.927  1.00  0.00     0.012 A 
HETATM   20  C   UNL     1      28.189  46.739  55.809  1.00  0.00     0.037 A 
HETATM   21  C   UNL     1      28.988  45.608  55.627  1.00  0.00     0.070 A 
BRANCH  21  22
HETATM   22  O   UNL     1      29.975  45.452  56.559  1.00  0.00    -0.356 OA
HETATM   23  C   UNL     1      29.712  45.945  57.868  1.00  0.00     0.210 C 
ENDBRANCH  21  22
ENDBRANCH  11  12
ENDBRANCH   3  11
BRANCH   1  24
HETATM   24  N   UNL     1      26.700  49.370  48.394  1.00  0.00    -0.281 NA
HETATM   25  C   UNL     1      27.943  49.135  49.115  1.00  0.00     0.114 C 
HETATM   26  H   UNL     1      26.570  50.356  48.184  1.00  0.00     0.128 HD
ENDBRANCH   1  24
TORSDOF 4
ENDMDL
MODEL 3
REMARK VINA RESULT:      -8.7      3.222      7.902
REMARK  4 active torsions:
REMARK  status: ('A' for Active; 'I' for Inactive)
REMARK    1  A    between atoms: N_2  and  C_3 
REMARK    2  A    between atoms: C_5  and  C_6 
REMARK    3  A    between atoms: C_6  and  C_7 
REMARK    4  A    between atoms: C_14  and  O_15 
ROOT
HETATM    1  C   UNL     1      27.975  45.889  54.901  1.00  0.00     0.113 A 
HETATM    2  N   UNL     1      27.087  45.641  53.918  1.00  0.00    -0.223 NA
HETATM    3  C   UNL     1      27.293  44.572  53.102  1.00  0.00     0.106 A 
HETATM    4  N   UNL     1      28.346  43.748  53.223  1.00  0.00    -0.347 N 
HETATM    5  H   UNL     1      28.472  42.968  52.584  1.00  0.00     0.167 HD
HETATM    6  C   UNL     1      29.213  43.978  54.206  1.00  0.00     0.020 A 
HETATM    7  C   UNL     1      29.047  45.044  55.074  1.00  0.00     0.005 A 
HETATM    8  C   UNL     1      30.155  45.078  56.077  1.00  0.00     0.044 C 
HETATM    9  C   UNL     1      30.721  43.651  55.949  1.00  0.00     0.011 C 
HETATM   10  C   UNL     1      30.445  43.189  54.509  1.00  0.00     0.058 C 
ENDROOT
BRANCH   3  11
HETATM   11  C   UNL     1      26.300  44.330  52.000  1.00  0.00     0.085 C 
BRANCH  11  12
HETATM   12  C   UNL     1      25.694  45.626  51.448  1.00  0.00     0.021 C 
HETATM   13  C   UNL     1      24.475  45.392  50.552  1.00  0.00     0.181 C 
HETATM   14  O   UNL     1      23.856  46.631  50.198  1.00  0.00    -0.350 OA
HETATM   15  C   UNL     1      24.716  47.559  49.668  1.00  0.00     0.077 A 
HETATM   16  C   UNL     1      26.102  47.503  49.846  1.00  0.00    -0.024 A 
HETATM   17  C   UNL     1      24.126  48.609  48.958  1.00  0.00     0.074 A 
HETATM   18  C   UNL     1      26.738  46.386  50.619  1.00  0.00     0.048 C 
HETATM   19  C   UNL     1      26.899  48.491  49.260  1.00  0.00     0.012 A 
HETATM   20  C   UNL     1      26.310  49.529  48.535  1.00  0.00     0.037 A 
HETATM   21  C   UNL     1      24.923  49.597  48.382  1.00  0.00     0.070 A 
BRANCH  21  22
HETATM   22  O   UNL     1      24.482  50.666  47.655  1.00  0.00    -0.356 OA
HETATM   23  C   UNL     1      23.143  51.093  47.878  1.00  0.00     0.210 C 
ENDBRANCH  21  22
ENDBRANCH  11  12
ENDBRANCH   3  11
BRANCH   1  24
HETATM   24  N   UNL     1      27.766  46.934  55.794  1.00  0.00    -0.281 NA
HETATM   25  C   UNL     1      26.759  47.915  55.417  1.00  0.00     0.114 C 
HETATM   26  H   UNL     1      28.637  47.380  56.072  1.00  0.00     0.128 HD
ENDBRANCH   1  24
TORSDOF 4
ENDMDL
MODEL 4
REMARK VINA RESULT:      -8.1      1.942      3.748
REMARK  4 active torsions:
REMARK  status: ('A' for Active; 'I' for Inactive)
REMARK    1  A    between atoms: N_2  and  C_3 
REMARK    2  A    between atoms: C_5  and  C_6 
REMARK    3  A    between atoms: C_6  and  C_7 
REMARK    4  A    between atoms: C_14  and  O_15 
ROOT
HETATM    1  C   UNL     1      24.548  49.358  48.463  1.00  0.00     0.113 A 
HETATM    2  N   UNL     1      24.689  48.047  48.742  1.00  0.00    -0.223 NA
HETATM    3  C   UNL     1      23.631  47.371  49.267  1.00  0.00     0.106 A 
HETATM    4  N   UNL     1      22.448  47.948  49.528  1.00  0.00    -0.347 N 
HETATM    5  H   UNL     1      21.686  47.411  49.934  1.00  0.00     0.167 HD
HETATM    6  C   UNL     1      22.299  49.237  49.234  1.00  0.00     0.020 A 
HETATM    7  C   UNL     1      23.337  49.972  48.687  1.00  0.00     0.005 A 
HETATM    8  C   UNL     1      22.911  51.386  48.457  1.00  0.00     0.044 C 
HETATM    9  C   UNL     1      21.378  51.254  48.526  1.00  0.00     0.011 C 
HETATM   10  C   UNL     1      21.073  50.064  49.449  1.00  0.00     0.058 C 
ENDROOT
BRANCH   3  11
HETATM   11  C   UNL     1      23.820  45.915  49.589  1.00  0.00     0.085 C 
BRANCH  11  12
HETATM   12  C   UNL     1      25.230  45.597  50.101  1.00  0.00     0.021 C 
HETATM   13  C   UNL     1      25.814  44.309  49.512  1.00  0.00     0.181 C 
HETATM   14  O   UNL     1      27.181  44.146  49.896  1.00  0.00    -0.350 OA
HETATM   15  C   UNL     1      27.404  44.242  51.245  1.00  0.00     0.077 A 
HETATM   16  C   UNL     1      26.508  44.861  52.123  1.00  0.00    -0.024 A 
HETATM   17  C   UNL     1      28.613  43.715  51.708  1.00  0.00     0.074 A 
HETATM   18  C   UNL     1      25.215  45.440  51.628  1.00  0.00     0.048 C 
HETATM   19  C   UNL     1      26.817  44.904  53.486  1.00  0.00     0.012 A 
HETATM   20  C   UNL     1      28.017  44.361  53.950  1.00  0.00     0.037 A 
HETATM   21  C   UNL     1      28.922  43.768  53.067  1.00  0.00     0.070 A 
BRANCH  21  22
HETATM   22  O   UNL     1      30.056  43.283  53.654  1.00  0.00    -0.356 OA
HETATM   23  C   UNL     1      29.987  42.979  55.043  1.00  0.00     0.210 C 
ENDBRANCH  21  22
ENDBRANCH  11  12
ENDBRANCH   3  11
BRANCH   1  24
HETATM   24  N   UNL     1      25.584  50.069  47.868  1.00  0.00    -0.281 NA
HETATM   25  C   UNL     1      26.908  49.891  48.449  1.00  0.00     0.114 C 
HETATM   26  H   UNL     1      25.357  51.053  47.753  1.00  0.00     0.128 HD
ENDBRANCH   1  24
TORSDOF 4
ENDMDL
MODEL 5
REMARK VINA RESULT:      -8.0      3.761      7.939
REMARK  4 active torsions:
REMARK  status: ('A' for Active; 'I' for Inactive)
REMARK    1  A    between atoms: N_2  and  C_3 
REMARK    2  A    between atoms: C_5  and  C_6 
REMARK    3  A    between atoms: C_6  and  C_7 
REMARK    4  A    between atoms: C_14  and  O_15 
ROOT
HETATM    1  C   UNL     1      28.982  45.440  55.309  1.00  0.00     0.113 A 
HETATM    2  N   UNL     1      28.816  44.716  54.185  1.00  0.00    -0.223 NA
HETATM    3  C   UNL     1      29.630  43.649  53.965  1.00  0.00     0.106 A 
HETATM    4  N   UNL     1      30.602  43.280  54.814  1.00  0.00    -0.347 N 
HETATM    5  H   UNL     1      31.199  42.484  54.606  1.00  0.00     0.167 HD
HETATM    6  C   UNL     1      30.755  43.980  55.935  1.00  0.00     0.020 A 
HETATM    7  C   UNL     1      29.947  45.068  56.217  1.00  0.00     0.005 A 
HETATM    8  C   UNL     1      30.328  45.675  57.529  1.00  0.00     0.044 C 
HETATM    9  C   UNL     1      31.150  44.535  58.161  1.00  0.00     0.011 C 
HETATM   10  C   UNL     1      31.773  43.739  57.003  1.00  0.00     0.058 C 
ENDROOT
BRANCH   3  11
HETATM   11  C   UNL     1      29.438  42.871  52.693  1.00  0.00     0.085 C 
BRANCH  11  12
HETATM   12  C   UNL     1      27.982  42.866  52.212  1.00  0.00     0.021 C 
HETATM   13  C   UNL     1      27.548  41.529  51.605  1.00  0.00     0.181 C 
HETATM   14  O   UNL     1      26.147  41.527  51.323  1.00  0.00    -0.350 OA
HETATM   15  C   UNL     1      25.720  42.594  50.575  1.00  0.00     0.077 A 
HETATM   16  C   UNL     1      26.448  43.783  50.461  1.00  0.00    -0.024 A 
HETATM   17  C   UNL     1      24.479  42.450  49.950  1.00  0.00     0.074 A 
HETATM   18  C   UNL     1      27.774  43.947  51.142  1.00  0.00     0.048 C 
HETATM   19  C   UNL     1      25.935  44.816  49.669  1.00  0.00     0.012 A 
HETATM   20  C   UNL     1      24.704  44.663  49.029  1.00  0.00     0.037 A 
HETATM   21  C   UNL     1      23.968  43.485  49.168  1.00  0.00     0.070 A 
BRANCH  21  22
HETATM   22  O   UNL     1      22.779  43.474  48.493  1.00  0.00    -0.356 OA
HETATM   23  C   UNL     1      22.240  44.734  48.110  1.00  0.00     0.210 C 
ENDBRANCH  21  22
ENDBRANCH  11  12
ENDBRANCH   3  11
BRANCH   1  24
HETATM   24  N   UNL     1      28.130  46.499  55.601  1.00  0.00    -0.281 NA
HETATM   25  C   UNL     1      27.258  46.944  54.522  1.00  0.00     0.114 C 
HETATM   26  H   UNL     1      28.621  47.279  56.030  1.00  0.00     0.128 HD
ENDBRANCH   1  24
TORSDOF 4
ENDMDL
MODEL 6
REMARK VINA RESULT:      -8.0      1.651      2.308
REMARK  4 active torsions:
REMARK  status: ('A' for Active; 'I' for Inactive)
REMARK    1  A    between atoms: N_2  and  C_3 
REMARK    2  A    between atoms: C_5  and  C_6 
REMARK    3  A    between atoms: C_6  and  C_7 
REMARK    4  A    between atoms: C_14  and  O_15 
ROOT
HETATM    1  C   UNL     1      24.335  44.713  50.358  1.00  0.00     0.113 A 
HETATM    2  N   UNL     1      25.209  43.744  50.696  1.00  0.00    -0.223 NA
HETATM    3  C   UNL     1      26.541  44.014  50.640  1.00  0.00     0.106 A 
HETATM    4  N   UNL     1      27.034  45.203  50.258  1.00  0.00    -0.347 N 
HETATM    5  H   UNL     1      28.037  45.361  50.217  1.00  0.00     0.167 HD
HETATM    6  C   UNL     1      26.173  46.168  49.945  1.00  0.00     0.020 A 
HETATM    7  C   UNL     1      24.806  45.954  49.995  1.00  0.00     0.005 A 
HETATM    8  C   UNL     1      24.069  47.191  49.595  1.00  0.00     0.044 C 
HETATM    9  C   UNL     1      25.170  48.259  49.741  1.00  0.00     0.011 C 
HETATM   10  C   UNL     1      26.512  47.552  49.495  1.00  0.00     0.058 C 
ENDROOT
BRANCH   3  11
HETATM   11  C   UNL     1      27.496  42.910  51.000  1.00  0.00     0.085 C 
BRANCH  11  12
HETATM   12  C   UNL     1      28.524  43.333  52.056  1.00  0.00     0.021 C 
HETATM   13  C   UNL     1      29.202  42.148  52.751  1.00  0.00     0.181 C 
HETATM   14  O   UNL     1      30.259  42.593  53.604  1.00  0.00    -0.350 OA
HETATM   15  C   UNL     1      29.892  43.571  54.493  1.00  0.00     0.077 A 
HETATM   16  C   UNL     1      28.759  44.372  54.320  1.00  0.00    -0.024 A 
HETATM   17  C   UNL     1      30.745  43.761  55.585  1.00  0.00     0.074 A 
HETATM   18  C   UNL     1      27.849  44.180  53.143  1.00  0.00     0.048 C 
HETATM   19  C   UNL     1      28.461  45.339  55.285  1.00  0.00     0.012 A 
HETATM   20  C   UNL     1      29.303  45.516  56.385  1.00  0.00     0.037 A 
HETATM   21  C   UNL     1      30.449  44.733  56.539  1.00  0.00     0.070 A 
BRANCH  21  22
HETATM   22  O   UNL     1      31.185  45.015  57.656  1.00  0.00    -0.356 OA
HETATM   23  C   UNL     1      30.815  46.171  58.399  1.00  0.00     0.210 C 
ENDBRANCH  21  22
ENDBRANCH  11  12
ENDBRANCH   3  11
BRANCH   1  24
HETATM   24  N   UNL     1      22.966  44.497  50.463  1.00  0.00    -0.281 NA
HETATM   25  C   UNL     1      22.397  43.505  49.560  1.00  0.00     0.114 C 
HETATM   26  H   UNL     1      22.438  45.366  50.443  1.00  0.00     0.128 HD
ENDBRANCH   1  24
TORSDOF 4
ENDMDL
MODEL 7
REMARK VINA RESULT:      -7.9      5.210     10.223
REMARK  4 active torsions:
REMARK  status: ('A' for Active; 'I' for Inactive)
REMARK    1  A    between atoms: N_2  and  C_3 
REMARK    2  A    between atoms: C_5  and  C_6 
REMARK    3  A    between atoms: C_6  and  C_7 
REMARK    4  A    between atoms: C_14  and  O_15 
ROOT
HETATM    1  C   UNL     1      25.651  47.790  49.903  1.00  0.00     0.113 A 
HETATM    2  N   UNL     1      24.657  48.263  49.125  1.00  0.00    -0.223 NA
HETATM    3  C   UNL     1      23.521  47.525  48.992  1.00  0.00     0.106 A 
HETATM    4  N   UNL     1      23.341  46.340  49.595  1.00  0.00    -0.347 N 
HETATM    5  H   UNL     1      22.482  45.813  49.458  1.00  0.00     0.167 HD
HETATM    6  C   UNL     1      24.311  45.881  50.381  1.00  0.00     0.020 A 
HETATM    7  C   UNL     1      25.484  46.594  50.564  1.00  0.00     0.005 A 
HETATM    8  C   UNL     1      26.403  45.859  51.485  1.00  0.00     0.044 C 
HETATM    9  C   UNL     1      25.433  44.864  52.149  1.00  0.00     0.011 C 
HETATM   10  C   UNL     1      24.311  44.591  51.135  1.00  0.00     0.058 C 
ENDROOT
BRANCH   3  11
HETATM   11  C   UNL     1      22.437  48.064  48.101  1.00  0.00     0.085 C 
BRANCH  11  12
HETATM   12  C   UNL     1      21.380  48.867  48.869  1.00  0.00     0.021 C 
HETATM   13  C   UNL     1      20.065  48.106  49.066  1.00  0.00     0.181 C 
HETATM   14  O   UNL     1      19.178  48.832  49.920  1.00  0.00    -0.350 OA
HETATM   15  C   UNL     1      18.969  50.133  49.541  1.00  0.00     0.077 A 
HETATM   16  C   UNL     1      19.837  50.829  48.693  1.00  0.00    -0.024 A 
HETATM   17  C   UNL     1      17.844  50.759  50.085  1.00  0.00     0.074 A 
HETATM   18  C   UNL     1      21.053  50.165  48.119  1.00  0.00     0.048 C 
HETATM   19  C   UNL     1      19.536  52.152  48.356  1.00  0.00     0.012 A 
HETATM   20  C   UNL     1      18.401  52.770  48.885  1.00  0.00     0.037 A 
HETATM   21  C   UNL     1      17.552  52.081  49.753  1.00  0.00     0.070 A 
BRANCH  21  22
HETATM   22  O   UNL     1      16.483  52.807  50.200  1.00  0.00    -0.356 OA
HETATM   23  C   UNL     1      15.193  52.393  49.766  1.00  0.00     0.210 C 
ENDBRANCH  21  22
ENDBRANCH  11  12
ENDBRANCH   3  11
BRANCH   1  24
HETATM   24  N   UNL     1      26.800  48.543  50.116  1.00  0.00    -0.281 NA
HETATM   25  C   UNL     1      27.364  49.206  48.949  1.00  0.00     0.114 C 
HETATM   26  H   UNL     1      27.508  48.023  50.629  1.00  0.00     0.128 HD
ENDBRANCH   1  24
TORSDOF 4
ENDMDL
MODEL 8
REMARK VINA RESULT:      -7.9      3.745      8.132
REMARK  4 active torsions:
REMARK  status: ('A' for Active; 'I' for Inactive)
REMARK    1  A    between atoms: N_2  and  C_3 
REMARK    2  A    between atoms: C_5  and  C_6 
REMARK    3  A    between atoms: C_6  and  C_7 
REMARK    4  A    between atoms: C_14  and  O_15 
ROOT
HETATM    1  C   UNL     1      29.794  43.959  54.926  1.00  0.00     0.113 A 
HETATM    2  N   UNL     1      28.777  44.787  54.617  1.00  0.00    -0.223 NA
HETATM    3  C   UNL     1      28.405  45.735  55.519  1.00  0.00     0.106 A 
HETATM    4  N   UNL     1      29.000  45.885  56.713  1.00  0.00    -0.347 N 
HETATM    5  H   UNL     1      28.682  46.597  57.366  1.00  0.00     0.167 HD
HETATM    6  C   UNL     1      30.018  45.084  57.012  1.00  0.00     0.020 A 
HETATM    7  C   UNL     1      30.448  44.110  56.128  1.00  0.00     0.005 A 
HETATM    8  C   UNL     1      31.599  43.350  56.706  1.00  0.00     0.044 C 
HETATM    9  C   UNL     1      32.052  44.300  57.831  1.00  0.00     0.011 C 
HETATM   10  C   UNL     1      30.809  45.084  58.281  1.00  0.00     0.058 C 
ENDROOT
BRANCH   3  11
HETATM   11  C   UNL     1      27.253  46.631  55.159  1.00  0.00     0.085 C 
BRANCH  11  12
HETATM   12  C   UNL     1      26.783  46.445  53.712  1.00  0.00     0.021 C 
HETATM   13  C   UNL     1      25.838  47.551  53.233  1.00  0.00     0.181 C 
HETATM   14  O   UNL     1      25.561  47.418  51.838  1.00  0.00    -0.350 OA
HETATM   15  C   UNL     1      25.125  46.172  51.466  1.00  0.00     0.077 A 
HETATM   16  C   UNL     1      25.336  45.028  52.242  1.00  0.00    -0.024 A 
HETATM   17  C   UNL     1      24.479  46.090  50.229  1.00  0.00     0.074 A 
HETATM   18  C   UNL     1      26.041  45.109  53.564  1.00  0.00     0.048 C 
HETATM   19  C   UNL     1      24.848  43.800  51.785  1.00  0.00     0.012 A 
HETATM   20  C   UNL     1      24.186  43.723  50.557  1.00  0.00     0.037 A 
HETATM   21  C   UNL     1      24.001  44.863  49.772  1.00  0.00     0.070 A 
BRANCH  21  22
HETATM   22  O   UNL     1      23.344  44.642  48.594  1.00  0.00    -0.356 OA
HETATM   23  C   UNL     1      23.671  43.454  47.883  1.00  0.00     0.210 C 
ENDBRANCH  21  22
ENDBRANCH  11  12
ENDBRANCH   3  11
BRANCH   1  24
HETATM   24  N   UNL     1      30.246  43.020  54.006  1.00  0.00    -0.281 NA
HETATM   25  C   UNL     1      29.667  43.092  52.672  1.00  0.00     0.114 C 
HETATM   26  H   UNL     1      30.212  42.074  54.377  1.00  0.00     0.128 HD
ENDBRANCH   1  24
TORSDOF 4
ENDMDL
MODEL 9
REMARK VINA RESULT:      -7.7      4.289      9.375
REMARK  4 active torsions:
REMARK  status: ('A' for Active; 'I' for Inactive)
REMARK    1  A    between atoms: N_2  and  C_3 
REMARK    2  A    between atoms: C_5  and  C_6 
REMARK    3  A    between atoms: C_6  and  C_7 
REMARK    4  A    between atoms: C_14  and  O_15 
ROOT
HETATM    1  C   UNL     1      24.890  44.675  51.875  1.00  0.00     0.113 A 
HETATM    2  N   UNL     1      24.663  45.472  50.812  1.00  0.00    -0.223 NA
HETATM    3  C   UNL     1      25.144  46.744  50.832  1.00  0.00     0.106 A 
HETATM    4  N   UNL     1      25.833  47.253  51.865  1.00  0.00    -0.347 N 
HETATM    5  H   UNL     1      26.164  48.214  51.846  1.00  0.00     0.167 HD
HETATM    6  C   UNL     1      26.077  46.462  52.907  1.00  0.00     0.020 A 
HETATM    7  C   UNL     1      25.623  45.155  52.937  1.00  0.00     0.005 A 
HETATM    8  C   UNL     1      26.027  44.490  54.214  1.00  0.00     0.044 C 
HETATM    9  C   UNL     1      27.140  45.435  54.705  1.00  0.00     0.011 C 
HETATM   10  C   UNL     1      26.817  46.832  54.152  1.00  0.00     0.058 C 
ENDROOT
BRANCH   3  11
HETATM   11  C   UNL     1      24.859  47.619  49.643  1.00  0.00     0.085 C 
BRANCH  11  12
HETATM   12  C   UNL     1      23.388  48.044  49.555  1.00  0.00     0.021 C 
HETATM   13  C   UNL     1      22.589  47.252  48.516  1.00  0.00     0.181 C 
HETATM   14  O   UNL     1      21.198  47.574  48.588  1.00  0.00    -0.350 OA
HETATM   15  C   UNL     1      20.926  48.917  48.534  1.00  0.00     0.077 A 
HETATM   16  C   UNL     1      21.880  49.899  48.820  1.00  0.00    -0.024 A 
HETATM   17  C   UNL     1      19.612  49.266  48.210  1.00  0.00     0.074 A 
HETATM   18  C   UNL     1      23.288  49.529  49.182  1.00  0.00     0.048 C 
HETATM   19  C   UNL     1      21.512  51.245  48.730  1.00  0.00     0.012 A 
HETATM   20  C   UNL     1      20.203  51.593  48.388  1.00  0.00     0.037 A 
HETATM   21  C   UNL     1      19.247  50.609  48.130  1.00  0.00     0.070 A 
BRANCH  21  22
HETATM   22  O   UNL     1      18.007  51.090  47.813  1.00  0.00    -0.356 OA
HETATM   23  C   UNL     1      16.888  50.409  48.367  1.00  0.00     0.210 C 
ENDBRANCH  21  22
ENDBRANCH  11  12
ENDBRANCH   3  11
BRANCH   1  24
HETATM   24  N   UNL     1      24.470  43.350  51.868  1.00  0.00    -0.281 NA
HETATM   25  C   UNL     1      24.932  42.532  50.755  1.00  0.00     0.114 C 
HETATM   26  H   UNL     1      23.465  43.265  52.001  1.00  0.00     0.128 HD
ENDBRANCH   1  24
TORSDOF 4
ENDMDL
MODEL 10
REMARK VINA RESULT:      -7.7      4.200      9.300
REMARK  4 active torsions:
REMARK  status: ('A' for Active; 'I' for Inactive)
REMARK    1  A    between atoms: N_2  and  C_3 
REMARK    2  A    between atoms: C_5  and  C_6 
REMARK    3  A    between atoms: C_6  and  C_7 
REMARK    4  A    between atoms: C_14  and  O_15 
ROOT
HETATM    1  C   UNL     1      25.932  46.731  52.988  1.00  0.00     0.113 A 
HETATM    2  N   UNL     1      25.537  47.527  51.975  1.00  0.00    -0.223 NA
HETATM    3  C   UNL     1      25.726  47.104  50.696  1.00  0.00     0.106 A 
HETATM    4  N   UNL     1      26.295  45.928  50.389  1.00  0.00    -0.347 N 
HETATM    5  H   UNL     1      26.431  45.654  49.420  1.00  0.00     0.167 HD
HETATM    6  C   UNL     1      26.666  45.130  51.387  1.00  0.00     0.020 A 
HETATM    7  C   UNL     1      26.488  45.504  52.708  1.00  0.00     0.005 A 
HETATM    8  C   UNL     1      26.990  44.435  53.625  1.00  0.00     0.044 C 
HETATM    9  C   UNL     1      27.066  43.229  52.670  1.00  0.00     0.011 C 
HETATM   10  C   UNL     1      27.317  43.791  51.262  1.00  0.00     0.058 C 
ENDROOT
BRANCH   3  11
HETATM   11  C   UNL     1      25.297  48.020  49.584  1.00  0.00     0.085 C 
BRANCH  11  12
HETATM   12  C   UNL     1      23.793  48.318  49.605  1.00  0.00     0.021 C 
HETATM   13  C   UNL     1      22.970  47.346  48.755  1.00  0.00     0.181 C 
HETATM   14  O   UNL     1      21.570  47.567  48.937  1.00  0.00    -0.350 OA
HETATM   15  C   UNL     1      21.177  48.869  48.757  1.00  0.00     0.077 A 
HETATM   16  C   UNL     1      22.063  49.948  48.825  1.00  0.00    -0.024 A 
HETATM   17  C   UNL     1      19.812  49.075  48.537  1.00  0.00     0.074 A 
HETATM   18  C   UNL     1      23.527  49.733  49.076  1.00  0.00     0.048 C 
HETATM   19  C   UNL     1      21.571  51.241  48.621  1.00  0.00     0.012 A 
HETATM   20  C   UNL     1      20.210  51.444  48.382  1.00  0.00     0.037 A 
HETATM   21  C   UNL     1      19.323  50.366  48.342  1.00  0.00     0.070 A 
BRANCH  21  22
HETATM   22  O   UNL     1      18.022  50.708  48.105  1.00  0.00    -0.356 OA
HETATM   23  C   UNL     1      17.637  52.042  48.415  1.00  0.00     0.210 C 
ENDBRANCH  21  22
ENDBRANCH  11  12
ENDBRANCH   3  11
BRANCH   1  24
HETATM   24  N   UNL     1      25.699  47.100  54.309  1.00  0.00    -0.281 NA
HETATM   25  C   UNL     1      26.752  47.866  54.961  1.00  0.00     0.114 C 
HETATM   26  H   UNL     1      25.402  46.312  54.879  1.00  0.00     0.128 HD
ENDBRANCH   1  24
TORSDOF 4
ENDMDL
