MODEL 1
REMARK VINA RESULT:      -9.1      0.000      0.000
REMARK  5 active torsions:
REMARK  status: ('A' for Active; 'I' for Inactive)
REMARK    1  A    between atoms: N_2  and  C_4 
REMARK    2  A    between atoms: C_4  and  C_5 
REMARK    3  A    between atoms: C_5  and  N_6 
REMARK    4  A    between atoms: C_11  and  C_12 
REMARK    5  A    between atoms: C_14  and  O_15 
ROOT
HETATM    1  N   UNL     1      25.187  45.335  51.861  1.00  0.00    -0.332 N 
HETATM    2  C   UNL     1      25.765  46.243  52.734  1.00  0.00     0.279 C 
HETATM    3  O   UNL     1      25.416  47.397  52.890  1.00  0.00    -0.265 OA
HETATM    4  C   UNL     1      26.842  45.527  53.439  1.00  0.00     0.156 A 
HETATM    5  C   UNL     1      26.779  44.256  53.039  1.00  0.00     0.060 A 
HETATM    6  C   UNL     1      25.634  43.970  52.142  1.00  0.00     0.161 C 
HETATM    7  O   UNL     1      27.716  46.089  54.324  1.00  0.00    -0.303 OA
HETATM    8  C   UNL     1      28.683  45.246  54.832  1.00  0.00     0.090 A 
HETATM    9  C   UNL     1      28.768  43.887  54.482  1.00  0.00     0.051 A 
HETATM   10  C   UNL     1      27.748  43.308  53.579  1.00  0.00     0.196 A 
HETATM   11  O   UNL     1      27.699  42.118  53.314  1.00  0.00    -0.287 OA
HETATM   12  C   UNL     1      29.601  45.797  55.726  1.00  0.00     0.041 A 
HETATM   13  C   UNL     1      30.615  44.994  56.252  1.00  0.00     0.045 A 
HETATM   14  C   UNL     1      30.705  43.655  55.877  1.00  0.00     0.117 A 
HETATM   15  F   UNL     1      31.690  42.899  56.376  1.00  0.00    -0.206 F 
HETATM   16  C   UNL     1      29.789  43.088  54.998  1.00  0.00     0.060 A 
ENDROOT
BRANCH   6  17
HETATM   17  C   UNL     1      25.835  43.127  50.912  1.00  0.00    -0.028 A 
HETATM   18  C   UNL     1      24.741  42.386  50.427  1.00  0.00     0.046 A 
HETATM   19  C   UNL     1      24.850  41.641  49.258  1.00  0.00     0.066 A 
HETATM   20  C   UNL     1      26.040  41.607  48.550  1.00  0.00     0.036 A 
HETATM   21  C   UNL     1      27.137  42.331  49.019  1.00  0.00     0.003 A 
HETATM   22  C   UNL     1      27.037  43.092  50.191  1.00  0.00     0.010 A 
BRANCH  19  23
HETATM   23  O   UNL     1      23.741  40.967  48.844  1.00  0.00    -0.361 OA
HETATM   24  H   UNL     1      22.953  41.438  49.171  1.00  0.00     0.217 HD
ENDBRANCH  19  23
ENDBRANCH   6  17
BRANCH   1  25
HETATM   25  C   UNL     1      24.321  45.730  50.750  1.00  0.00     0.155 C 
BRANCH  25  26
HETATM   26  C   UNL     1      25.064  46.389  49.584  1.00  0.00     0.254 C 
BRANCH  26  27
HETATM   27  N   UNL     1      25.244  47.880  49.806  1.00  0.00    -0.077 N 
HETATM   28  C   UNL     1      24.211  48.675  49.061  1.00  0.00     0.269 C 
HETATM   29  H   UNL     1      25.110  48.052  50.813  1.00  0.00     0.279 HD
HETATM   30  C   UNL     1      26.635  48.369  49.498  1.00  0.00     0.269 C 
ENDBRANCH  26  27
ENDBRANCH  25  26
ENDBRANCH   1  25
TORSDOF 5
ENDMDL
MODEL 2
REMARK VINA RESULT:      -8.7      1.868      2.471
REMARK  5 active torsions:
REMARK  status: ('A' for Active; 'I' for Inactive)
REMARK    1  A    between atoms: N_2  and  C_4 
REMARK    2  A    between atoms: C_4  and  C_5 
REMARK    3  A    between atoms: C_5  and  N_6 
REMARK    4  A    between atoms: C_11  and  C_12 
REMARK    5  A    between atoms: C_14  and  O_15 
ROOT
HETATM    1  N   UNL     1      25.460  44.141  51.515  1.00  0.00    -0.332 N 
HETATM    2  C   UNL     1      25.827  45.203  52.326  1.00  0.00     0.279 C 
HETATM    3  O   UNL     1      25.293  46.295  52.348  1.00  0.00    -0.265 OA
HETATM    4  C   UNL     1      26.950  44.733  53.156  1.00  0.00     0.156 A 
HETATM    5  C   UNL     1      27.113  43.439  52.880  1.00  0.00     0.060 A 
HETATM    6  C   UNL     1      26.092  42.895  51.952  1.00  0.00     0.161 C 
HETATM    7  O   UNL     1      27.662  45.504  54.029  1.00  0.00    -0.303 OA
HETATM    8  C   UNL     1      28.708  44.875  54.671  1.00  0.00     0.090 A 
HETATM    9  C   UNL     1      29.027  43.523  54.461  1.00  0.00     0.051 A 
HETATM   10  C   UNL     1      28.176  42.710  53.563  1.00  0.00     0.196 A 
HETATM   11  O   UNL     1      28.331  41.509  53.413  1.00  0.00    -0.287 OA
HETATM   12  C   UNL     1      29.465  45.643  55.556  1.00  0.00     0.041 A 
HETATM   13  C   UNL     1      30.552  45.064  56.214  1.00  0.00     0.045 A 
HETATM   14  C   UNL     1      30.874  43.729  55.978  1.00  0.00     0.117 A 
HETATM   15  F   UNL     1      31.926  43.188  56.603  1.00  0.00    -0.206 F 
HETATM   16  C   UNL     1      30.121  42.947  55.109  1.00  0.00     0.060 A 
ENDROOT
BRANCH   6  17
HETATM   17  C   UNL     1      26.507  41.991  50.824  1.00  0.00    -0.028 A 
HETATM   18  C   UNL     1      26.254  40.612  50.948  1.00  0.00     0.046 A 
HETATM   19  C   UNL     1      26.558  39.738  49.910  1.00  0.00     0.066 A 
HETATM   20  C   UNL     1      27.121  40.205  48.734  1.00  0.00     0.036 A 
HETATM   21  C   UNL     1      27.384  41.569  48.595  1.00  0.00     0.003 A 
HETATM   22  C   UNL     1      27.075  42.460  49.631  1.00  0.00     0.010 A 
BRANCH  19  23
HETATM   23  O   UNL     1      26.265  38.421  50.100  1.00  0.00    -0.361 OA
HETATM   24  H   UNL     1      26.547  37.925  49.311  1.00  0.00     0.217 HD
ENDBRANCH  19  23
ENDBRANCH   6  17
BRANCH   1  25
HETATM   25  C   UNL     1      24.624  44.292  50.324  1.00  0.00     0.155 C 
BRANCH  25  26
HETATM   26  C   UNL     1      23.333  43.469  50.360  1.00  0.00     0.254 C 
BRANCH  26  27
HETATM   27  N   UNL     1      22.914  43.024  48.969  1.00  0.00    -0.077 N 
HETATM   28  C   UNL     1      23.363  41.620  48.683  1.00  0.00     0.269 C 
HETATM   29  H   UNL     1      21.884  43.038  48.947  1.00  0.00     0.279 HD
HETATM   30  C   UNL     1      23.351  43.969  47.881  1.00  0.00     0.269 C 
ENDBRANCH  26  27
ENDBRANCH  25  26
ENDBRANCH   1  25
TORSDOF 5
ENDMDL
MODEL 3
REMARK VINA RESULT:      -8.3      4.703      8.176
REMARK  5 active torsions:
REMARK  status: ('A' for Active; 'I' for Inactive)
REMARK    1  A    between atoms: N_2  and  C_4 
REMARK    2  A    between atoms: C_4  and  C_5 
REMARK    3  A    between atoms: C_5  and  N_6 
REMARK    4  A    between atoms: C_11  and  C_12 
REMARK    5  A    between atoms: C_14  and  O_15 
ROOT
HETATM    1  N   UNL     1      20.923  47.362  47.024  1.00  0.00    -0.332 N 
HETATM    2  C   UNL     1      21.528  46.120  47.133  1.00  0.00     0.279 C 
HETATM    3  O   UNL     1      21.255  45.139  46.470  1.00  0.00    -0.265 OA
HETATM    4  C   UNL     1      22.567  46.244  48.170  1.00  0.00     0.156 A 
HETATM    5  C   UNL     1      22.593  47.527  48.532  1.00  0.00     0.060 A 
HETATM    6  C   UNL     1      21.688  48.389  47.735  1.00  0.00     0.161 C 
HETATM    7  O   UNL     1      23.335  45.220  48.644  1.00  0.00    -0.303 OA
HETATM    8  C   UNL     1      24.216  45.546  49.654  1.00  0.00     0.090 A 
HETATM    9  C   UNL     1      24.337  46.849  50.166  1.00  0.00     0.051 A 
HETATM   10  C   UNL     1      23.537  47.940  49.565  1.00  0.00     0.196 A 
HETATM   11  O   UNL     1      23.665  49.109  49.889  1.00  0.00    -0.287 OA
HETATM   12  C   UNL     1      25.002  44.515  50.170  1.00  0.00     0.041 A 
HETATM   13  C   UNL     1      25.892  44.785  51.211  1.00  0.00     0.045 A 
HETATM   14  C   UNL     1      25.984  46.075  51.729  1.00  0.00     0.117 A 
HETATM   15  F   UNL     1      26.830  46.319  52.737  1.00  0.00    -0.206 F 
HETATM   16  C   UNL     1      25.217  47.115  51.216  1.00  0.00     0.060 A 
ENDROOT
BRANCH   6  17
HETATM   17  C   UNL     1      20.834  49.420  48.421  1.00  0.00    -0.028 A 
HETATM   18  C   UNL     1      20.087  49.025  49.547  1.00  0.00     0.046 A 
HETATM   19  C   UNL     1      19.332  49.949  50.258  1.00  0.00     0.066 A 
HETATM   20  C   UNL     1      19.292  51.279  49.871  1.00  0.00     0.036 A 
HETATM   21  C   UNL     1      20.021  51.688  48.753  1.00  0.00     0.003 A 
HETATM   22  C   UNL     1      20.793  50.767  48.033  1.00  0.00     0.010 A 
BRANCH  19  23
HETATM   23  O   UNL     1      18.653  49.492  51.347  1.00  0.00    -0.361 OA
HETATM   24  H   UNL     1      18.628  48.519  51.311  1.00  0.00     0.217 HD
ENDBRANCH  19  23
ENDBRANCH   6  17
BRANCH   1  25
HETATM   25  C   UNL     1      19.637  47.573  46.361  1.00  0.00     0.155 C 
BRANCH  25  26
HETATM   26  C   UNL     1      18.475  46.802  46.994  1.00  0.00     0.254 C 
BRANCH  26  27
HETATM   27  N   UNL     1      17.268  47.696  47.222  1.00  0.00    -0.077 N 
HETATM   28  C   UNL     1      17.552  49.114  46.821  1.00  0.00     0.269 C 
HETATM   29  H   UNL     1      16.514  47.340  46.617  1.00  0.00     0.279 HD
HETATM   30  C   UNL     1      16.725  47.623  48.625  1.00  0.00     0.269 C 
ENDBRANCH  26  27
ENDBRANCH  25  26
ENDBRANCH   1  25
TORSDOF 5
ENDMDL
MODEL 4
REMARK VINA RESULT:      -8.0      5.971      9.603
REMARK  5 active torsions:
REMARK  status: ('A' for Active; 'I' for Inactive)
REMARK    1  A    between atoms: N_2  and  C_4 
REMARK    2  A    between atoms: C_4  and  C_5 
REMARK    3  A    between atoms: C_5  and  N_6 
REMARK    4  A    between atoms: C_11  and  C_12 
REMARK    5  A    between atoms: C_14  and  O_15 
ROOT
HETATM    1  N   UNL     1      19.658  47.707  48.267  1.00  0.00    -0.332 N 
HETATM    2  C   UNL     1      20.561  46.742  48.686  1.00  0.00     0.279 C 
HETATM    3  O   UNL     1      20.290  45.590  48.962  1.00  0.00    -0.265 OA
HETATM    4  C   UNL     1      21.889  47.380  48.694  1.00  0.00     0.156 A 
HETATM    5  C   UNL     1      21.725  48.608  48.199  1.00  0.00     0.060 A 
HETATM    6  C   UNL     1      20.346  48.879  47.725  1.00  0.00     0.161 C 
HETATM    7  O   UNL     1      23.043  46.795  49.131  1.00  0.00    -0.303 OA
HETATM    8  C   UNL     1      24.169  47.591  49.098  1.00  0.00     0.090 A 
HETATM    9  C   UNL     1      24.151  48.917  48.634  1.00  0.00     0.051 A 
HETATM   10  C   UNL     1      22.890  49.478  48.098  1.00  0.00     0.196 A 
HETATM   11  O   UNL     1      22.824  50.584  47.586  1.00  0.00    -0.287 OA
HETATM   12  C   UNL     1      25.360  47.025  49.554  1.00  0.00     0.041 A 
HETATM   13  C   UNL     1      26.526  47.794  49.567  1.00  0.00     0.045 A 
HETATM   14  C   UNL     1      26.489  49.117  49.129  1.00  0.00     0.117 A 
HETATM   15  F   UNL     1      27.610  49.848  49.159  1.00  0.00    -0.206 F 
HETATM   16  C   UNL     1      25.314  49.689  48.658  1.00  0.00     0.060 A 
ENDROOT
BRANCH   6  17
HETATM   17  C   UNL     1      19.681  50.187  48.058  1.00  0.00    -0.028 A 
HETATM   18  C   UNL     1      18.953  50.840  47.046  1.00  0.00     0.046 A 
HETATM   19  C   UNL     1      18.264  52.017  47.313  1.00  0.00     0.066 A 
HETATM   20  C   UNL     1      18.285  52.576  48.581  1.00  0.00     0.036 A 
HETATM   21  C   UNL     1      19.006  51.945  49.596  1.00  0.00     0.003 A 
HETATM   22  C   UNL     1      19.698  50.754  49.340  1.00  0.00     0.010 A 
BRANCH  19  23
HETATM   23  O   UNL     1      17.568  52.578  46.286  1.00  0.00    -0.361 OA
HETATM   24  H   UNL     1      16.706  52.880  46.624  1.00  0.00     0.217 HD
ENDBRANCH  19  23
ENDBRANCH   6  17
BRANCH   1  25
HETATM   25  C   UNL     1      18.211  47.582  48.446  1.00  0.00     0.155 C 
BRANCH  25  26
HETATM   26  C   UNL     1      17.489  46.941  47.257  1.00  0.00     0.254 C 
BRANCH  26  27
HETATM   27  N   UNL     1      16.068  47.457  47.121  1.00  0.00    -0.077 N 
HETATM   28  C   UNL     1      15.716  47.727  45.687  1.00  0.00     0.269 C 
HETATM   29  H   UNL     1      15.444  46.713  47.466  1.00  0.00     0.279 HD
HETATM   30  C   UNL     1      15.780  48.656  47.988  1.00  0.00     0.269 C 
ENDBRANCH  26  27
ENDBRANCH  25  26
ENDBRANCH   1  25
TORSDOF 5
ENDMDL
MODEL 5
REMARK VINA RESULT:      -8.0      3.046      5.316
REMARK  5 active torsions:
REMARK  status: ('A' for Active; 'I' for Inactive)
REMARK    1  A    between atoms: N_2  and  C_4 
REMARK    2  A    between atoms: C_4  and  C_5 
REMARK    3  A    between atoms: C_5  and  N_6 
REMARK    4  A    between atoms: C_11  and  C_12 
REMARK    5  A    between atoms: C_14  and  O_15 
ROOT
HETATM    1  N   UNL     1      27.238  41.602  51.073  1.00  0.00    -0.332 N 
HETATM    2  C   UNL     1      27.989  41.675  52.235  1.00  0.00     0.279 C 
HETATM    3  O   UNL     1      28.676  40.782  52.692  1.00  0.00    -0.265 OA
HETATM    4  C   UNL     1      27.812  43.036  52.770  1.00  0.00     0.156 A 
HETATM    5  C   UNL     1      27.079  43.704  51.877  1.00  0.00     0.060 A 
HETATM    6  C   UNL     1      26.788  42.929  50.648  1.00  0.00     0.161 C 
HETATM    7  O   UNL     1      28.315  43.491  53.955  1.00  0.00    -0.303 OA
HETATM    8  C   UNL     1      27.986  44.788  54.290  1.00  0.00     0.090 A 
HETATM    9  C   UNL     1      27.195  45.609  53.468  1.00  0.00     0.051 A 
HETATM   10  C   UNL     1      26.739  45.094  52.157  1.00  0.00     0.196 A 
HETATM   11  O   UNL     1      26.137  45.784  51.349  1.00  0.00    -0.287 OA
HETATM   12  C   UNL     1      28.473  45.274  55.503  1.00  0.00     0.041 A 
HETATM   13  C   UNL     1      28.149  46.572  55.903  1.00  0.00     0.045 A 
HETATM   14  C   UNL     1      27.342  47.367  55.092  1.00  0.00     0.117 A 
HETATM   15  F   UNL     1      27.027  48.605  55.493  1.00  0.00    -0.206 F 
HETATM   16  C   UNL     1      26.861  46.902  53.874  1.00  0.00     0.060 A 
ENDROOT
BRANCH   6  17
HETATM   17  C   UNL     1      25.404  42.944  50.059  1.00  0.00    -0.028 A 
HETATM   18  C   UNL     1      25.276  43.010  48.659  1.00  0.00     0.046 A 
HETATM   19  C   UNL     1      24.024  42.963  48.057  1.00  0.00     0.066 A 
HETATM   20  C   UNL     1      22.874  42.857  48.823  1.00  0.00     0.036 A 
HETATM   21  C   UNL     1      22.981  42.796  50.213  1.00  0.00     0.003 A 
HETATM   22  C   UNL     1      24.238  42.835  50.831  1.00  0.00     0.010 A 
BRANCH  19  23
HETATM   23  O   UNL     1      23.986  43.013  46.696  1.00  0.00    -0.361 OA
HETATM   24  H   UNL     1      24.082  42.107  46.351  1.00  0.00     0.217 HD
ENDBRANCH  19  23
ENDBRANCH   6  17
BRANCH   1  25
HETATM   25  C   UNL     1      26.876  40.339  50.430  1.00  0.00     0.155 C 
BRANCH  25  26
HETATM   26  C   UNL     1      28.043  39.641  49.726  1.00  0.00     0.254 C 
BRANCH  26  27
HETATM   27  N   UNL     1      28.353  38.295  50.356  1.00  0.00    -0.077 N 
HETATM   28  C   UNL     1      29.830  38.031  50.391  1.00  0.00     0.269 C 
HETATM   29  H   UNL     1      28.015  38.334  51.329  1.00  0.00     0.279 HD
HETATM   30  C   UNL     1      27.609  37.149  49.720  1.00  0.00     0.269 C 
ENDBRANCH  26  27
ENDBRANCH  25  26
ENDBRANCH   1  25
TORSDOF 5
ENDMDL
MODEL 6
REMARK VINA RESULT:      -7.9      2.883      4.303
REMARK  5 active torsions:
REMARK  status: ('A' for Active; 'I' for Inactive)
REMARK    1  A    between atoms: N_2  and  C_4 
REMARK    2  A    between atoms: C_4  and  C_5 
REMARK    3  A    between atoms: C_5  and  N_6 
REMARK    4  A    between atoms: C_11  and  C_12 
REMARK    5  A    between atoms: C_14  and  O_15 
ROOT
HETATM    1  N   UNL     1      25.474  41.489  50.235  1.00  0.00    -0.332 N 
HETATM    2  C   UNL     1      25.310  42.706  50.878  1.00  0.00     0.279 C 
HETATM    3  O   UNL     1      24.410  43.498  50.677  1.00  0.00    -0.265 OA
HETATM    4  C   UNL     1      26.409  42.823  51.852  1.00  0.00     0.156 A 
HETATM    5  C   UNL     1      27.078  41.669  51.812  1.00  0.00     0.060 A 
HETATM    6  C   UNL     1      26.463  40.656  50.922  1.00  0.00     0.161 C 
HETATM    7  O   UNL     1      26.662  43.916  52.629  1.00  0.00    -0.303 OA
HETATM    8  C   UNL     1      27.775  43.833  53.440  1.00  0.00     0.090 A 
HETATM    9  C   UNL     1      28.600  42.696  53.486  1.00  0.00     0.051 A 
HETATM   10  C   UNL     1      28.237  41.507  52.681  1.00  0.00     0.196 A 
HETATM   11  O   UNL     1      28.847  40.452  52.750  1.00  0.00    -0.287 OA
HETATM   12  C   UNL     1      28.069  44.942  54.233  1.00  0.00     0.041 A 
HETATM   13  C   UNL     1      29.198  44.922  55.054  1.00  0.00     0.045 A 
HETATM   14  C   UNL     1      30.023  43.798  55.071  1.00  0.00     0.117 A 
HETATM   15  F   UNL     1      31.111  43.795  55.850  1.00  0.00    -0.206 F 
HETATM   16  C   UNL     1      29.736  42.680  54.297  1.00  0.00     0.060 A 
ENDROOT
BRANCH   6  17
HETATM   17  C   UNL     1      27.328  39.845  49.995  1.00  0.00    -0.028 A 
HETATM   18  C   UNL     1      26.993  38.495  49.783  1.00  0.00     0.046 A 
HETATM   19  C   UNL     1      27.718  37.716  48.888  1.00  0.00     0.066 A 
HETATM   20  C   UNL     1      28.789  38.251  48.191  1.00  0.00     0.036 A 
HETATM   21  C   UNL     1      29.139  39.587  48.393  1.00  0.00     0.003 A 
HETATM   22  C   UNL     1      28.411  40.384  49.286  1.00  0.00     0.010 A 
BRANCH  19  23
HETATM   23  O   UNL     1      27.320  36.424  48.724  1.00  0.00    -0.361 OA
HETATM   24  H   UNL     1      27.681  36.093  47.883  1.00  0.00     0.217 HD
ENDBRANCH  19  23
ENDBRANCH   6  17
BRANCH   1  25
HETATM   25  C   UNL     1      24.804  41.148  48.981  1.00  0.00     0.155 C 
BRANCH  25  26
HETATM   26  C   UNL     1      25.363  41.878  47.756  1.00  0.00     0.254 C 
BRANCH  26  27
HETATM   27  N   UNL     1      25.385  40.980  46.531  1.00  0.00    -0.077 N 
HETATM   28  C   UNL     1      24.736  39.656  46.809  1.00  0.00     0.269 C 
HETATM   29  H   UNL     1      24.836  41.456  45.801  1.00  0.00     0.279 HD
HETATM   30  C   UNL     1      26.761  40.801  45.945  1.00  0.00     0.269 C 
ENDBRANCH  26  27
ENDBRANCH  25  26
ENDBRANCH   1  25
TORSDOF 5
ENDMDL
MODEL 7
REMARK VINA RESULT:      -7.7      2.485      3.352
REMARK  5 active torsions:
REMARK  status: ('A' for Active; 'I' for Inactive)
REMARK    1  A    between atoms: N_2  and  C_4 
REMARK    2  A    between atoms: C_4  and  C_5 
REMARK    3  A    between atoms: C_5  and  N_6 
REMARK    4  A    between atoms: C_11  and  C_12 
REMARK    5  A    between atoms: C_14  and  O_15 
ROOT
HETATM    1  N   UNL     1      25.122  42.381  50.479  1.00  0.00    -0.332 N 
HETATM    2  C   UNL     1      25.148  43.503  51.293  1.00  0.00     0.279 C 
HETATM    3  O   UNL     1      24.322  44.395  51.295  1.00  0.00    -0.265 OA
HETATM    4  C   UNL     1      26.336  43.376  52.153  1.00  0.00     0.156 A 
HETATM    5  C   UNL     1      26.872  42.183  51.889  1.00  0.00     0.060 A 
HETATM    6  C   UNL     1      26.075  41.369  50.941  1.00  0.00     0.161 C 
HETATM    7  O   UNL     1      26.774  44.318  53.039  1.00  0.00    -0.303 OA
HETATM    8  C   UNL     1      27.940  44.016  53.710  1.00  0.00     0.090 A 
HETATM    9  C   UNL     1      28.640  42.813  53.517  1.00  0.00     0.051 A 
HETATM   10  C   UNL     1      28.082  41.791  52.603  1.00  0.00     0.196 A 
HETATM   11  O   UNL     1      28.580  40.686  52.465  1.00  0.00    -0.287 OA
HETATM   12  C   UNL     1      28.421  44.969  54.610  1.00  0.00     0.041 A 
HETATM   13  C   UNL     1      29.611  44.726  55.297  1.00  0.00     0.045 A 
HETATM   14  C   UNL     1      30.310  43.540  55.078  1.00  0.00     0.117 A 
HETATM   15  F   UNL     1      31.458  43.325  55.732  1.00  0.00    -0.206 F 
HETATM   16  C   UNL     1      29.837  42.576  54.195  1.00  0.00     0.060 A 
ENDROOT
BRANCH   6  17
HETATM   17  C   UNL     1      26.761  40.624  49.828  1.00  0.00    -0.028 A 
HETATM   18  C   UNL     1      27.313  41.369  48.769  1.00  0.00     0.046 A 
HETATM   19  C   UNL     1      28.014  40.738  47.748  1.00  0.00     0.066 A 
HETATM   20  C   UNL     1      28.178  39.363  47.747  1.00  0.00     0.036 A 
HETATM   21  C   UNL     1      27.632  38.607  48.786  1.00  0.00     0.003 A 
HETATM   22  C   UNL     1      26.931  39.232  49.825  1.00  0.00     0.010 A 
BRANCH  19  23
HETATM   23  O   UNL     1      28.534  41.531  46.769  1.00  0.00    -0.361 OA
HETATM   24  H   UNL     1      29.073  40.977  46.177  1.00  0.00     0.217 HD
ENDBRANCH  19  23
ENDBRANCH   6  17
BRANCH   1  25
HETATM   25  C   UNL     1      24.309  42.286  49.268  1.00  0.00     0.155 C 
BRANCH  25  26
HETATM   26  C   UNL     1      22.838  42.664  49.473  1.00  0.00     0.254 C 
BRANCH  26  27
HETATM   27  N   UNL     1      22.292  43.449  48.293  1.00  0.00    -0.077 N 
HETATM   28  C   UNL     1      22.292  42.625  47.038  1.00  0.00     0.269 C 
HETATM   29  H   UNL     1      21.315  43.686  48.517  1.00  0.00     0.279 HD
HETATM   30  C   UNL     1      22.986  44.769  48.078  1.00  0.00     0.269 C 
ENDBRANCH  26  27
ENDBRANCH  25  26
ENDBRANCH   1  25
TORSDOF 5
ENDMDL
MODEL 8
REMARK VINA RESULT:      -7.6      3.369      6.449
REMARK  5 active torsions:
REMARK  status: ('A' for Active; 'I' for Inactive)
REMARK    1  A    between atoms: N_2  and  C_4 
REMARK    2  A    between atoms: C_4  and  C_5 
REMARK    3  A    between atoms: C_5  and  N_6 
REMARK    4  A    between atoms: C_11  and  C_12 
REMARK    5  A    between atoms: C_14  and  O_15 
ROOT
HETATM    1  N   UNL     1      27.977  43.387  53.039  1.00  0.00    -0.332 N 
HETATM    2  C   UNL     1      28.769  42.251  52.974  1.00  0.00     0.279 C 
HETATM    3  O   UNL     1      29.708  42.000  53.704  1.00  0.00    -0.265 OA
HETATM    4  C   UNL     1      28.229  41.420  51.885  1.00  0.00     0.156 A 
HETATM    5  C   UNL     1      27.127  42.032  51.448  1.00  0.00     0.060 A 
HETATM    6  C   UNL     1      26.763  43.234  52.236  1.00  0.00     0.161 C 
HETATM    7  O   UNL     1      28.778  40.253  51.435  1.00  0.00    -0.303 OA
HETATM    8  C   UNL     1      28.136  39.659  50.368  1.00  0.00     0.090 A 
HETATM    9  C   UNL     1      26.982  40.199  49.778  1.00  0.00     0.051 A 
HETATM   10  C   UNL     1      26.381  41.425  50.352  1.00  0.00     0.196 A 
HETATM   11  O   UNL     1      25.326  41.891  49.956  1.00  0.00    -0.287 OA
HETATM   12  C   UNL     1      28.685  38.474  49.877  1.00  0.00     0.041 A 
HETATM   13  C   UNL     1      28.091  37.843  48.782  1.00  0.00     0.045 A 
HETATM   14  C   UNL     1      26.961  38.403  48.188  1.00  0.00     0.117 A 
HETATM   15  F   UNL     1      26.409  37.798  47.130  1.00  0.00    -0.206 F 
HETATM   16  C   UNL     1      26.395  39.575  48.675  1.00  0.00     0.060 A 
ENDROOT
BRANCH   6  17
HETATM   17  C   UNL     1      26.333  44.492  51.532  1.00  0.00    -0.028 A 
HETATM   18  C   UNL     1      27.195  45.040  50.562  1.00  0.00     0.046 A 
HETATM   19  C   UNL     1      26.821  46.164  49.835  1.00  0.00     0.066 A 
HETATM   20  C   UNL     1      25.597  46.774  50.054  1.00  0.00     0.036 A 
HETATM   21  C   UNL     1      24.733  46.248  51.016  1.00  0.00     0.003 A 
HETATM   22  C   UNL     1      25.094  45.111  51.749  1.00  0.00     0.010 A 
BRANCH  19  23
HETATM   23  O   UNL     1      27.702  46.621  48.902  1.00  0.00    -0.361 OA
HETATM   24  H   UNL     1      28.213  45.865  48.561  1.00  0.00     0.217 HD
ENDBRANCH  19  23
ENDBRANCH   6  17
BRANCH   1  25
HETATM   25  C   UNL     1      28.376  44.603  53.747  1.00  0.00     0.155 C 
BRANCH  25  26
HETATM   26  C   UNL     1      27.522  44.914  54.980  1.00  0.00     0.254 C 
BRANCH  26  27
HETATM   27  N   UNL     1      28.098  46.067  55.783  1.00  0.00    -0.077 N 
HETATM   28  C   UNL     1      27.938  47.374  55.061  1.00  0.00     0.269 C 
HETATM   29  H   UNL     1      27.558  46.121  56.660  1.00  0.00     0.279 HD
HETATM   30  C   UNL     1      29.527  45.848  56.205  1.00  0.00     0.269 C 
ENDBRANCH  26  27
ENDBRANCH  25  26
ENDBRANCH   1  25
TORSDOF 5
ENDMDL
MODEL 9
REMARK VINA RESULT:      -7.5      2.848      5.094
REMARK  5 active torsions:
REMARK  status: ('A' for Active; 'I' for Inactive)
REMARK    1  A    between atoms: N_2  and  C_4 
REMARK    2  A    between atoms: C_4  and  C_5 
REMARK    3  A    between atoms: C_5  and  N_6 
REMARK    4  A    between atoms: C_11  and  C_12 
REMARK    5  A    between atoms: C_14  and  O_15 
ROOT
HETATM    1  N   UNL     1      26.884  41.608  49.467  1.00  0.00    -0.332 N 
HETATM    2  C   UNL     1      27.930  41.109  50.228  1.00  0.00     0.279 C 
HETATM    3  O   UNL     1      28.534  40.077  50.011  1.00  0.00    -0.265 OA
HETATM    4  C   UNL     1      28.171  42.083  51.306  1.00  0.00     0.156 A 
HETATM    5  C   UNL     1      27.359  43.116  51.076  1.00  0.00     0.060 A 
HETATM    6  C   UNL     1      26.594  43.001  49.811  1.00  0.00     0.161 C 
HETATM    7  O   UNL     1      29.063  41.924  52.328  1.00  0.00    -0.303 OA
HETATM    8  C   UNL     1      29.094  42.939  53.262  1.00  0.00     0.090 A 
HETATM    9  C   UNL     1      28.276  44.078  53.175  1.00  0.00     0.051 A 
HETATM   10  C   UNL     1      27.382  44.239  52.006  1.00  0.00     0.196 A 
HETATM   11  O   UNL     1      26.721  45.247  51.813  1.00  0.00    -0.287 OA
HETATM   12  C   UNL     1      29.983  42.796  54.327  1.00  0.00     0.041 A 
HETATM   13  C   UNL     1      30.037  43.781  55.315  1.00  0.00     0.045 A 
HETATM   14  C   UNL     1      29.202  44.893  55.231  1.00  0.00     0.117 A 
HETATM   15  F   UNL     1      29.253  45.824  56.192  1.00  0.00    -0.206 F 
HETATM   16  C   UNL     1      28.321  45.057  54.169  1.00  0.00     0.060 A 
ENDROOT
BRANCH   6  17
HETATM   17  C   UNL     1      25.130  43.344  49.785  1.00  0.00    -0.028 A 
HETATM   18  C   UNL     1      24.696  44.341  48.890  1.00  0.00     0.046 A 
HETATM   19  C   UNL     1      23.347  44.654  48.777  1.00  0.00     0.066 A 
HETATM   20  C   UNL     1      22.400  43.997  49.546  1.00  0.00     0.036 A 
HETATM   21  C   UNL     1      22.813  43.010  50.443  1.00  0.00     0.003 A 
HETATM   22  C   UNL     1      24.170  42.680  50.561  1.00  0.00     0.010 A 
BRANCH  19  23
HETATM   23  O   UNL     1      23.005  45.616  47.874  1.00  0.00    -0.361 OA
HETATM   24  H   UNL     1      22.378  46.229  48.298  1.00  0.00     0.217 HD
ENDBRANCH  19  23
ENDBRANCH   6  17
BRANCH   1  25
HETATM   25  C   UNL     1      26.124  40.794  48.518  1.00  0.00     0.155 C 
BRANCH  25  26
HETATM   26  C   UNL     1      26.764  40.693  47.131  1.00  0.00     0.254 C 
BRANCH  26  27
HETATM   27  N   UNL     1      27.568  39.414  46.978  1.00  0.00    -0.077 N 
HETATM   28  C   UNL     1      28.025  39.217  45.561  1.00  0.00     0.269 C 
HETATM   29  H   UNL     1      28.406  39.514  47.570  1.00  0.00     0.279 HD
HETATM   30  C   UNL     1      26.855  38.192  47.496  1.00  0.00     0.269 C 
ENDBRANCH  26  27
ENDBRANCH  25  26
ENDBRANCH   1  25
TORSDOF 5
ENDMDL
MODEL 10
REMARK VINA RESULT:      -7.5      2.747      5.170
REMARK  5 active torsions:
REMARK  status: ('A' for Active; 'I' for Inactive)
REMARK    1  A    between atoms: N_2  and  C_4 
REMARK    2  A    between atoms: C_4  and  C_5 
REMARK    3  A    between atoms: C_5  and  N_6 
REMARK    4  A    between atoms: C_11  and  C_12 
REMARK    5  A    between atoms: C_14  and  O_15 
ROOT
HETATM    1  N   UNL     1      28.001  41.593  51.539  1.00  0.00    -0.332 N 
HETATM    2  C   UNL     1      28.875  41.074  52.480  1.00  0.00     0.279 C 
HETATM    3  O   UNL     1      29.311  39.939  52.493  1.00  0.00    -0.265 OA
HETATM    4  C   UNL     1      29.184  42.166  53.419  1.00  0.00     0.156 A 
HETATM    5  C   UNL     1      28.584  43.258  52.944  1.00  0.00     0.060 A 
HETATM    6  C   UNL     1      27.924  43.052  51.633  1.00  0.00     0.161 C 
HETATM    7  O   UNL     1      29.942  42.045  54.548  1.00  0.00    -0.303 OA
HETATM    8  C   UNL     1      30.064  43.185  55.315  1.00  0.00     0.090 A 
HETATM    9  C   UNL     1      29.464  44.406  54.964  1.00  0.00     0.051 A 
HETATM   10  C   UNL     1      28.717  44.504  53.690  1.00  0.00     0.196 A 
HETATM   11  O   UNL     1      28.257  45.555  53.273  1.00  0.00    -0.287 OA
HETATM   12  C   UNL     1      30.819  43.087  56.484  1.00  0.00     0.041 A 
HETATM   13  C   UNL     1      30.954  44.204  57.311  1.00  0.00     0.045 A 
HETATM   14  C   UNL     1      30.332  45.402  56.966  1.00  0.00     0.117 A 
HETATM   15  F   UNL     1      30.457  46.462  57.773  1.00  0.00    -0.206 F 
HETATM   16  C   UNL     1      29.588  45.519  55.798  1.00  0.00     0.060 A 
ENDROOT
BRANCH   6  17
HETATM   17  C   UNL     1      26.548  43.608  51.388  1.00  0.00    -0.028 A 
HETATM   18  C   UNL     1      26.194  43.950  50.069  1.00  0.00     0.046 A 
HETATM   19  C   UNL     1      24.915  44.408  49.774  1.00  0.00     0.066 A 
HETATM   20  C   UNL     1      23.964  44.544  50.772  1.00  0.00     0.036 A 
HETATM   21  C   UNL     1      24.300  44.216  52.087  1.00  0.00     0.003 A 
HETATM   22  C   UNL     1      25.583  43.746  52.395  1.00  0.00     0.010 A 
BRANCH  19  23
HETATM   23  O   UNL     1      24.643  44.699  48.471  1.00  0.00    -0.361 OA
HETATM   24  H   UNL     1      24.352  43.883  48.026  1.00  0.00     0.217 HD
ENDBRANCH  19  23
ENDBRANCH   6  17
BRANCH   1  25
HETATM   25  C   UNL     1      27.198  40.759  50.644  1.00  0.00     0.155 C 
BRANCH  25  26
HETATM   26  C   UNL     1      28.017  40.010  49.588  1.00  0.00     0.254 C 
BRANCH  26  27
HETATM   27  N   UNL     1      28.220  38.553  49.968  1.00  0.00    -0.077 N 
HETATM   28  C   UNL     1      29.572  38.058  49.544  1.00  0.00     0.269 C 
HETATM   29  H   UNL     1      28.171  38.502  50.996  1.00  0.00     0.279 HD
HETATM   30  C   UNL     1      27.125  37.646  49.469  1.00  0.00     0.269 C 
ENDBRANCH  26  27
ENDBRANCH  25  26
ENDBRANCH   1  25
TORSDOF 5
ENDMDL
