MODEL 1
REMARK VINA RESULT:      -9.9      0.000      0.000
REMARK  7 active torsions:
REMARK  status: ('A' for Active; 'I' for Inactive)
REMARK    1  A    between atoms: C_1  and  C_2 
REMARK    2  A    between atoms: C_1  and  O_9 
REMARK    3  A    between atoms: C_2  and  N_3 
REMARK    4  A    between atoms: O_9  and  C_10 
REMARK    5  A    between atoms: C_15  and  C_31 
REMARK    6  A    between atoms: C_17  and  N_18 
REMARK    7  A    between atoms: N_18  and  C_19 
ROOT
HETATM    1  C   UNL     1      24.343  42.523  49.661  1.00  0.00     0.069 A 
HETATM    2  C   UNL     1      25.186  41.466  49.976  1.00  0.00     0.039 A 
HETATM    3  C   UNL     1      26.204  41.643  50.920  1.00  0.00     0.035 A 
HETATM    4  C   UNL     1      26.412  42.855  51.564  1.00  0.00     0.073 A 
HETATM    5  N   UNL     1      27.401  42.937  52.455  1.00  0.00    -0.228 NA
HETATM    6  C   UNL     1      27.593  44.119  53.061  1.00  0.00     0.162 A 
HETATM    7  N   UNL     1      26.859  45.215  52.823  1.00  0.00    -0.210 NA
HETATM    8  C   UNL     1      25.859  45.125  51.931  1.00  0.00     0.143 A 
HETATM    9  C   UNL     1      25.575  43.930  51.250  1.00  0.00     0.041 A 
HETATM   10  C   UNL     1      24.545  43.752  50.290  1.00  0.00     0.054 A 
ENDROOT
BRANCH   8  11
HETATM   11  N   UNL     1      25.055  46.273  51.689  1.00  0.00    -0.340 N 
HETATM   12  H   UNL     1      24.825  46.708  52.575  1.00  0.00     0.167 HD
BRANCH  11  13
HETATM   13  C   UNL     1      25.224  47.223  50.653  1.00  0.00     0.034 A 
HETATM   14  C   UNL     1      26.516  47.676  50.338  1.00  0.00     0.032 A 
HETATM   15  C   UNL     1      26.747  48.651  49.357  1.00  0.00     0.034 A 
HETATM   16  C   UNL     1      25.625  49.183  48.716  1.00  0.00     0.062 A 
HETATM   17  N   UNL     1      25.493  50.132  47.736  1.00  0.00    -0.278 N 
HETATM   18  C   UNL     1      24.330  48.789  49.019  1.00  0.00     0.013 A 
HETATM   19  H   UNL     1      26.232  50.643  47.268  1.00  0.00     0.189 HD
HETATM   20  N   UNL     1      24.220  50.391  47.388  1.00  0.00    -0.186 NA
HETATM   21  C   UNL     1      23.514  49.571  48.173  1.00  0.00     0.152 A 
HETATM   22  C   UNL     1      24.122  47.808  50.005  1.00  0.00     0.044 A 
ENDBRANCH  11  13
ENDBRANCH   8  11
BRANCH   6  23
HETATM   23  C   UNL     1      28.665  44.217  54.073  1.00  0.00     0.012 A 
HETATM   24  C   UNL     1      29.657  43.224  54.194  1.00  0.00     0.015 A 
HETATM   25  C   UNL     1      30.666  43.313  55.159  1.00  0.00     0.001 A 
HETATM   26  C   UNL     1      30.708  44.398  56.028  1.00  0.00     0.000 A 
HETATM   27  C   UNL     1      29.742  45.395  55.932  1.00  0.00     0.001 A 
HETATM   28  C   UNL     1      28.735  45.305  54.966  1.00  0.00     0.015 A 
ENDBRANCH   6  23
BRANCH   1  29
HETATM   29  O   UNL     1      23.302  42.490  48.776  1.00  0.00    -0.349 OA
BRANCH  29  30
HETATM   30  C   UNL     1      23.512  43.127  47.510  1.00  0.00     0.206 C 
BRANCH  30  31
HETATM   31  C   UNL     1      22.245  43.923  47.153  1.00  0.00     0.299 C 
BRANCH  31  32
HETATM   32  N   UNL     1      22.034  45.122  47.986  1.00  0.00     0.094 N 
HETATM   33  C   UNL     1      21.945  46.379  47.211  1.00  0.00     0.298 C 
HETATM   34  C   UNL     1      20.635  46.539  46.420  1.00  0.00     0.198 C 
HETATM   35  O   UNL     1      19.494  46.434  47.279  1.00  0.00    -0.388 OA
HETATM   36  C   UNL     1      19.499  45.185  47.982  1.00  0.00     0.198 C 
HETATM   37  C   UNL     1      20.795  44.999  48.792  1.00  0.00     0.298 C 
ENDBRANCH  31  32
ENDBRANCH  30  31
ENDBRANCH  29  30
ENDBRANCH   1  29
TORSDOF 7
ENDMDL
MODEL 2
REMARK VINA RESULT:      -9.6      2.641      6.029
REMARK  7 active torsions:
REMARK  status: ('A' for Active; 'I' for Inactive)
REMARK    1  A    between atoms: C_1  and  C_2 
REMARK    2  A    between atoms: C_1  and  O_9 
REMARK    3  A    between atoms: C_2  and  N_3 
REMARK    4  A    between atoms: O_9  and  C_10 
REMARK    5  A    between atoms: C_15  and  C_31 
REMARK    6  A    between atoms: C_17  and  N_18 
REMARK    7  A    between atoms: N_18  and  C_19 
ROOT
HETATM    1  C   UNL     1      24.719  45.996  50.892  1.00  0.00     0.069 A 
HETATM    2  C   UNL     1      25.157  47.089  51.629  1.00  0.00     0.039 A 
HETATM    3  C   UNL     1      26.147  46.920  52.605  1.00  0.00     0.035 A 
HETATM    4  C   UNL     1      26.717  45.683  52.872  1.00  0.00     0.073 A 
HETATM    5  N   UNL     1      27.659  45.610  53.814  1.00  0.00    -0.228 NA
HETATM    6  C   UNL     1      28.193  44.404  54.066  1.00  0.00     0.162 A 
HETATM    7  N   UNL     1      27.835  43.277  53.436  1.00  0.00    -0.210 NA
HETATM    8  C   UNL     1      26.892  43.356  52.482  1.00  0.00     0.143 A 
HETATM    9  C   UNL     1      26.279  44.574  52.142  1.00  0.00     0.041 A 
HETATM   10  C   UNL     1      25.272  44.743  51.156  1.00  0.00     0.054 A 
ENDROOT
BRANCH   8  11
HETATM   11  N   UNL     1      26.522  42.172  51.787  1.00  0.00    -0.340 N 
HETATM   12  H   UNL     1      25.618  42.313  51.352  1.00  0.00     0.167 HD
BRANCH  11  13
HETATM   13  C   UNL     1      27.369  41.348  51.008  1.00  0.00     0.034 A 
HETATM   14  C   UNL     1      27.367  41.482  49.610  1.00  0.00     0.032 A 
HETATM   15  C   UNL     1      28.146  40.664  48.780  1.00  0.00     0.034 A 
HETATM   16  C   UNL     1      28.913  39.677  49.402  1.00  0.00     0.062 A 
HETATM   17  N   UNL     1      29.764  38.726  48.903  1.00  0.00    -0.278 N 
HETATM   18  C   UNL     1      28.920  39.486  50.777  1.00  0.00     0.013 A 
HETATM   19  H   UNL     1      30.009  38.564  47.933  1.00  0.00     0.189 HD
HETATM   20  N   UNL     1      30.313  37.931  49.839  1.00  0.00    -0.186 NA
HETATM   21  C   UNL     1      29.795  38.397  50.979  1.00  0.00     0.152 A 
HETATM   22  C   UNL     1      28.133  40.321  51.591  1.00  0.00     0.044 A 
ENDBRANCH  11  13
ENDBRANCH   8  11
BRANCH   6  23
HETATM   23  C   UNL     1      29.258  44.313  55.084  1.00  0.00     0.012 A 
HETATM   24  C   UNL     1      30.135  43.211  55.138  1.00  0.00     0.015 A 
HETATM   25  C   UNL     1      31.138  43.122  56.108  1.00  0.00     0.001 A 
HETATM   26  C   UNL     1      31.289  44.132  57.051  1.00  0.00     0.000 A 
HETATM   27  C   UNL     1      30.439  45.233  57.025  1.00  0.00     0.001 A 
HETATM   28  C   UNL     1      29.438  45.322  56.052  1.00  0.00     0.015 A 
ENDBRANCH   6  23
BRANCH   1  29
HETATM   29  O   UNL     1      23.777  46.016  49.903  1.00  0.00    -0.349 OA
BRANCH  29  30
HETATM   30  C   UNL     1      23.702  47.205  49.107  1.00  0.00     0.206 C 
BRANCH  30  31
HETATM   31  C   UNL     1      22.224  47.469  48.768  1.00  0.00     0.299 C 
BRANCH  31  32
HETATM   32  N   UNL     1      22.019  48.514  47.748  1.00  0.00     0.094 N 
HETATM   33  C   UNL     1      20.633  49.027  47.690  1.00  0.00     0.298 C 
HETATM   34  C   UNL     1      20.245  49.926  48.877  1.00  0.00     0.198 C 
HETATM   35  O   UNL     1      21.149  51.028  49.010  1.00  0.00    -0.388 OA
HETATM   36  C   UNL     1      22.498  50.566  49.159  1.00  0.00     0.198 C 
HETATM   37  C   UNL     1      22.919  49.669  47.980  1.00  0.00     0.298 C 
ENDBRANCH  31  32
ENDBRANCH  30  31
ENDBRANCH  29  30
ENDBRANCH   1  29
TORSDOF 7
ENDMDL
MODEL 3
REMARK VINA RESULT:      -9.5      2.764      6.017
REMARK  7 active torsions:
REMARK  status: ('A' for Active; 'I' for Inactive)
REMARK    1  A    between atoms: C_1  and  C_2 
REMARK    2  A    between atoms: C_1  and  O_9 
REMARK    3  A    between atoms: C_2  and  N_3 
REMARK    4  A    between atoms: O_9  and  C_10 
REMARK    5  A    between atoms: C_15  and  C_31 
REMARK    6  A    between atoms: C_17  and  N_18 
REMARK    7  A    between atoms: N_18  and  C_19 
ROOT
HETATM    1  C   UNL     1      25.203  45.794  51.657  1.00  0.00     0.069 A 
HETATM    2  C   UNL     1      25.677  46.927  52.305  1.00  0.00     0.039 A 
HETATM    3  C   UNL     1      26.679  46.809  53.275  1.00  0.00     0.035 A 
HETATM    4  C   UNL     1      27.227  45.582  53.624  1.00  0.00     0.073 A 
HETATM    5  N   UNL     1      28.183  45.558  54.555  1.00  0.00    -0.228 NA
HETATM    6  C   UNL     1      28.696  44.363  54.886  1.00  0.00     0.162 A 
HETATM    7  N   UNL     1      28.304  43.200  54.347  1.00  0.00    -0.210 NA
HETATM    8  C   UNL     1      27.347  43.230  53.404  1.00  0.00     0.143 A 
HETATM    9  C   UNL     1      26.754  44.433  52.985  1.00  0.00     0.041 A 
HETATM   10  C   UNL     1      25.735  44.551  52.005  1.00  0.00     0.054 A 
ENDROOT
BRANCH   8  11
HETATM   11  N   UNL     1      26.941  42.007  52.804  1.00  0.00    -0.340 N 
HETATM   12  H   UNL     1      25.944  42.042  52.623  1.00  0.00     0.167 HD
BRANCH  11  13
HETATM   13  C   UNL     1      27.640  41.276  51.814  1.00  0.00     0.034 A 
HETATM   14  C   UNL     1      27.429  41.576  50.458  1.00  0.00     0.032 A 
HETATM   15  C   UNL     1      28.053  40.858  49.428  1.00  0.00     0.034 A 
HETATM   16  C   UNL     1      28.882  39.799  49.806  1.00  0.00     0.062 A 
HETATM   17  N   UNL     1      29.625  38.909  49.075  1.00  0.00    -0.278 N 
HETATM   18  C   UNL     1      29.094  39.447  51.132  1.00  0.00     0.013 A 
HETATM   19  H   UNL     1      29.715  38.862  48.067  1.00  0.00     0.189 HD
HETATM   20  N   UNL     1      30.290  38.006  49.816  1.00  0.00    -0.186 NA
HETATM   21  C   UNL     1      29.963  38.336  51.069  1.00  0.00     0.152 A 
HETATM   22  C   UNL     1      28.459  40.183  52.148  1.00  0.00     0.044 A 
ENDBRANCH  11  13
ENDBRANCH   8  11
BRANCH   6  23
HETATM   23  C   UNL     1      29.776  44.323  55.892  1.00  0.00     0.012 A 
HETATM   24  C   UNL     1      30.761  43.315  55.877  1.00  0.00     0.015 A 
HETATM   25  C   UNL     1      31.779  43.274  56.836  1.00  0.00     0.001 A 
HETATM   26  C   UNL     1      31.837  44.239  57.835  1.00  0.00     0.000 A 
HETATM   27  C   UNL     1      30.879  45.247  57.877  1.00  0.00     0.001 A 
HETATM   28  C   UNL     1      29.863  45.288  56.917  1.00  0.00     0.015 A 
ENDBRANCH   6  23
BRANCH   1  29
HETATM   29  O   UNL     1      24.245  45.762  50.684  1.00  0.00    -0.349 OA
BRANCH  29  30
HETATM   30  C   UNL     1      24.703  45.777  49.326  1.00  0.00     0.206 C 
BRANCH  30  31
HETATM   31  C   UNL     1      24.201  44.500  48.631  1.00  0.00     0.299 C 
BRANCH  31  32
HETATM   32  N   UNL     1      22.887  44.032  49.111  1.00  0.00     0.094 N 
HETATM   33  C   UNL     1      21.821  44.096  48.087  1.00  0.00     0.298 C 
HETATM   34  C   UNL     1      21.944  43.029  46.984  1.00  0.00     0.198 C 
HETATM   35  O   UNL     1      21.985  41.710  47.540  1.00  0.00    -0.388 OA
HETATM   36  C   UNL     1      23.065  41.584  48.474  1.00  0.00     0.198 C 
HETATM   37  C   UNL     1      22.965  42.633  49.596  1.00  0.00     0.298 C 
ENDBRANCH  31  32
ENDBRANCH  30  31
ENDBRANCH  29  30
ENDBRANCH   1  29
TORSDOF 7
ENDMDL
MODEL 4
REMARK VINA RESULT:      -9.2      2.381      5.805
REMARK  7 active torsions:
REMARK  status: ('A' for Active; 'I' for Inactive)
REMARK    1  A    between atoms: C_1  and  C_2 
REMARK    2  A    between atoms: C_1  and  O_9 
REMARK    3  A    between atoms: C_2  and  N_3 
REMARK    4  A    between atoms: O_9  and  C_10 
REMARK    5  A    between atoms: C_15  and  C_31 
REMARK    6  A    between atoms: C_17  and  N_18 
REMARK    7  A    between atoms: N_18  and  C_19 
ROOT
HETATM    1  C   UNL     1      24.462  45.756  50.442  1.00  0.00     0.069 A 
HETATM    2  C   UNL     1      24.854  46.885  51.149  1.00  0.00     0.039 A 
HETATM    3  C   UNL     1      25.840  46.781  52.138  1.00  0.00     0.035 A 
HETATM    4  C   UNL     1      26.451  45.574  52.448  1.00  0.00     0.073 A 
HETATM    5  N   UNL     1      27.385  45.562  53.400  1.00  0.00    -0.228 NA
HETATM    6  C   UNL     1      27.959  44.384  53.692  1.00  0.00     0.162 A 
HETATM    7  N   UNL     1      27.648  43.226  53.094  1.00  0.00    -0.210 NA
HETATM    8  C   UNL     1      26.711  43.244  52.130  1.00  0.00     0.143 A 
HETATM    9  C   UNL     1      26.059  44.428  51.748  1.00  0.00     0.041 A 
HETATM   10  C   UNL     1      25.057  44.532  50.749  1.00  0.00     0.054 A 
ENDROOT
BRANCH   8  11
HETATM   11  N   UNL     1      26.391  42.027  51.468  1.00  0.00    -0.340 N 
HETATM   12  H   UNL     1      25.496  42.131  51.002  1.00  0.00     0.167 HD
BRANCH  11  13
HETATM   13  C   UNL     1      27.280  41.197  50.744  1.00  0.00     0.034 A 
HETATM   14  C   UNL     1      27.324  41.291  49.343  1.00  0.00     0.032 A 
HETATM   15  C   UNL     1      28.146  40.464  48.564  1.00  0.00     0.034 A 
HETATM   16  C   UNL     1      28.909  39.510  49.242  1.00  0.00     0.062 A 
HETATM   17  N   UNL     1      29.794  38.562  48.801  1.00  0.00    -0.278 N 
HETATM   18  C   UNL     1      28.872  39.360  50.622  1.00  0.00     0.013 A 
HETATM   19  H   UNL     1      30.076  38.377  47.846  1.00  0.00     0.189 HD
HETATM   20  N   UNL     1      30.324  37.805  49.779  1.00  0.00    -0.186 NA
HETATM   21  C   UNL     1      29.758  38.294  50.886  1.00  0.00     0.152 A 
HETATM   22  C   UNL     1      28.041  40.202  51.382  1.00  0.00     0.044 A 
ENDBRANCH  11  13
ENDBRANCH   8  11
BRANCH   6  23
HETATM   23  C   UNL     1      29.017  44.362  54.722  1.00  0.00     0.012 A 
HETATM   24  C   UNL     1      29.207  45.441  55.607  1.00  0.00     0.015 A 
HETATM   25  C   UNL     1      30.216  45.423  56.577  1.00  0.00     0.001 A 
HETATM   26  C   UNL     1      31.061  44.324  56.684  1.00  0.00     0.000 A 
HETATM   27  C   UNL     1      30.898  43.242  55.824  1.00  0.00     0.001 A 
HETATM   28  C   UNL     1      29.888  43.262  54.857  1.00  0.00     0.015 A 
ENDBRANCH   6  23
BRANCH   1  29
HETATM   29  O   UNL     1      23.530  45.713  49.444  1.00  0.00    -0.349 OA
BRANCH  29  30
HETATM   30  C   UNL     1      23.209  46.956  48.806  1.00  0.00     0.206 C 
BRANCH  30  31
HETATM   31  C   UNL     1      21.690  46.998  48.565  1.00  0.00     0.299 C 
BRANCH  31  32
HETATM   32  N   UNL     1      21.292  46.674  47.182  1.00  0.00     0.094 N 
HETATM   33  C   UNL     1      21.913  45.438  46.657  1.00  0.00     0.298 C 
HETATM   34  C   UNL     1      21.343  44.143  47.262  1.00  0.00     0.198 C 
HETATM   35  O   UNL     1      19.924  44.069  47.088  1.00  0.00    -0.388 OA
HETATM   36  C   UNL     1      19.279  45.211  47.665  1.00  0.00     0.198 C 
HETATM   37  C   UNL     1      19.821  46.525  47.073  1.00  0.00     0.298 C 
ENDBRANCH  31  32
ENDBRANCH  30  31
ENDBRANCH  29  30
ENDBRANCH   1  29
TORSDOF 7
ENDMDL
MODEL 5
REMARK VINA RESULT:      -9.1      2.674      5.697
REMARK  7 active torsions:
REMARK  status: ('A' for Active; 'I' for Inactive)
REMARK    1  A    between atoms: C_1  and  C_2 
REMARK    2  A    between atoms: C_1  and  O_9 
REMARK    3  A    between atoms: C_2  and  N_3 
REMARK    4  A    between atoms: O_9  and  C_10 
REMARK    5  A    between atoms: C_15  and  C_31 
REMARK    6  A    between atoms: C_17  and  N_18 
REMARK    7  A    between atoms: N_18  and  C_19 
ROOT
HETATM    1  C   UNL     1      24.015  45.943  49.728  1.00  0.00     0.069 A 
HETATM    2  C   UNL     1      24.524  47.084  50.334  1.00  0.00     0.039 A 
HETATM    3  C   UNL     1      25.503  46.967  51.329  1.00  0.00     0.035 A 
HETATM    4  C   UNL     1      25.992  45.736  51.743  1.00  0.00     0.073 A 
HETATM    5  N   UNL     1      26.928  45.713  52.692  1.00  0.00    -0.228 NA
HETATM    6  C   UNL     1      27.384  44.514  53.086  1.00  0.00     0.162 A 
HETATM    7  N   UNL     1      26.953  43.345  52.591  1.00  0.00    -0.210 NA
HETATM    8  C   UNL     1      26.015  43.373  51.629  1.00  0.00     0.143 A 
HETATM    9  C   UNL     1      25.481  44.580  51.145  1.00  0.00     0.041 A 
HETATM   10  C   UNL     1      24.486  44.697  50.140  1.00  0.00     0.054 A 
ENDROOT
BRANCH   8  11
HETATM   11  N   UNL     1      25.568  42.142  51.075  1.00  0.00    -0.340 N 
HETATM   12  H   UNL     1      24.595  42.234  50.809  1.00  0.00     0.167 HD
BRANCH  11  13
HETATM   13  C   UNL     1      26.288  41.298  50.196  1.00  0.00     0.034 A 
HETATM   14  C   UNL     1      26.936  41.856  49.081  1.00  0.00     0.032 A 
HETATM   15  C   UNL     1      27.625  41.070  48.146  1.00  0.00     0.034 A 
HETATM   16  C   UNL     1      27.616  39.688  48.352  1.00  0.00     0.062 A 
HETATM   17  N   UNL     1      28.172  38.653  47.647  1.00  0.00    -0.278 N 
HETATM   18  C   UNL     1      26.961  39.092  49.421  1.00  0.00     0.013 A 
HETATM   19  H   UNL     1      28.727  38.709  46.802  1.00  0.00     0.189 HD
HETATM   20  N   UNL     1      27.922  37.437  48.165  1.00  0.00    -0.186 NA
HETATM   21  C   UNL     1      27.183  37.708  49.244  1.00  0.00     0.152 A 
HETATM   22  C   UNL     1      26.280  39.900  50.347  1.00  0.00     0.044 A 
ENDBRANCH  11  13
ENDBRANCH   8  11
BRANCH   6  23
HETATM   23  C   UNL     1      28.443  44.474  54.114  1.00  0.00     0.012 A 
HETATM   24  C   UNL     1      28.607  45.519  55.045  1.00  0.00     0.015 A 
HETATM   25  C   UNL     1      29.616  45.485  56.013  1.00  0.00     0.001 A 
HETATM   26  C   UNL     1      30.490  44.405  56.073  1.00  0.00     0.000 A 
HETATM   27  C   UNL     1      30.354  43.357  55.167  1.00  0.00     0.001 A 
HETATM   28  C   UNL     1      29.343  43.393  54.202  1.00  0.00     0.015 A 
ENDBRANCH   6  23
BRANCH   1  29
HETATM   29  O   UNL     1      23.074  45.908  48.738  1.00  0.00    -0.349 OA
BRANCH  29  30
HETATM   30  C   UNL     1      22.508  47.163  48.340  1.00  0.00     0.206 C 
BRANCH  30  31
HETATM   31  C   UNL     1      20.978  47.068  48.474  1.00  0.00     0.299 C 
BRANCH  31  32
HETATM   32  N   UNL     1      20.275  48.342  48.233  1.00  0.00     0.094 N 
HETATM   33  C   UNL     1      19.012  48.191  47.476  1.00  0.00     0.298 C 
HETATM   34  C   UNL     1      17.866  47.560  48.285  1.00  0.00     0.198 C 
HETATM   35  O   UNL     1      17.610  48.299  49.485  1.00  0.00    -0.388 OA
HETATM   36  C   UNL     1      18.793  48.389  50.290  1.00  0.00     0.198 C 
HETATM   37  C   UNL     1      19.958  49.025  49.510  1.00  0.00     0.298 C 
ENDBRANCH  31  32
ENDBRANCH  30  31
ENDBRANCH  29  30
ENDBRANCH   1  29
TORSDOF 7
ENDMDL
MODEL 6
REMARK VINA RESULT:      -8.9      2.352      3.079
REMARK  7 active torsions:
REMARK  status: ('A' for Active; 'I' for Inactive)
REMARK    1  A    between atoms: C_1  and  C_2 
REMARK    2  A    between atoms: C_1  and  O_9 
REMARK    3  A    between atoms: C_2  and  N_3 
REMARK    4  A    between atoms: O_9  and  C_10 
REMARK    5  A    between atoms: C_15  and  C_31 
REMARK    6  A    between atoms: C_17  and  N_18 
REMARK    7  A    between atoms: N_18  and  C_19 
ROOT
HETATM    1  C   UNL     1      25.598  42.516  49.350  1.00  0.00     0.069 A 
HETATM    2  C   UNL     1      26.604  41.591  49.599  1.00  0.00     0.039 A 
HETATM    3  C   UNL     1      27.483  41.788  50.670  1.00  0.00     0.035 A 
HETATM    4  C   UNL     1      27.390  42.891  51.509  1.00  0.00     0.073 A 
HETATM    5  N   UNL     1      28.264  43.000  52.511  1.00  0.00    -0.228 NA
HETATM    6  C   UNL     1      28.165  44.077  53.306  1.00  0.00     0.162 A 
HETATM    7  N   UNL     1      27.251  45.045  53.151  1.00  0.00    -0.210 NA
HETATM    8  C   UNL     1      26.368  44.927  52.145  1.00  0.00     0.143 A 
HETATM    9  C   UNL     1      26.386  43.833  51.264  1.00  0.00     0.041 A 
HETATM   10  C   UNL     1      25.498  43.636  50.175  1.00  0.00     0.054 A 
ENDROOT
BRANCH   8  11
HETATM   11  N   UNL     1      25.377  45.933  51.986  1.00  0.00    -0.340 N 
HETATM   12  H   UNL     1      25.108  46.280  52.901  1.00  0.00     0.167 HD
BRANCH  11  13
HETATM   13  C   UNL     1      25.349  46.948  50.999  1.00  0.00     0.034 A 
HETATM   14  C   UNL     1      24.153  47.208  50.311  1.00  0.00     0.032 A 
HETATM   15  C   UNL     1      24.071  48.166  49.290  1.00  0.00     0.034 A 
HETATM   16  C   UNL     1      25.249  48.840  48.959  1.00  0.00     0.062 A 
HETATM   17  N   UNL     1      25.519  49.810  48.030  1.00  0.00    -0.278 N 
HETATM   18  C   UNL     1      26.460  48.592  49.590  1.00  0.00     0.013 A 
HETATM   19  H   UNL     1      24.872  50.243  47.382  1.00  0.00     0.189 HD
HETATM   20  N   UNL     1      26.805  50.202  48.001  1.00  0.00    -0.186 NA
HETATM   21  C   UNL     1      27.376  49.456  48.952  1.00  0.00     0.152 A 
HETATM   22  C   UNL     1      26.517  47.629  50.613  1.00  0.00     0.044 A 
ENDBRANCH  11  13
ENDBRANCH   8  11
BRANCH   6  23
HETATM   23  C   UNL     1      29.105  44.195  54.438  1.00  0.00     0.012 A 
HETATM   24  C   UNL     1      30.037  43.179  54.732  1.00  0.00     0.015 A 
HETATM   25  C   UNL     1      30.921  43.288  55.810  1.00  0.00     0.001 A 
HETATM   26  C   UNL     1      30.895  44.416  56.623  1.00  0.00     0.000 A 
HETATM   27  C   UNL     1      29.987  45.436  56.359  1.00  0.00     0.001 A 
HETATM   28  C   UNL     1      29.105  45.326  55.279  1.00  0.00     0.015 A 
ENDBRANCH   6  23
BRANCH   1  29
HETATM   29  O   UNL     1      24.664  42.444  48.355  1.00  0.00    -0.349 OA
BRANCH  29  30
HETATM   30  C   UNL     1      24.582  41.208  47.635  1.00  0.00     0.206 C 
BRANCH  30  31
HETATM   31  C   UNL     1      23.122  40.724  47.669  1.00  0.00     0.299 C 
BRANCH  31  32
HETATM   32  N   UNL     1      22.848  39.580  46.780  1.00  0.00     0.094 N 
HETATM   33  C   UNL     1      21.470  39.054  46.893  1.00  0.00     0.298 C 
HETATM   34  C   UNL     1      20.397  39.964  46.268  1.00  0.00     0.198 C 
HETATM   35  O   UNL     1      20.685  40.237  44.892  1.00  0.00    -0.388 OA
HETATM   36  C   UNL     1      21.982  40.832  44.752  1.00  0.00     0.198 C 
HETATM   37  C   UNL     1      23.080  39.941  45.361  1.00  0.00     0.298 C 
ENDBRANCH  31  32
ENDBRANCH  30  31
ENDBRANCH  29  30
ENDBRANCH   1  29
TORSDOF 7
ENDMDL
MODEL 7
REMARK VINA RESULT:      -8.9      3.516      8.008
REMARK  7 active torsions:
REMARK  status: ('A' for Active; 'I' for Inactive)
REMARK    1  A    between atoms: C_1  and  C_2 
REMARK    2  A    between atoms: C_1  and  O_9 
REMARK    3  A    between atoms: C_2  and  N_3 
REMARK    4  A    between atoms: O_9  and  C_10 
REMARK    5  A    between atoms: C_15  and  C_31 
REMARK    6  A    between atoms: C_17  and  N_18 
REMARK    7  A    between atoms: N_18  and  C_19 
ROOT
HETATM    1  C   UNL     1      27.537  43.549  54.039  1.00  0.00     0.069 A 
HETATM    2  C   UNL     1      28.496  42.545  54.016  1.00  0.00     0.039 A 
HETATM    3  C   UNL     1      28.658  41.762  52.867  1.00  0.00     0.035 A 
HETATM    4  C   UNL     1      27.884  41.950  51.730  1.00  0.00     0.073 A 
HETATM    5  N   UNL     1      28.106  41.163  50.675  1.00  0.00    -0.228 NA
HETATM    6  C   UNL     1      27.342  41.353  49.588  1.00  0.00     0.162 A 
HETATM    7  N   UNL     1      26.373  42.274  49.501  1.00  0.00    -0.210 NA
HETATM    8  C   UNL     1      26.157  43.069  50.563  1.00  0.00     0.143 A 
HETATM    9  C   UNL     1      26.910  42.952  51.744  1.00  0.00     0.041 A 
HETATM   10  C   UNL     1      26.742  43.743  52.910  1.00  0.00     0.054 A 
ENDROOT
BRANCH   8  11
HETATM   11  N   UNL     1      25.150  44.068  50.474  1.00  0.00    -0.340 N 
HETATM   12  H   UNL     1      24.482  43.931  51.225  1.00  0.00     0.167 HD
BRANCH  11  13
HETATM   13  C   UNL     1      25.339  45.437  50.168  1.00  0.00     0.034 A 
HETATM   14  C   UNL     1      24.222  46.285  50.084  1.00  0.00     0.032 A 
HETATM   15  C   UNL     1      24.337  47.639  49.738  1.00  0.00     0.034 A 
HETATM   16  C   UNL     1      25.618  48.112  49.447  1.00  0.00     0.062 A 
HETATM   17  N   UNL     1      26.077  49.350  49.079  1.00  0.00    -0.278 N 
HETATM   18  C   UNL     1      26.745  47.302  49.485  1.00  0.00     0.013 A 
HETATM   19  H   UNL     1      25.535  50.196  48.950  1.00  0.00     0.189 HD
HETATM   20  N   UNL     1      27.403  49.405  48.865  1.00  0.00    -0.186 NA
HETATM   21  C   UNL     1      27.807  48.155  49.113  1.00  0.00     0.152 A 
HETATM   22  C   UNL     1      26.606  45.948  49.838  1.00  0.00     0.044 A 
ENDBRANCH  11  13
ENDBRANCH   8  11
BRANCH   6  23
HETATM   23  C   UNL     1      27.598  40.512  48.402  1.00  0.00     0.012 A 
HETATM   24  C   UNL     1      27.732  39.113  48.505  1.00  0.00     0.015 A 
HETATM   25  C   UNL     1      27.983  38.317  47.382  1.00  0.00     0.001 A 
HETATM   26  C   UNL     1      28.109  38.902  46.127  1.00  0.00     0.000 A 
HETATM   27  C   UNL     1      27.982  40.281  45.992  1.00  0.00     0.001 A 
HETATM   28  C   UNL     1      27.729  41.074  47.116  1.00  0.00     0.015 A 
ENDBRANCH   6  23
BRANCH   1  29
HETATM   29  O   UNL     1      27.282  44.396  55.080  1.00  0.00    -0.349 OA
BRANCH  29  30
HETATM   30  C   UNL     1      28.045  45.608  55.129  1.00  0.00     0.206 C 
BRANCH  30  31
HETATM   31  C   UNL     1      28.672  45.728  56.529  1.00  0.00     0.299 C 
BRANCH  31  32
HETATM   32  N   UNL     1      30.119  46.012  56.517  1.00  0.00     0.094 N 
HETATM   33  C   UNL     1      30.709  46.161  57.866  1.00  0.00     0.298 C 
HETATM   34  C   UNL     1      30.842  44.840  58.643  1.00  0.00     0.198 C 
HETATM   35  O   UNL     1      31.599  43.876  57.902  1.00  0.00    -0.388 OA
HETATM   36  C   UNL     1      31.005  43.638  56.619  1.00  0.00     0.198 C 
HETATM   37  C   UNL     1      30.865  44.942  55.812  1.00  0.00     0.298 C 
ENDBRANCH  31  32
ENDBRANCH  30  31
ENDBRANCH  29  30
ENDBRANCH   1  29
TORSDOF 7
ENDMDL
MODEL 8
REMARK VINA RESULT:      -8.7      2.722      5.957
REMARK  7 active torsions:
REMARK  status: ('A' for Active; 'I' for Inactive)
REMARK    1  A    between atoms: C_1  and  C_2 
REMARK    2  A    between atoms: C_1  and  O_9 
REMARK    3  A    between atoms: C_2  and  N_3 
REMARK    4  A    between atoms: O_9  and  C_10 
REMARK    5  A    between atoms: C_15  and  C_31 
REMARK    6  A    between atoms: C_17  and  N_18 
REMARK    7  A    between atoms: N_18  and  C_19 
ROOT
HETATM    1  C   UNL     1      24.355  45.583  50.277  1.00  0.00     0.069 A 
HETATM    2  C   UNL     1      24.692  46.711  51.013  1.00  0.00     0.039 A 
HETATM    3  C   UNL     1      25.678  46.628  52.004  1.00  0.00     0.035 A 
HETATM    4  C   UNL     1      26.342  45.442  52.288  1.00  0.00     0.073 A 
HETATM    5  N   UNL     1      27.272  45.450  53.244  1.00  0.00    -0.228 NA
HETATM    6  C   UNL     1      27.897  44.293  53.511  1.00  0.00     0.162 A 
HETATM    7  N   UNL     1      27.641  43.137  52.883  1.00  0.00    -0.210 NA
HETATM    8  C   UNL     1      26.709  43.135  51.916  1.00  0.00     0.143 A 
HETATM    9  C   UNL     1      26.005  44.298  51.559  1.00  0.00     0.041 A 
HETATM   10  C   UNL     1      25.003  44.380  50.557  1.00  0.00     0.054 A 
ENDROOT
BRANCH   8  11
HETATM   11  N   UNL     1      26.447  41.921  51.223  1.00  0.00    -0.340 N 
HETATM   12  H   UNL     1      25.601  42.031  50.674  1.00  0.00     0.167 HD
BRANCH  11  13
HETATM   13  C   UNL     1      27.396  41.087  50.586  1.00  0.00     0.034 A 
HETATM   14  C   UNL     1      27.603  41.209  49.202  1.00  0.00     0.032 A 
HETATM   15  C   UNL     1      28.493  40.381  48.503  1.00  0.00     0.034 A 
HETATM   16  C   UNL     1      29.153  39.396  49.241  1.00  0.00     0.062 A 
HETATM   17  N   UNL     1      30.065  38.438  48.882  1.00  0.00    -0.278 N 
HETATM   18  C   UNL     1      28.955  39.218  50.603  1.00  0.00     0.013 A 
HETATM   19  H   UNL     1      30.450  38.267  47.961  1.00  0.00     0.189 HD
HETATM   20  N   UNL     1      30.464  37.649  49.895  1.00  0.00    -0.186 NA
HETATM   21  C   UNL     1      29.784  38.127  50.942  1.00  0.00     0.152 A 
HETATM   22  C   UNL     1      28.060  40.062  51.284  1.00  0.00     0.044 A 
ENDBRANCH  11  13
ENDBRANCH   8  11
BRANCH   6  23
HETATM   23  C   UNL     1      28.952  44.294  54.545  1.00  0.00     0.012 A 
HETATM   24  C   UNL     1      29.141  45.394  55.404  1.00  0.00     0.015 A 
HETATM   25  C   UNL     1      30.145  45.397  56.378  1.00  0.00     0.001 A 
HETATM   26  C   UNL     1      30.988  44.300  56.515  1.00  0.00     0.000 A 
HETATM   27  C   UNL     1      30.827  43.198  55.681  1.00  0.00     0.001 A 
HETATM   28  C   UNL     1      29.820  43.196  54.710  1.00  0.00     0.015 A 
ENDBRANCH   6  23
BRANCH   1  29
HETATM   29  O   UNL     1      23.429  45.521  49.274  1.00  0.00    -0.349 OA
BRANCH  29  30
HETATM   30  C   UNL     1      23.556  44.439  48.344  1.00  0.00     0.206 C 
BRANCH  30  31
HETATM   31  C   UNL     1      22.167  44.143  47.753  1.00  0.00     0.299 C 
BRANCH  31  32
HETATM   32  N   UNL     1      22.153  43.042  46.772  1.00  0.00     0.094 N 
HETATM   33  C   UNL     1      20.835  42.826  46.136  1.00  0.00     0.298 C 
HETATM   34  C   UNL     1      20.443  43.912  45.118  1.00  0.00     0.198 C 
HETATM   35  O   UNL     1      21.440  44.053  44.100  1.00  0.00    -0.388 OA
HETATM   36  C   UNL     1      22.718  44.352  44.676  1.00  0.00     0.198 C 
HETATM   37  C   UNL     1      23.143  43.278  45.694  1.00  0.00     0.298 C 
ENDBRANCH  31  32
ENDBRANCH  30  31
ENDBRANCH  29  30
ENDBRANCH   1  29
TORSDOF 7
ENDMDL
MODEL 9
REMARK VINA RESULT:      -8.6      3.199      8.921
REMARK  7 active torsions:
REMARK  status: ('A' for Active; 'I' for Inactive)
REMARK    1  A    between atoms: C_1  and  C_2 
REMARK    2  A    between atoms: C_1  and  O_9 
REMARK    3  A    between atoms: C_2  and  N_3 
REMARK    4  A    between atoms: O_9  and  C_10 
REMARK    5  A    between atoms: C_15  and  C_31 
REMARK    6  A    between atoms: C_17  and  N_18 
REMARK    7  A    between atoms: N_18  and  C_19 
ROOT
HETATM    1  C   UNL     1      21.182  44.582  47.910  1.00  0.00     0.069 A 
HETATM    2  C   UNL     1      20.128  44.388  47.026  1.00  0.00     0.039 A 
HETATM    3  C   UNL     1      19.288  45.459  46.696  1.00  0.00     0.035 A 
HETATM    4  C   UNL     1      19.467  46.729  47.227  1.00  0.00     0.073 A 
HETATM    5  N   UNL     1      18.626  47.695  46.856  1.00  0.00    -0.228 NA
HETATM    6  C   UNL     1      18.808  48.915  47.385  1.00  0.00     0.162 A 
HETATM    7  N   UNL     1      19.775  49.217  48.263  1.00  0.00    -0.210 NA
HETATM    8  C   UNL     1      20.625  48.242  48.629  1.00  0.00     0.143 A 
HETATM    9  C   UNL     1      20.520  46.935  48.124  1.00  0.00     0.041 A 
HETATM   10  C   UNL     1      21.369  45.850  48.462  1.00  0.00     0.054 A 
ENDROOT
BRANCH   8  11
HETATM   11  N   UNL     1      21.672  48.556  49.539  1.00  0.00    -0.340 N 
HETATM   12  H   UNL     1      21.628  47.916  50.325  1.00  0.00     0.167 HD
BRANCH  11  13
HETATM   13  C   UNL     1      23.002  48.912  49.210  1.00  0.00     0.034 A 
HETATM   14  C   UNL     1      23.230  49.926  48.266  1.00  0.00     0.032 A 
HETATM   15  C   UNL     1      24.521  50.294  47.861  1.00  0.00     0.034 A 
HETATM   16  C   UNL     1      25.586  49.583  48.420  1.00  0.00     0.062 A 
HETATM   17  N   UNL     1      26.942  49.677  48.247  1.00  0.00    -0.278 N 
HETATM   18  C   UNL     1      25.405  48.552  49.331  1.00  0.00     0.013 A 
HETATM   19  H   UNL     1      27.446  50.324  47.651  1.00  0.00     0.189 HD
HETATM   20  N   UNL     1      27.652  48.787  48.963  1.00  0.00    -0.186 NA
HETATM   21  C   UNL     1      26.712  48.102  49.621  1.00  0.00     0.152 A 
HETATM   22  C   UNL     1      24.101  48.203  49.724  1.00  0.00     0.044 A 
ENDBRANCH  11  13
ENDBRANCH   8  11
BRANCH   6  23
HETATM   23  C   UNL     1      17.904  50.001  46.960  1.00  0.00     0.012 A 
HETATM   24  C   UNL     1      18.335  51.021  46.087  1.00  0.00     0.015 A 
HETATM   25  C   UNL     1      17.481  52.055  45.691  1.00  0.00     0.001 A 
HETATM   26  C   UNL     1      16.172  52.097  46.160  1.00  0.00     0.000 A 
HETATM   27  C   UNL     1      15.716  51.105  47.023  1.00  0.00     0.001 A 
HETATM   28  C   UNL     1      16.572  50.071  47.415  1.00  0.00     0.015 A 
ENDBRANCH   6  23
BRANCH   1  29
HETATM   29  O   UNL     1      22.085  43.638  48.308  1.00  0.00    -0.349 OA
BRANCH  29  30
HETATM   30  C   UNL     1      22.627  43.779  49.627  1.00  0.00     0.206 C 
BRANCH  30  31
HETATM   31  C   UNL     1      24.145  43.535  49.555  1.00  0.00     0.299 C 
BRANCH  31  32
HETATM   32  N   UNL     1      24.959  44.684  49.992  1.00  0.00     0.094 N 
HETATM   33  C   UNL     1      24.757  45.053  51.411  1.00  0.00     0.298 C 
HETATM   34  C   UNL     1      25.380  44.064  52.412  1.00  0.00     0.198 C 
HETATM   35  O   UNL     1      26.780  43.888  52.166  1.00  0.00    -0.388 OA
HETATM   36  C   UNL     1      27.009  43.443  50.822  1.00  0.00     0.198 C 
HETATM   37  C   UNL     1      26.404  44.418  49.795  1.00  0.00     0.298 C 
ENDBRANCH  31  32
ENDBRANCH  30  31
ENDBRANCH  29  30
ENDBRANCH   1  29
TORSDOF 7
ENDMDL
MODEL 10
REMARK VINA RESULT:      -8.3      4.016      9.961
REMARK  7 active torsions:
REMARK  status: ('A' for Active; 'I' for Inactive)
REMARK    1  A    between atoms: C_1  and  C_2 
REMARK    2  A    between atoms: C_1  and  O_9 
REMARK    3  A    between atoms: C_2  and  N_3 
REMARK    4  A    between atoms: O_9  and  C_10 
REMARK    5  A    between atoms: C_15  and  C_31 
REMARK    6  A    between atoms: C_17  and  N_18 
REMARK    7  A    between atoms: N_18  and  C_19 
ROOT
HETATM    1  C   UNL     1      23.585  49.225  49.018  1.00  0.00     0.069 A 
HETATM    2  C   UNL     1      23.564  50.599  48.814  1.00  0.00     0.039 A 
HETATM    3  C   UNL     1      22.342  51.280  48.776  1.00  0.00     0.035 A 
HETATM    4  C   UNL     1      21.127  50.627  48.933  1.00  0.00     0.073 A 
HETATM    5  N   UNL     1      20.008  51.352  48.889  1.00  0.00    -0.228 NA
HETATM    6  C   UNL     1      18.842  50.703  49.034  1.00  0.00     0.162 A 
HETATM    7  N   UNL     1      18.735  49.379  49.213  1.00  0.00    -0.210 NA
HETATM    8  C   UNL     1      19.865  48.654  49.265  1.00  0.00     0.143 A 
HETATM    9  C   UNL     1      21.134  49.243  49.130  1.00  0.00     0.041 A 
HETATM   10  C   UNL     1      22.372  48.551  49.165  1.00  0.00     0.054 A 
ENDROOT
BRANCH   8  11
HETATM   11  N   UNL     1      19.767  47.252  49.482  1.00  0.00    -0.340 N 
HETATM   12  H   UNL     1      19.161  47.083  50.276  1.00  0.00     0.167 HD
BRANCH  11  13
HETATM   13  C   UNL     1      19.648  46.247  48.492  1.00  0.00     0.034 A 
HETATM   14  C   UNL     1      18.389  45.984  47.926  1.00  0.00     0.032 A 
HETATM   15  C   UNL     1      18.194  44.971  46.976  1.00  0.00     0.034 A 
HETATM   16  C   UNL     1      19.309  44.203  46.632  1.00  0.00     0.062 A 
HETATM   17  N   UNL     1      19.467  43.155  45.762  1.00  0.00    -0.278 N 
HETATM   18  C   UNL     1      20.563  44.406  47.190  1.00  0.00     0.013 A 
HETATM   19  H   UNL     1      18.762  42.729  45.173  1.00  0.00     0.189 HD
HETATM   20  N   UNL     1      20.716  42.659  45.720  1.00  0.00    -0.186 NA
HETATM   21  C   UNL     1      21.381  43.422  46.593  1.00  0.00     0.152 A 
HETATM   22  C   UNL     1      20.736  45.430  48.138  1.00  0.00     0.044 A 
ENDBRANCH  11  13
ENDBRANCH   8  11
BRANCH   6  23
HETATM   23  C   UNL     1      17.596  51.496  49.018  1.00  0.00     0.012 A 
HETATM   24  C   UNL     1      16.559  51.222  48.105  1.00  0.00     0.015 A 
HETATM   25  C   UNL     1      15.383  51.980  48.085  1.00  0.00     0.001 A 
HETATM   26  C   UNL     1      15.216  53.033  48.979  1.00  0.00     0.000 A 
HETATM   27  C   UNL     1      16.223  53.328  49.893  1.00  0.00     0.001 A 
HETATM   28  C   UNL     1      17.396  52.568  49.912  1.00  0.00     0.015 A 
ENDBRANCH   6  23
BRANCH   1  29
HETATM   29  O   UNL     1      24.698  48.438  49.094  1.00  0.00    -0.349 OA
BRANCH  29  30
HETATM   30  C   UNL     1      24.531  47.138  49.673  1.00  0.00     0.206 C 
BRANCH  30  31
HETATM   31  C   UNL     1      25.340  47.083  50.980  1.00  0.00     0.299 C 
BRANCH  31  32
HETATM   32  N   UNL     1      26.214  45.901  51.097  1.00  0.00     0.094 N 
HETATM   33  C   UNL     1      26.501  45.506  52.493  1.00  0.00     0.298 C 
HETATM   34  C   UNL     1      25.310  44.859  53.221  1.00  0.00     0.198 C 
HETATM   35  O   UNL     1      24.818  43.722  52.503  1.00  0.00    -0.388 OA
HETATM   36  C   UNL     1      24.444  44.086  51.168  1.00  0.00     0.198 C 
HETATM   37  C   UNL     1      25.619  44.729  50.409  1.00  0.00     0.298 C 
ENDBRANCH  31  32
ENDBRANCH  30  31
ENDBRANCH  29  30
ENDBRANCH   1  29
TORSDOF 7
ENDMDL
