MODEL 1
REMARK VINA RESULT:      -8.8      0.000      0.000
REMARK  3 active torsions:
REMARK  status: ('A' for Active; 'I' for Inactive)
REMARK    1  A    between atoms: C_3  and  N_4 
REMARK       I    between atoms: N_4  and  C_5 
REMARK    2  A    between atoms: C_5  and  C_6 
REMARK    3  A    between atoms: C_6  and  C_7 
ROOT
HETATM    1  C   UNL     1      26.636  43.903  52.530  1.00  0.00     0.286 C 
HETATM    2  N   UNL     1      26.972  44.651  53.826  1.00  0.00    -0.056 N 
HETATM    3  H   UNL     1      26.681  45.641  53.723  1.00  0.00     0.278 HD
HETATM    4  H   UNL     1      26.412  44.260  54.594  1.00  0.00     0.278 HD
HETATM    5  C   UNL     1      28.432  44.651  54.199  1.00  0.00     0.209 C 
HETATM    6  C   UNL     1      28.979  43.211  54.151  1.00  0.00     0.115 C 
HETATM    7  N   UNL     1      28.741  42.599  52.855  1.00  0.00    -0.353 N 
HETATM    8  C   UNL     1      27.554  42.719  52.183  1.00  0.00     0.249 C 
HETATM    9  O   UNL     1      27.265  41.919  51.300  1.00  0.00    -0.271 OA
HETATM   10  C   UNL     1      28.608  45.259  55.586  1.00  0.00     0.035 C 
HETATM   11  C   UNL     1      30.086  45.254  55.978  1.00  0.00     0.002 C 
HETATM   12  C   UNL     1      30.711  43.862  55.867  1.00  0.00     0.002 C 
HETATM   13  C   UNL     1      30.467  43.217  54.503  1.00  0.00     0.027 C 
HETATM   14  H   UNL     1      29.252  41.750  52.613  1.00  0.00     0.163 HD
ENDROOT
BRANCH   1  15
HETATM   15  C   UNL     1      26.455  44.839  51.332  1.00  0.00     0.146 C 
BRANCH  15  16
HETATM   16  C   UNL     1      25.085  45.442  51.303  1.00  0.00     0.224 C 
HETATM   17  N   UNL     1      24.747  46.610  50.719  1.00  0.00    -0.325 N 
HETATM   18  H   UNL     1      23.753  46.808  50.854  1.00  0.00     0.169 HD
HETATM   19  O   UNL     1      24.223  44.869  51.988  1.00  0.00    -0.273 OA
BRANCH  17  20
HETATM   20  C   UNL     1      25.394  47.616  49.973  1.00  0.00     0.073 A 
HETATM   21  C   UNL     1      26.763  47.831  49.856  1.00  0.00     0.033 A 
HETATM   22  C   UNL     1      27.250  48.898  49.084  1.00  0.00     0.002 A 
HETATM   23  C   UNL     1      26.380  49.755  48.414  1.00  0.00     0.003 A 
HETATM   24  C   UNL     1      25.009  49.552  48.514  1.00  0.00     0.044 A 
HETATM   25  C   UNL     1      24.537  48.495  49.285  1.00  0.00     0.143 A 
HETATM   26  F   UNL     1      23.209  48.319  49.389  1.00  0.00    -0.204 F 
ENDBRANCH  17  20
ENDBRANCH  15  16
ENDBRANCH   1  15
TORSDOF 3
ENDMDL
MODEL 2
REMARK VINA RESULT:      -8.8      3.510      7.299
REMARK  3 active torsions:
REMARK  status: ('A' for Active; 'I' for Inactive)
REMARK    1  A    between atoms: C_3  and  N_4 
REMARK       I    between atoms: N_4  and  C_5 
REMARK    2  A    between atoms: C_5  and  C_6 
REMARK    3  A    between atoms: C_6  and  C_7 
ROOT
HETATM    1  C   UNL     1      27.302  44.635  53.170  1.00  0.00     0.286 C 
HETATM    2  N   UNL     1      26.545  45.438  52.106  1.00  0.00    -0.056 N 
HETATM    3  H   UNL     1      26.250  46.343  52.520  1.00  0.00     0.278 HD
HETATM    4  H   UNL     1      27.188  45.665  51.336  1.00  0.00     0.278 HD
HETATM    5  C   UNL     1      25.307  44.769  51.565  1.00  0.00     0.209 C 
HETATM    6  C   UNL     1      25.644  43.329  51.136  1.00  0.00     0.115 C 
HETATM    7  N   UNL     1      26.244  42.579  52.226  1.00  0.00    -0.353 N 
HETATM    8  C   UNL     1      27.203  43.105  53.050  1.00  0.00     0.249 C 
HETATM    9  O   UNL     1      27.928  42.360  53.701  1.00  0.00    -0.271 OA
HETATM   10  C   UNL     1      24.757  45.578  50.395  1.00  0.00     0.035 C 
HETATM   11  C   UNL     1      23.505  44.901  49.833  1.00  0.00     0.002 C 
HETATM   12  C   UNL     1      23.753  43.437  49.466  1.00  0.00     0.002 C 
HETATM   13  C   UNL     1      24.380  42.643  50.613  1.00  0.00     0.027 C 
HETATM   14  H   UNL     1      26.295  41.563  52.151  1.00  0.00     0.163 HD
ENDROOT
BRANCH   1  15
HETATM   15  C   UNL     1      27.001  45.103  54.597  1.00  0.00     0.146 C 
BRANCH  15  16
HETATM   16  C   UNL     1      27.822  46.297  54.972  1.00  0.00     0.224 C 
HETATM   17  N   UNL     1      29.009  46.272  55.612  1.00  0.00    -0.325 N 
HETATM   18  H   UNL     1      29.358  47.221  55.765  1.00  0.00     0.169 HD
HETATM   19  O   UNL     1      27.292  47.404  54.782  1.00  0.00    -0.273 OA
BRANCH  17  20
HETATM   20  C   UNL     1      29.889  45.292  56.114  1.00  0.00     0.073 A 
HETATM   21  C   UNL     1      30.364  44.165  55.454  1.00  0.00     0.033 A 
HETATM   22  C   UNL     1      31.226  43.270  56.106  1.00  0.00     0.002 A 
HETATM   23  C   UNL     1      31.632  43.493  57.421  1.00  0.00     0.003 A 
HETATM   24  C   UNL     1      31.173  44.617  58.095  1.00  0.00     0.044 A 
HETATM   25  C   UNL     1      30.315  45.495  57.441  1.00  0.00     0.143 A 
HETATM   26  F   UNL     1      29.863  46.570  58.109  1.00  0.00    -0.204 F 
ENDBRANCH  17  20
ENDBRANCH  15  16
ENDBRANCH   1  15
TORSDOF 3
ENDMDL
MODEL 3
REMARK VINA RESULT:      -8.6      3.065      4.388
REMARK  3 active torsions:
REMARK  status: ('A' for Active; 'I' for Inactive)
REMARK    1  A    between atoms: C_3  and  N_4 
REMARK       I    between atoms: N_4  and  C_5 
REMARK    2  A    between atoms: C_5  and  C_6 
REMARK    3  A    between atoms: C_6  and  C_7 
ROOT
HETATM    1  C   UNL     1      27.955  45.452  54.491  1.00  0.00     0.286 C 
HETATM    2  N   UNL     1      29.177  44.527  54.537  1.00  0.00    -0.056 N 
HETATM    3  H   UNL     1      28.912  43.606  54.139  1.00  0.00     0.278 HD
HETATM    4  H   UNL     1      29.911  44.909  53.927  1.00  0.00     0.278 HD
HETATM    5  C   UNL     1      29.731  44.274  55.916  1.00  0.00     0.209 C 
HETATM    6  C   UNL     1      29.937  45.616  56.644  1.00  0.00     0.115 C 
HETATM    7  N   UNL     1      28.710  46.394  56.677  1.00  0.00    -0.353 N 
HETATM    8  C   UNL     1      27.882  46.521  55.594  1.00  0.00     0.249 C 
HETATM    9  O   UNL     1      27.079  47.446  55.541  1.00  0.00    -0.271 OA
HETATM   10  C   UNL     1      31.040  43.500  55.810  1.00  0.00     0.035 C 
HETATM   11  C   UNL     1      31.615  43.247  57.204  1.00  0.00     0.002 C 
HETATM   12  C   UNL     1      31.764  44.537  58.012  1.00  0.00     0.002 C 
HETATM   13  C   UNL     1      30.473  45.356  58.053  1.00  0.00     0.027 C 
HETATM   14  H   UNL     1      28.647  47.181  57.323  1.00  0.00     0.163 HD
ENDROOT
BRANCH   1  15
HETATM   15  C   UNL     1      26.634  44.688  54.366  1.00  0.00     0.146 C 
BRANCH  15  16
HETATM   16  C   UNL     1      26.826  43.353  53.717  1.00  0.00     0.224 C 
HETATM   17  N   UNL     1      26.415  43.007  52.480  1.00  0.00    -0.325 N 
HETATM   18  H   UNL     1      26.653  42.034  52.278  1.00  0.00     0.169 HD
HETATM   19  O   UNL     1      27.293  42.458  54.440  1.00  0.00    -0.273 OA
BRANCH  17  20
HETATM   20  C   UNL     1      25.758  43.631  51.400  1.00  0.00     0.073 A 
HETATM   21  C   UNL     1      24.413  43.537  51.062  1.00  0.00     0.033 A 
HETATM   22  C   UNL     1      23.915  44.209  49.935  1.00  0.00     0.002 A 
HETATM   23  C   UNL     1      24.750  44.990  49.137  1.00  0.00     0.003 A 
HETATM   24  C   UNL     1      26.096  45.101  49.463  1.00  0.00     0.044 A 
HETATM   25  C   UNL     1      26.580  44.427  50.579  1.00  0.00     0.143 A 
HETATM   26  F   UNL     1      27.887  44.527  50.874  1.00  0.00    -0.204 F 
ENDBRANCH  17  20
ENDBRANCH  15  16
ENDBRANCH   1  15
TORSDOF 3
ENDMDL
MODEL 4
REMARK VINA RESULT:      -8.5      3.178      7.485
REMARK  3 active torsions:
REMARK  status: ('A' for Active; 'I' for Inactive)
REMARK    1  A    between atoms: C_3  and  N_4 
REMARK       I    between atoms: N_4  and  C_5 
REMARK    2  A    between atoms: C_5  and  C_6 
REMARK    3  A    between atoms: C_6  and  C_7 
ROOT
HETATM    1  C   UNL     1      25.751  45.029  54.356  1.00  0.00     0.286 C 
HETATM    2  N   UNL     1      24.903  44.565  53.166  1.00  0.00    -0.056 N 
HETATM    3  H   UNL     1      25.023  43.541  53.052  1.00  0.00     0.278 HD
HETATM    4  H   UNL     1      23.910  44.721  53.380  1.00  0.00     0.278 HD
HETATM    5  C   UNL     1      25.254  45.206  51.847  1.00  0.00     0.209 C 
HETATM    6  C   UNL     1      25.309  46.736  52.014  1.00  0.00     0.115 C 
HETATM    7  N   UNL     1      26.225  47.120  53.074  1.00  0.00    -0.353 N 
HETATM    8  C   UNL     1      26.281  46.471  54.279  1.00  0.00     0.249 C 
HETATM    9  O   UNL     1      26.783  47.025  55.251  1.00  0.00    -0.271 OA
HETATM   10  C   UNL     1      24.229  44.804  50.792  1.00  0.00     0.035 C 
HETATM   11  C   UNL     1      24.572  45.457  49.452  1.00  0.00     0.002 C 
HETATM   12  C   UNL     1      24.725  46.975  49.570  1.00  0.00     0.002 C 
HETATM   13  C   UNL     1      25.692  47.382  50.681  1.00  0.00     0.027 C 
HETATM   14  H   UNL     1      26.530  48.092  53.130  1.00  0.00     0.163 HD
ENDROOT
BRANCH   1  15
HETATM   15  C   UNL     1      26.867  44.044  54.714  1.00  0.00     0.146 C 
BRANCH  15  16
HETATM   16  C   UNL     1      28.122  44.328  53.950  1.00  0.00     0.224 C 
HETATM   17  N   UNL     1      29.318  44.650  54.484  1.00  0.00    -0.325 N 
HETATM   18  H   UNL     1      30.011  44.811  53.750  1.00  0.00     0.169 HD
HETATM   19  O   UNL     1      28.007  44.391  52.715  1.00  0.00    -0.273 OA
BRANCH  17  20
HETATM   20  C   UNL     1      29.860  44.816  55.775  1.00  0.00     0.073 A 
HETATM   21  C   UNL     1      29.567  45.818  56.692  1.00  0.00     0.033 A 
HETATM   22  C   UNL     1      30.213  45.853  57.938  1.00  0.00     0.002 A 
HETATM   23  C   UNL     1      31.152  44.884  58.286  1.00  0.00     0.003 A 
HETATM   24  C   UNL     1      31.454  43.870  57.385  1.00  0.00     0.044 A 
HETATM   25  C   UNL     1      30.811  43.848  56.152  1.00  0.00     0.143 A 
HETATM   26  F   UNL     1      31.124  42.874  55.281  1.00  0.00    -0.204 F 
ENDBRANCH  17  20
ENDBRANCH  15  16
ENDBRANCH   1  15
TORSDOF 3
ENDMDL
MODEL 5
REMARK VINA RESULT:      -8.5      2.479      7.465
REMARK  3 active torsions:
REMARK  status: ('A' for Active; 'I' for Inactive)
REMARK    1  A    between atoms: C_3  and  N_4 
REMARK       I    between atoms: N_4  and  C_5 
REMARK    2  A    between atoms: C_5  and  C_6 
REMARK    3  A    between atoms: C_6  and  C_7 
ROOT
HETATM    1  C   UNL     1      26.357  47.701  50.013  1.00  0.00     0.286 C 
HETATM    2  N   UNL     1      24.829  47.671  50.130  1.00  0.00    -0.056 N 
HETATM    3  H   UNL     1      24.518  46.682  50.177  1.00  0.00     0.278 HD
HETATM    4  H   UNL     1      24.552  48.107  51.020  1.00  0.00     0.278 HD
HETATM    5  C   UNL     1      24.091  48.317  48.986  1.00  0.00     0.209 C 
HETATM    6  C   UNL     1      24.669  49.721  48.725  1.00  0.00     0.115 C 
HETATM    7  N   UNL     1      26.103  49.669  48.497  1.00  0.00    -0.353 N 
HETATM    8  C   UNL     1      26.947  48.900  49.252  1.00  0.00     0.249 C 
HETATM    9  O   UNL     1      28.148  49.148  49.275  1.00  0.00    -0.271 OA
HETATM   10  C   UNL     1      22.602  48.386  49.308  1.00  0.00     0.035 C 
HETATM   11  C   UNL     1      21.846  49.050  48.156  1.00  0.00     0.002 C 
HETATM   12  C   UNL     1      22.429  50.417  47.791  1.00  0.00     0.002 C 
HETATM   13  C   UNL     1      23.937  50.364  47.545  1.00  0.00     0.027 C 
HETATM   14  H   UNL     1      26.563  50.481  48.085  1.00  0.00     0.163 HD
ENDROOT
BRANCH   1  15
HETATM   15  C   UNL     1      26.943  46.378  49.511  1.00  0.00     0.146 C 
BRANCH  15  16
HETATM   16  C   UNL     1      26.098  45.210  49.915  1.00  0.00     0.224 C 
HETATM   17  N   UNL     1      26.266  44.456  51.020  1.00  0.00    -0.325 N 
HETATM   18  H   UNL     1      25.568  43.710  51.059  1.00  0.00     0.169 HD
HETATM   19  O   UNL     1      25.250  44.838  49.087  1.00  0.00    -0.273 OA
BRANCH  17  20
HETATM   20  C   UNL     1      27.137  44.430  52.128  1.00  0.00     0.073 A 
HETATM   21  C   UNL     1      28.271  43.643  52.292  1.00  0.00     0.033 A 
HETATM   22  C   UNL     1      29.026  43.723  53.473  1.00  0.00     0.002 A 
HETATM   23  C   UNL     1      28.664  44.594  54.499  1.00  0.00     0.003 A 
HETATM   24  C   UNL     1      27.538  45.393  54.350  1.00  0.00     0.044 A 
HETATM   25  C   UNL     1      26.794  45.303  53.178  1.00  0.00     0.143 A 
HETATM   26  F   UNL     1      25.696  46.067  53.053  1.00  0.00    -0.204 F 
ENDBRANCH  17  20
ENDBRANCH  15  16
ENDBRANCH   1  15
TORSDOF 3
ENDMDL
MODEL 6
REMARK VINA RESULT:      -8.4      2.391      7.236
REMARK  3 active torsions:
REMARK  status: ('A' for Active; 'I' for Inactive)
REMARK    1  A    between atoms: C_3  and  N_4 
REMARK       I    between atoms: N_4  and  C_5 
REMARK    2  A    between atoms: C_5  and  C_6 
REMARK    3  A    between atoms: C_6  and  C_7 
ROOT
HETATM    1  C   UNL     1      26.069  45.187  50.918  1.00  0.00     0.286 C 
HETATM    2  N   UNL     1      26.961  46.147  50.121  1.00  0.00    -0.056 N 
HETATM    3  H   UNL     1      27.869  46.243  50.615  1.00  0.00     0.278 HD
HETATM    4  H   UNL     1      27.170  45.729  49.205  1.00  0.00     0.278 HD
HETATM    5  C   UNL     1      26.401  47.534  49.942  1.00  0.00     0.209 C 
HETATM    6  C   UNL     1      24.957  47.445  49.415  1.00  0.00     0.115 C 
HETATM    7  N   UNL     1      24.128  46.624  50.281  1.00  0.00    -0.353 N 
HETATM    8  C   UNL     1      24.555  45.434  50.808  1.00  0.00     0.249 C 
HETATM    9  O   UNL     1      23.739  44.616  51.218  1.00  0.00    -0.271 OA
HETATM   10  C   UNL     1      27.287  48.326  48.987  1.00  0.00     0.035 C 
HETATM   11  C   UNL     1      26.721  49.734  48.790  1.00  0.00     0.002 C 
HETATM   12  C   UNL     1      25.257  49.713  48.348  1.00  0.00     0.002 C 
HETATM   13  C   UNL     1      24.381  48.854  49.260  1.00  0.00     0.027 C 
HETATM   14  H   UNL     1      23.114  46.674  50.180  1.00  0.00     0.163 HD
ENDROOT
BRANCH   1  15
HETATM   15  C   UNL     1      26.506  45.039  52.378  1.00  0.00     0.146 C 
BRANCH  15  16
HETATM   16  C   UNL     1      27.156  43.715  52.629  1.00  0.00     0.224 C 
HETATM   17  N   UNL     1      28.092  43.457  53.565  1.00  0.00    -0.325 N 
HETATM   18  H   UNL     1      28.387  42.479  53.523  1.00  0.00     0.169 HD
HETATM   19  O   UNL     1      26.890  42.814  51.816  1.00  0.00    -0.273 OA
BRANCH  17  20
HETATM   20  C   UNL     1      28.761  44.173  54.579  1.00  0.00     0.073 A 
HETATM   21  C   UNL     1      28.287  45.268  55.292  1.00  0.00     0.033 A 
HETATM   22  C   UNL     1      29.091  45.884  56.264  1.00  0.00     0.002 A 
HETATM   23  C   UNL     1      30.372  45.410  56.542  1.00  0.00     0.003 A 
HETATM   24  C   UNL     1      30.860  44.313  55.845  1.00  0.00     0.044 A 
HETATM   25  C   UNL     1      30.057  43.713  54.880  1.00  0.00     0.143 A 
HETATM   26  F   UNL     1      30.546  42.663  54.199  1.00  0.00    -0.204 F 
ENDBRANCH  17  20
ENDBRANCH  15  16
ENDBRANCH   1  15
TORSDOF 3
ENDMDL
MODEL 7
REMARK VINA RESULT:      -8.4      3.715      7.016
REMARK  3 active torsions:
REMARK  status: ('A' for Active; 'I' for Inactive)
REMARK    1  A    between atoms: C_3  and  N_4 
REMARK       I    between atoms: N_4  and  C_5 
REMARK    2  A    between atoms: C_5  and  C_6 
REMARK    3  A    between atoms: C_6  and  C_7 
ROOT
HETATM    1  C   UNL     1      26.574  46.036  53.624  1.00  0.00     0.286 C 
HETATM    2  N   UNL     1      26.951  44.552  53.704  1.00  0.00    -0.056 N 
HETATM    3  H   UNL     1      27.745  44.446  54.364  1.00  0.00     0.278 HD
HETATM    4  H   UNL     1      26.165  44.026  54.108  1.00  0.00     0.278 HD
HETATM    5  C   UNL     1      27.371  43.931  52.396  1.00  0.00     0.209 C 
HETATM    6  C   UNL     1      26.323  44.250  51.313  1.00  0.00     0.115 C 
HETATM    7  N   UNL     1      26.101  45.682  51.198  1.00  0.00    -0.353 N 
HETATM    8  C   UNL     1      25.979  46.504  52.286  1.00  0.00     0.249 C 
HETATM    9  O   UNL     1      25.446  47.602  52.168  1.00  0.00    -0.271 OA
HETATM   10  C   UNL     1      27.539  42.426  52.572  1.00  0.00     0.035 C 
HETATM   11  C   UNL     1      27.955  41.786  51.247  1.00  0.00     0.002 C 
HETATM   12  C   UNL     1      26.998  42.137  50.107  1.00  0.00     0.002 C 
HETATM   13  C   UNL     1      26.765  43.643  49.980  1.00  0.00     0.027 C 
HETATM   14  H   UNL     1      25.618  46.038  50.373  1.00  0.00     0.163 HD
ENDROOT
BRANCH   1  15
HETATM   15  C   UNL     1      27.700  46.963  54.090  1.00  0.00     0.146 C 
BRANCH  15  16
HETATM   16  C   UNL     1      27.690  47.142  55.576  1.00  0.00     0.224 C 
HETATM   17  N   UNL     1      28.442  46.457  56.461  1.00  0.00    -0.325 N 
HETATM   18  H   UNL     1      28.238  46.755  57.417  1.00  0.00     0.169 HD
HETATM   19  O   UNL     1      26.819  47.904  56.027  1.00  0.00    -0.273 OA
BRANCH  17  20
HETATM   20  C   UNL     1      29.430  45.452  56.415  1.00  0.00     0.073 A 
HETATM   21  C   UNL     1      29.660  44.541  55.391  1.00  0.00     0.033 A 
HETATM   22  C   UNL     1      30.680  43.583  55.508  1.00  0.00     0.002 A 
HETATM   23  C   UNL     1      31.486  43.528  56.643  1.00  0.00     0.003 A 
HETATM   24  C   UNL     1      31.275  44.435  57.675  1.00  0.00     0.044 A 
HETATM   25  C   UNL     1      30.259  45.377  57.550  1.00  0.00     0.143 A 
HETATM   26  F   UNL     1      30.053  46.237  58.561  1.00  0.00    -0.204 F 
ENDBRANCH  17  20
ENDBRANCH  15  16
ENDBRANCH   1  15
TORSDOF 3
ENDMDL
MODEL 8
REMARK VINA RESULT:      -8.2      2.280      2.934
REMARK  3 active torsions:
REMARK  status: ('A' for Active; 'I' for Inactive)
REMARK    1  A    between atoms: C_3  and  N_4 
REMARK       I    between atoms: N_4  and  C_5 
REMARK    2  A    between atoms: C_5  and  C_6 
REMARK    3  A    between atoms: C_6  and  C_7 
ROOT
HETATM    1  C   UNL     1      26.818  41.450  51.071  1.00  0.00     0.286 C 
HETATM    2  N   UNL     1      26.619  42.378  52.276  1.00  0.00    -0.056 N 
HETATM    3  H   UNL     1      25.962  43.135  52.007  1.00  0.00     0.278 HD
HETATM    4  H   UNL     1      26.163  41.852  53.033  1.00  0.00     0.278 HD
HETATM    5  C   UNL     1      27.875  43.036  52.786  1.00  0.00     0.209 C 
HETATM    6  C   UNL     1      28.969  41.971  52.993  1.00  0.00     0.115 C 
HETATM    7  N   UNL     1      29.201  41.207  51.779  1.00  0.00    -0.353 N 
HETATM    8  C   UNL     1      28.184  40.749  50.985  1.00  0.00     0.249 C 
HETATM    9  O   UNL     1      28.386  39.830  50.198  1.00  0.00    -0.271 OA
HETATM   10  C   UNL     1      27.576  43.777  54.084  1.00  0.00     0.035 C 
HETATM   11  C   UNL     1      28.848  44.440  54.615  1.00  0.00     0.002 C 
HETATM   12  C   UNL     1      30.002  43.447  54.762  1.00  0.00     0.002 C 
HETATM   13  C   UNL     1      30.252  42.645  53.485  1.00  0.00     0.027 C 
HETATM   14  H   UNL     1      30.047  40.642  51.710  1.00  0.00     0.163 HD
ENDROOT
BRANCH   1  15
HETATM   15  C   UNL     1      26.445  42.111  49.741  1.00  0.00     0.146 C 
BRANCH  15  16
HETATM   16  C   UNL     1      25.021  42.570  49.731  1.00  0.00     0.224 C 
HETATM   17  N   UNL     1      24.589  43.818  50.004  1.00  0.00    -0.325 N 
HETATM   18  H   UNL     1      23.570  43.870  49.946  1.00  0.00     0.169 HD
HETATM   19  O   UNL     1      24.164  41.684  49.580  1.00  0.00    -0.273 OA
BRANCH  17  20
HETATM   20  C   UNL     1      25.168  45.060  50.339  1.00  0.00     0.073 A 
HETATM   21  C   UNL     1      25.869  45.918  49.500  1.00  0.00     0.033 A 
HETATM   22  C   UNL     1      26.404  47.117  49.997  1.00  0.00     0.002 A 
HETATM   23  C   UNL     1      26.238  47.478  51.333  1.00  0.00     0.003 A 
HETATM   24  C   UNL     1      25.534  46.636  52.185  1.00  0.00     0.044 A 
HETATM   25  C   UNL     1      25.013  45.448  51.684  1.00  0.00     0.143 A 
HETATM   26  F   UNL     1      24.350  44.633  52.521  1.00  0.00    -0.204 F 
ENDBRANCH  17  20
ENDBRANCH  15  16
ENDBRANCH   1  15
TORSDOF 3
ENDMDL
MODEL 9
REMARK VINA RESULT:      -8.2     11.969     13.671
REMARK  3 active torsions:
REMARK  status: ('A' for Active; 'I' for Inactive)
REMARK    1  A    between atoms: C_3  and  N_4 
REMARK       I    between atoms: N_4  and  C_5 
REMARK    2  A    between atoms: C_5  and  C_6 
REMARK    3  A    between atoms: C_6  and  C_7 
ROOT
HETATM    1  C   UNL     1      28.554  51.363  38.661  1.00  0.00     0.286 C 
HETATM    2  N   UNL     1      27.489  50.410  39.216  1.00  0.00    -0.056 N 
HETATM    3  H   UNL     1      26.894  50.932  39.887  1.00  0.00     0.278 HD
HETATM    4  H   UNL     1      26.872  50.113  38.449  1.00  0.00     0.278 HD
HETATM    5  C   UNL     1      28.030  49.205  39.942  1.00  0.00     0.209 C 
HETATM    6  C   UNL     1      29.093  48.511  39.070  1.00  0.00     0.115 C 
HETATM    7  N   UNL     1      30.143  49.436  38.680  1.00  0.00    -0.353 N 
HETATM    8  C   UNL     1      29.888  50.713  38.256  1.00  0.00     0.249 C 
HETATM    9  O   UNL     1      30.730  51.324  37.607  1.00  0.00    -0.271 OA
HETATM   10  C   UNL     1      26.888  48.253  40.279  1.00  0.00     0.035 C 
HETATM   11  C   UNL     1      27.428  47.022  41.008  1.00  0.00     0.002 C 
HETATM   12  C   UNL     1      28.552  46.334  40.229  1.00  0.00     0.002 C 
HETATM   13  C   UNL     1      29.661  47.304  39.821  1.00  0.00     0.027 C 
HETATM   14  H   UNL     1      31.015  49.059  38.308  1.00  0.00     0.163 HD
ENDROOT
BRANCH   1  15
HETATM   15  C   UNL     1      28.779  52.590  39.549  1.00  0.00     0.146 C 
BRANCH  15  16
HETATM   16  C   UNL     1      28.519  52.284  40.991  1.00  0.00     0.224 C 
HETATM   17  N   UNL     1      29.395  51.731  41.854  1.00  0.00    -0.325 N 
HETATM   18  H   UNL     1      28.970  51.610  42.776  1.00  0.00     0.169 HD
HETATM   19  O   UNL     1      27.350  52.442  41.380  1.00  0.00    -0.273 OA
BRANCH  17  20
HETATM   20  C   UNL     1      30.733  51.287  41.822  1.00  0.00     0.073 A 
HETATM   21  C   UNL     1      31.856  52.017  41.450  1.00  0.00     0.033 A 
HETATM   22  C   UNL     1      33.126  51.417  41.454  1.00  0.00     0.002 A 
HETATM   23  C   UNL     1      33.291  50.087  41.836  1.00  0.00     0.003 A 
HETATM   24  C   UNL     1      32.180  49.344  42.218  1.00  0.00     0.044 A 
HETATM   25  C   UNL     1      30.927  49.946  42.206  1.00  0.00     0.143 A 
HETATM   26  F   UNL     1      29.858  49.212  42.559  1.00  0.00    -0.204 F 
ENDBRANCH  17  20
ENDBRANCH  15  16
ENDBRANCH   1  15
TORSDOF 3
ENDMDL
MODEL 10
REMARK VINA RESULT:      -8.1      4.668      8.992
REMARK  3 active torsions:
REMARK  status: ('A' for Active; 'I' for Inactive)
REMARK    1  A    between atoms: C_3  and  N_4 
REMARK       I    between atoms: N_4  and  C_5 
REMARK    2  A    between atoms: C_5  and  C_6 
REMARK    3  A    between atoms: C_6  and  C_7 
ROOT
HETATM    1  C   UNL     1      22.346  48.623  48.744  1.00  0.00     0.286 C 
HETATM    2  N   UNL     1      21.158  48.736  49.707  1.00  0.00    -0.056 N 
HETATM    3  H   UNL     1      20.713  47.803  49.795  1.00  0.00     0.278 HD
HETATM    4  H   UNL     1      21.506  48.983  50.642  1.00  0.00     0.278 HD
HETATM    5  C   UNL     1      20.085  49.705  49.281  1.00  0.00     0.209 C 
HETATM    6  C   UNL     1      20.725  51.059  48.920  1.00  0.00     0.115 C 
HETATM    7  N   UNL     1      21.758  50.903  47.910  1.00  0.00    -0.353 N 
HETATM    8  C   UNL     1      22.682  49.893  47.943  1.00  0.00     0.249 C 
HETATM    9  O   UNL     1      23.726  49.996  47.309  1.00  0.00    -0.271 OA
HETATM   10  C   UNL     1      19.062  49.861  50.400  1.00  0.00     0.035 C 
HETATM   11  C   UNL     1      17.973  50.851  49.982  1.00  0.00     0.002 C 
HETATM   12  C   UNL     1      18.552  52.192  49.528  1.00  0.00     0.002 C 
HETATM   13  C   UNL     1      19.637  52.032  48.462  1.00  0.00     0.027 C 
HETATM   14  H   UNL     1      22.091  51.732  47.418  1.00  0.00     0.163 HD
ENDROOT
BRANCH   1  15
HETATM   15  C   UNL     1      22.262  47.395  47.833  1.00  0.00     0.146 C 
BRANCH  15  16
HETATM   16  C   UNL     1      21.877  46.166  48.596  1.00  0.00     0.224 C 
HETATM   17  N   UNL     1      22.699  45.419  49.360  1.00  0.00    -0.325 N 
HETATM   18  H   UNL     1      22.198  44.624  49.762  1.00  0.00     0.169 HD
HETATM   19  O   UNL     1      20.728  45.739  48.397  1.00  0.00    -0.273 OA
BRANCH  17  20
HETATM   20  C   UNL     1      24.053  45.450  49.754  1.00  0.00     0.073 A 
HETATM   21  C   UNL     1      24.665  46.365  50.602  1.00  0.00     0.033 A 
HETATM   22  C   UNL     1      26.038  46.268  50.880  1.00  0.00     0.002 A 
HETATM   23  C   UNL     1      26.813  45.253  50.323  1.00  0.00     0.003 A 
HETATM   24  C   UNL     1      26.217  44.325  49.478  1.00  0.00     0.044 A 
HETATM   25  C   UNL     1      24.857  44.433  49.205  1.00  0.00     0.143 A 
HETATM   26  F   UNL     1      24.296  43.541  48.372  1.00  0.00    -0.204 F 
ENDBRANCH  17  20
ENDBRANCH  15  16
ENDBRANCH   1  15
TORSDOF 3
ENDMDL
