MODEL 1
REMARK VINA RESULT:      -8.3      0.000      0.000
REMARK  6 active torsions:
REMARK  status: ('A' for Active; 'I' for Inactive)
REMARK    1  A    between atoms: C_2  and  N_3 
REMARK    2  A    between atoms: C_2  and  C_17 
REMARK       I    between atoms: N_3  and  C_4 
REMARK    3  A    between atoms: C_4  and  C_5 
REMARK    4  A    between atoms: C_6  and  O_7 
REMARK    5  A    between atoms: O_7  and  C_8 
REMARK    6  A    between atoms: C_8  and  C_9 
ROOT
HETATM    1  N   UNL     1      26.911  43.243  53.091  1.00  0.00    -0.346 N 
HETATM    2  C   UNL     1      25.787  43.952  52.756  1.00  0.00     0.256 C 
HETATM    3  O   UNL     1      24.686  43.573  53.144  1.00  0.00    -0.267 OA
HETATM    4  H   UNL     1      26.697  42.461  53.695  1.00  0.00     0.163 HD
ENDROOT
BRANCH   1   5
HETATM    5  C   UNL     1      28.308  43.548  52.815  1.00  0.00     0.150 C 
HETATM    6  C   UNL     1      28.983  42.378  52.106  1.00  0.00     0.040 C 
BRANCH   5   7
HETATM    7  C   UNL     1      28.964  43.892  54.121  1.00  0.00     0.127 A 
HETATM    8  N   UNL     1      29.957  43.239  54.696  1.00  0.00    -0.231 NA
HETATM    9  C   UNL     1      30.260  43.945  55.836  1.00  0.00     0.085 A 
HETATM   10  C   UNL     1      29.431  45.051  55.969  1.00  0.00     0.062 A 
HETATM   11  C   UNL     1      31.239  43.704  56.811  1.00  0.00     0.034 A 
HETATM   12  N   UNL     1      28.618  44.997  54.866  1.00  0.00    -0.341 N 
HETATM   13  C   UNL     1      29.512  45.951  57.033  1.00  0.00     0.032 A 
HETATM   14  H   UNL     1      27.899  45.666  54.636  1.00  0.00     0.167 HD
HETATM   15  C   UNL     1      30.493  45.695  57.996  1.00  0.00     0.002 A 
HETATM   16  C   UNL     1      31.345  44.593  57.890  1.00  0.00     0.002 A 
ENDBRANCH   5   7
ENDBRANCH   1   5
BRANCH   2  17
HETATM   17  C   UNL     1      25.890  45.162  51.930  1.00  0.00     0.084 A 
HETATM   18  C   UNL     1      26.115  46.399  52.523  1.00  0.00     0.180 A 
HETATM   19  N   UNL     1      26.234  47.552  51.818  1.00  0.00    -0.236 NA
HETATM   20  C   UNL     1      26.169  47.449  50.471  1.00  0.00     0.119 A 
HETATM   21  C   UNL     1      25.980  46.254  49.793  1.00  0.00     0.020 A 
HETATM   22  C   UNL     1      25.845  45.086  50.538  1.00  0.00     0.023 A 
BRANCH  18  23
HETATM   23  O   UNL     1      26.119  46.484  53.899  1.00  0.00    -0.328 OA
BRANCH  23  24
HETATM   24  C   UNL     1      25.900  47.814  54.389  1.00  0.00     0.248 C 
BRANCH  24  25
HETATM   25  C   UNL     1      26.945  48.232  55.409  1.00  0.00     0.377 C 
HETATM   26  F   UNL     1      28.173  48.252  54.820  1.00  0.00    -0.212 F 
HETATM   27  F   UNL     1      26.703  49.508  55.812  1.00  0.00    -0.212 F 
ENDBRANCH  24  25
ENDBRANCH  23  24
ENDBRANCH  18  23
ENDBRANCH   2  17
TORSDOF 6
ENDMDL
MODEL 2
REMARK VINA RESULT:      -8.0      2.796      3.792
REMARK  6 active torsions:
REMARK  status: ('A' for Active; 'I' for Inactive)
REMARK    1  A    between atoms: C_2  and  N_3 
REMARK    2  A    between atoms: C_2  and  C_17 
REMARK       I    between atoms: N_3  and  C_4 
REMARK    3  A    between atoms: C_4  and  C_5 
REMARK    4  A    between atoms: C_6  and  O_7 
REMARK    5  A    between atoms: O_7  and  C_8 
REMARK    6  A    between atoms: C_8  and  C_9 
ROOT
HETATM    1  N   UNL     1      27.105  43.499  53.202  1.00  0.00    -0.346 N 
HETATM    2  C   UNL     1      26.035  44.190  52.695  1.00  0.00     0.256 C 
HETATM    3  O   UNL     1      24.900  43.932  53.082  1.00  0.00    -0.267 OA
HETATM    4  H   UNL     1      26.823  42.841  53.916  1.00  0.00     0.163 HD
ENDROOT
BRANCH   1   5
HETATM    5  C   UNL     1      28.527  43.689  52.952  1.00  0.00     0.150 C 
HETATM    6  C   UNL     1      29.145  42.421  52.375  1.00  0.00     0.040 C 
BRANCH   5   7
HETATM    7  C   UNL     1      29.163  44.108  54.246  1.00  0.00     0.127 A 
HETATM    8  N   UNL     1      28.808  45.133  54.999  1.00  0.00    -0.231 NA
HETATM    9  C   UNL     1      29.630  45.093  56.100  1.00  0.00     0.085 A 
HETATM   10  C   UNL     1      30.513  44.025  56.019  1.00  0.00     0.062 A 
HETATM   11  C   UNL     1      29.678  45.936  57.219  1.00  0.00     0.034 A 
HETATM   12  N   UNL     1      30.196  43.414  54.834  1.00  0.00    -0.341 N 
HETATM   13  C   UNL     1      31.465  43.737  57.000  1.00  0.00     0.032 A 
HETATM   14  H   UNL     1      30.638  42.584  54.467  1.00  0.00     0.167 HD
HETATM   15  C   UNL     1      31.499  44.588  58.108  1.00  0.00     0.002 A 
HETATM   16  C   UNL     1      30.621  45.670  58.221  1.00  0.00     0.002 A 
ENDBRANCH   5   7
ENDBRANCH   1   5
BRANCH   2  17
HETATM   17  C   UNL     1      26.239  45.236  51.684  1.00  0.00     0.084 A 
HETATM   18  C   UNL     1      26.526  44.895  50.368  1.00  0.00     0.180 A 
HETATM   19  N   UNL     1      26.711  45.810  49.384  1.00  0.00    -0.236 NA
HETATM   20  C   UNL     1      26.557  47.110  49.727  1.00  0.00     0.119 A 
HETATM   21  C   UNL     1      26.238  47.541  51.007  1.00  0.00     0.020 A 
HETATM   22  C   UNL     1      26.069  46.584  52.004  1.00  0.00     0.023 A 
BRANCH  18  23
HETATM   23  O   UNL     1      26.735  43.568  50.057  1.00  0.00    -0.328 OA
BRANCH  23  24
HETATM   24  C   UNL     1      25.744  43.025  49.175  1.00  0.00     0.248 C 
BRANCH  24  25
HETATM   25  C   UNL     1      24.826  42.039  49.877  1.00  0.00     0.377 C 
HETATM   26  F   UNL     1      25.507  41.416  50.879  1.00  0.00    -0.212 F 
HETATM   27  F   UNL     1      23.809  42.713  50.478  1.00  0.00    -0.212 F 
ENDBRANCH  24  25
ENDBRANCH  23  24
ENDBRANCH  18  23
ENDBRANCH   2  17
TORSDOF 6
ENDMDL
MODEL 3
REMARK VINA RESULT:      -7.7      7.441     10.136
REMARK  6 active torsions:
REMARK  status: ('A' for Active; 'I' for Inactive)
REMARK    1  A    between atoms: C_2  and  N_3 
REMARK    2  A    between atoms: C_2  and  C_17 
REMARK       I    between atoms: N_3  and  C_4 
REMARK    3  A    between atoms: C_4  and  C_5 
REMARK    4  A    between atoms: C_6  and  O_7 
REMARK    5  A    between atoms: O_7  and  C_8 
REMARK    6  A    between atoms: C_8  and  C_9 
ROOT
HETATM    1  N   UNL     1      20.077  48.308  50.028  1.00  0.00    -0.346 N 
HETATM    2  C   UNL     1      18.846  48.710  50.474  1.00  0.00     0.256 C 
HETATM    3  O   UNL     1      18.649  48.863  51.675  1.00  0.00    -0.267 OA
HETATM    4  H   UNL     1      20.741  48.216  50.786  1.00  0.00     0.163 HD
ENDROOT
BRANCH   1   5
HETATM    5  C   UNL     1      20.555  48.145  48.662  1.00  0.00     0.150 C 
HETATM    6  C   UNL     1      20.218  46.753  48.138  1.00  0.00     0.040 C 
BRANCH   5   7
HETATM    7  C   UNL     1      22.030  48.423  48.661  1.00  0.00     0.127 A 
HETATM    8  N   UNL     1      22.653  49.346  47.951  1.00  0.00    -0.231 NA
HETATM    9  C   UNL     1      23.977  49.268  48.314  1.00  0.00     0.085 A 
HETATM   10  C   UNL     1      24.173  48.273  49.261  1.00  0.00     0.062 A 
HETATM   11  C   UNL     1      25.076  50.022  47.878  1.00  0.00     0.034 A 
HETATM   12  N   UNL     1      22.922  47.752  49.467  1.00  0.00    -0.341 N 
HETATM   13  C   UNL     1      25.419  47.969  49.814  1.00  0.00     0.032 A 
HETATM   14  H   UNL     1      22.695  47.012  50.114  1.00  0.00     0.167 HD
HETATM   15  C   UNL     1      26.503  48.731  49.368  1.00  0.00     0.002 A 
HETATM   16  C   UNL     1      26.339  49.742  48.417  1.00  0.00     0.002 A 
ENDBRANCH   5   7
ENDBRANCH   1   5
BRANCH   2  17
HETATM   17  C   UNL     1      17.756  48.958  49.521  1.00  0.00     0.084 A 
HETATM   18  C   UNL     1      17.425  50.257  49.155  1.00  0.00     0.180 A 
HETATM   19  N   UNL     1      16.440  50.554  48.271  1.00  0.00    -0.236 NA
HETATM   20  C   UNL     1      15.797  49.507  47.703  1.00  0.00     0.119 A 
HETATM   21  C   UNL     1      16.083  48.179  47.983  1.00  0.00     0.020 A 
HETATM   22  C   UNL     1      17.087  47.899  48.906  1.00  0.00     0.023 A 
BRANCH  18  23
HETATM   23  O   UNL     1      18.054  51.306  49.791  1.00  0.00    -0.328 OA
BRANCH  23  24
HETATM   24  C   UNL     1      18.553  52.303  48.891  1.00  0.00     0.248 C 
BRANCH  24  25
HETATM   25  C   UNL     1      19.982  52.024  48.456  1.00  0.00     0.377 C 
HETATM   26  F   UNL     1      20.663  51.439  49.481  1.00  0.00    -0.212 F 
HETATM   27  F   UNL     1      19.980  51.118  47.442  1.00  0.00    -0.212 F 
ENDBRANCH  24  25
ENDBRANCH  23  24
ENDBRANCH  18  23
ENDBRANCH   2  17
TORSDOF 6
ENDMDL
MODEL 4
REMARK VINA RESULT:      -7.6      3.080      4.722
REMARK  6 active torsions:
REMARK  status: ('A' for Active; 'I' for Inactive)
REMARK    1  A    between atoms: C_2  and  N_3 
REMARK    2  A    between atoms: C_2  and  C_17 
REMARK       I    between atoms: N_3  and  C_4 
REMARK    3  A    between atoms: C_4  and  C_5 
REMARK    4  A    between atoms: C_6  and  O_7 
REMARK    5  A    between atoms: O_7  and  C_8 
REMARK    6  A    between atoms: C_8  and  C_9 
ROOT
HETATM    1  N   UNL     1      26.849  46.141  51.497  1.00  0.00    -0.346 N 
HETATM    2  C   UNL     1      26.507  45.535  50.317  1.00  0.00     0.256 C 
HETATM    3  O   UNL     1      27.102  45.825  49.284  1.00  0.00    -0.267 OA
HETATM    4  H   UNL     1      27.632  46.771  51.384  1.00  0.00     0.163 HD
ENDROOT
BRANCH   1   5
HETATM    5  C   UNL     1      26.342  45.896  52.840  1.00  0.00     0.150 C 
HETATM    6  C   UNL     1      25.659  47.142  53.393  1.00  0.00     0.040 C 
BRANCH   5   7
HETATM    7  C   UNL     1      27.496  45.443  53.686  1.00  0.00     0.127 A 
HETATM    8  N   UNL     1      28.005  46.079  54.725  1.00  0.00    -0.231 NA
HETATM    9  C   UNL     1      29.002  45.267  55.210  1.00  0.00     0.085 A 
HETATM   10  C   UNL     1      29.114  44.111  54.451  1.00  0.00     0.062 A 
HETATM   11  C   UNL     1      29.857  45.449  56.307  1.00  0.00     0.034 A 
HETATM   12  N   UNL     1      28.146  44.244  53.490  1.00  0.00    -0.341 N 
HETATM   13  C   UNL     1      30.043  43.102  54.714  1.00  0.00     0.032 A 
HETATM   14  H   UNL     1      27.936  43.567  52.771  1.00  0.00     0.167 HD
HETATM   15  C   UNL     1      30.887  43.300  55.811  1.00  0.00     0.002 A 
HETATM   16  C   UNL     1      30.799  44.452  56.597  1.00  0.00     0.002 A 
ENDBRANCH   5   7
ENDBRANCH   1   5
BRANCH   2  17
HETATM   17  C   UNL     1      25.428  44.538  50.279  1.00  0.00     0.084 A 
HETATM   18  C   UNL     1      25.662  43.234  50.697  1.00  0.00     0.180 A 
HETATM   19  N   UNL     1      24.708  42.271  50.700  1.00  0.00    -0.236 NA
HETATM   20  C   UNL     1      23.466  42.644  50.313  1.00  0.00     0.119 A 
HETATM   21  C   UNL     1      23.134  43.930  49.911  1.00  0.00     0.020 A 
HETATM   22  C   UNL     1      24.134  44.898  49.901  1.00  0.00     0.023 A 
BRANCH  18  23
HETATM   23  O   UNL     1      26.948  42.865  51.031  1.00  0.00    -0.328 OA
BRANCH  23  24
HETATM   24  C   UNL     1      27.125  41.446  51.138  1.00  0.00     0.248 C 
BRANCH  24  25
HETATM   25  C   UNL     1      28.381  41.079  51.911  1.00  0.00     0.377 C 
HETATM   26  F   UNL     1      28.063  40.860  53.217  1.00  0.00    -0.212 F 
HETATM   27  F   UNL     1      28.873  39.901  51.443  1.00  0.00    -0.212 F 
ENDBRANCH  24  25
ENDBRANCH  23  24
ENDBRANCH  18  23
ENDBRANCH   2  17
TORSDOF 6
ENDMDL
MODEL 5
REMARK VINA RESULT:      -7.5      2.325      6.641
REMARK  6 active torsions:
REMARK  status: ('A' for Active; 'I' for Inactive)
REMARK    1  A    between atoms: C_2  and  N_3 
REMARK    2  A    between atoms: C_2  and  C_17 
REMARK       I    between atoms: N_3  and  C_4 
REMARK    3  A    between atoms: C_4  and  C_5 
REMARK    4  A    between atoms: C_6  and  O_7 
REMARK    5  A    between atoms: O_7  and  C_8 
REMARK    6  A    between atoms: C_8  and  C_9 
ROOT
HETATM    1  N   UNL     1      25.967  45.244  54.226  1.00  0.00    -0.346 N 
HETATM    2  C   UNL     1      26.462  44.036  54.641  1.00  0.00     0.256 C 
HETATM    3  O   UNL     1      25.779  43.304  55.349  1.00  0.00    -0.267 OA
HETATM    4  H   UNL     1      25.015  45.387  54.536  1.00  0.00     0.163 HD
ENDROOT
BRANCH   1   5
HETATM    5  C   UNL     1      26.560  46.224  53.326  1.00  0.00     0.150 C 
HETATM    6  C   UNL     1      26.826  47.534  54.060  1.00  0.00     0.040 C 
BRANCH   5   7
HETATM    7  C   UNL     1      25.631  46.391  52.159  1.00  0.00     0.127 A 
HETATM    8  N   UNL     1      25.264  47.532  51.605  1.00  0.00    -0.231 NA
HETATM    9  C   UNL     1      24.457  47.192  50.546  1.00  0.00     0.085 A 
HETATM   10  C   UNL     1      24.319  45.814  50.450  1.00  0.00     0.062 A 
HETATM   11  C   UNL     1      23.806  48.010  49.611  1.00  0.00     0.034 A 
HETATM   12  N   UNL     1      25.075  45.327  51.485  1.00  0.00    -0.341 N 
HETATM   13  C   UNL     1      23.556  45.183  49.466  1.00  0.00     0.032 A 
HETATM   14  H   UNL     1      25.211  44.351  51.701  1.00  0.00     0.167 HD
HETATM   15  C   UNL     1      22.914  46.014  48.543  1.00  0.00     0.002 A 
HETATM   16  C   UNL     1      23.035  47.405  48.610  1.00  0.00     0.002 A 
ENDBRANCH   5   7
ENDBRANCH   1   5
BRANCH   2  17
HETATM   17  C   UNL     1      27.812  43.612  54.246  1.00  0.00     0.084 A 
HETATM   18  C   UNL     1      28.928  44.139  54.884  1.00  0.00     0.180 A 
HETATM   19  N   UNL     1      30.200  43.779  54.578  1.00  0.00    -0.236 NA
HETATM   20  C   UNL     1      30.351  42.826  53.629  1.00  0.00     0.119 A 
HETATM   21  C   UNL     1      29.294  42.222  52.964  1.00  0.00     0.020 A 
HETATM   22  C   UNL     1      27.998  42.618  53.284  1.00  0.00     0.023 A 
BRANCH  18  23
HETATM   23  O   UNL     1      28.751  45.149  55.805  1.00  0.00    -0.328 OA
BRANCH  23  24
HETATM   24  C   UNL     1      29.972  45.586  56.415  1.00  0.00     0.248 C 
BRANCH  24  25
HETATM   25  C   UNL     1      29.784  45.964  57.875  1.00  0.00     0.377 C 
HETATM   26  F   UNL     1      28.455  46.003  58.167  1.00  0.00    -0.212 F 
HETATM   27  F   UNL     1      30.313  44.994  58.667  1.00  0.00    -0.212 F 
ENDBRANCH  24  25
ENDBRANCH  23  24
ENDBRANCH  18  23
ENDBRANCH   2  17
TORSDOF 6
ENDMDL
MODEL 6
REMARK VINA RESULT:      -7.4      7.761     10.523
REMARK  6 active torsions:
REMARK  status: ('A' for Active; 'I' for Inactive)
REMARK    1  A    between atoms: C_2  and  N_3 
REMARK    2  A    between atoms: C_2  and  C_17 
REMARK       I    between atoms: N_3  and  C_4 
REMARK    3  A    between atoms: C_4  and  C_5 
REMARK    4  A    between atoms: C_6  and  O_7 
REMARK    5  A    between atoms: O_7  and  C_8 
REMARK    6  A    between atoms: C_8  and  C_9 
ROOT
HETATM    1  N   UNL     1      20.065  48.332  49.912  1.00  0.00    -0.346 N 
HETATM    2  C   UNL     1      19.267  49.362  50.333  1.00  0.00     0.256 C 
HETATM    3  O   UNL     1      18.967  49.460  51.519  1.00  0.00    -0.267 OA
HETATM    4  H   UNL     1      20.373  47.754  50.683  1.00  0.00     0.163 HD
ENDROOT
BRANCH   1   5
HETATM    5  C   UNL     1      20.609  48.070  48.586  1.00  0.00     0.150 C 
HETATM    6  C   UNL     1      20.289  46.645  48.148  1.00  0.00     0.040 C 
BRANCH   5   7
HETATM    7  C   UNL     1      22.084  48.344  48.637  1.00  0.00     0.127 A 
HETATM    8  N   UNL     1      22.732  49.277  47.963  1.00  0.00    -0.231 NA
HETATM    9  C   UNL     1      24.043  49.189  48.368  1.00  0.00     0.085 A 
HETATM   10  C   UNL     1      24.205  48.178  49.305  1.00  0.00     0.062 A 
HETATM   11  C   UNL     1      25.157  49.947  47.981  1.00  0.00     0.034 A 
HETATM   12  N   UNL     1      22.947  47.657  49.461  1.00  0.00    -0.341 N 
HETATM   13  C   UNL     1      25.432  47.862  49.892  1.00  0.00     0.032 A 
HETATM   14  H   UNL     1      22.697  46.907  50.088  1.00  0.00     0.167 HD
HETATM   15  C   UNL     1      26.532  48.628  49.495  1.00  0.00     0.002 A 
HETATM   16  C   UNL     1      26.401  49.655  48.556  1.00  0.00     0.002 A 
ENDBRANCH   5   7
ENDBRANCH   1   5
BRANCH   2  17
HETATM   17  C   UNL     1      18.762  50.352  49.372  1.00  0.00     0.084 A 
HETATM   18  C   UNL     1      17.607  50.096  48.643  1.00  0.00     0.180 A 
HETATM   19  N   UNL     1      17.080  50.972  47.751  1.00  0.00    -0.236 NA
HETATM   20  C   UNL     1      17.711  52.162  47.622  1.00  0.00     0.119 A 
HETATM   21  C   UNL     1      18.849  52.515  48.332  1.00  0.00     0.020 A 
HETATM   22  C   UNL     1      19.381  51.594  49.230  1.00  0.00     0.023 A 
BRANCH  18  23
HETATM   23  O   UNL     1      17.016  48.855  48.749  1.00  0.00    -0.328 OA
BRANCH  23  24
HETATM   24  C   UNL     1      16.128  48.551  47.666  1.00  0.00     0.248 C 
BRANCH  24  25
HETATM   25  C   UNL     1      16.718  47.532  46.705  1.00  0.00     0.377 C 
HETATM   26  F   UNL     1      17.921  47.979  46.250  1.00  0.00    -0.212 F 
HETATM   27  F   UNL     1      16.976  46.375  47.372  1.00  0.00    -0.212 F 
ENDBRANCH  24  25
ENDBRANCH  23  24
ENDBRANCH  18  23
ENDBRANCH   2  17
TORSDOF 6
ENDMDL
MODEL 7
REMARK VINA RESULT:      -7.2      7.751      9.952
REMARK  6 active torsions:
REMARK  status: ('A' for Active; 'I' for Inactive)
REMARK    1  A    between atoms: C_2  and  N_3 
REMARK    2  A    between atoms: C_2  and  C_17 
REMARK       I    between atoms: N_3  and  C_4 
REMARK    3  A    between atoms: C_4  and  C_5 
REMARK    4  A    between atoms: C_6  and  O_7 
REMARK    5  A    between atoms: O_7  and  C_8 
REMARK    6  A    between atoms: C_8  and  C_9 
ROOT
HETATM    1  N   UNL     1      18.730  47.766  50.177  1.00  0.00    -0.346 N 
HETATM    2  C   UNL     1      18.735  48.982  50.809  1.00  0.00     0.256 C 
HETATM    3  O   UNL     1      18.652  49.038  52.032  1.00  0.00    -0.267 OA
HETATM    4  H   UNL     1      18.699  47.000  50.836  1.00  0.00     0.163 HD
ENDROOT
BRANCH   1   5
HETATM    5  C   UNL     1      18.898  47.462  48.763  1.00  0.00     0.150 C 
HETATM    6  C   UNL     1      17.623  46.852  48.190  1.00  0.00     0.040 C 
BRANCH   5   7
HETATM    7  C   UNL     1      20.086  46.553  48.632  1.00  0.00     0.127 A 
HETATM    8  N   UNL     1      20.102  45.359  48.068  1.00  0.00    -0.231 NA
HETATM    9  C   UNL     1      21.407  44.932  48.133  1.00  0.00     0.085 A 
HETATM   10  C   UNL     1      22.208  45.879  48.756  1.00  0.00     0.062 A 
HETATM   11  C   UNL     1      21.988  43.741  47.674  1.00  0.00     0.034 A 
HETATM   12  N   UNL     1      21.347  46.900  49.062  1.00  0.00    -0.341 N 
HETATM   13  C   UNL     1      23.580  45.714  48.960  1.00  0.00     0.032 A 
HETATM   14  H   UNL     1      21.603  47.766  49.512  1.00  0.00     0.167 HD
HETATM   15  C   UNL     1      24.142  44.520  48.496  1.00  0.00     0.002 A 
HETATM   16  C   UNL     1      23.364  43.548  47.862  1.00  0.00     0.002 A 
ENDBRANCH   5   7
ENDBRANCH   1   5
BRANCH   2  17
HETATM   17  C   UNL     1      18.835  50.224  50.030  1.00  0.00     0.084 A 
HETATM   18  C   UNL     1      20.044  50.596  49.456  1.00  0.00     0.180 A 
HETATM   19  N   UNL     1      20.201  51.721  48.714  1.00  0.00    -0.236 NA
HETATM   20  C   UNL     1      19.095  52.471  48.506  1.00  0.00     0.119 A 
HETATM   21  C   UNL     1      17.841  52.159  49.012  1.00  0.00     0.020 A 
HETATM   22  C   UNL     1      17.708  51.008  49.784  1.00  0.00     0.023 A 
BRANCH  18  23
HETATM   23  O   UNL     1      21.168  49.847  49.731  1.00  0.00    -0.328 OA
BRANCH  23  24
HETATM   24  C   UNL     1      22.391  50.587  49.617  1.00  0.00     0.248 C 
BRANCH  24  25
HETATM   25  C   UNL     1      23.333  49.990  48.586  1.00  0.00     0.377 C 
HETATM   26  F   UNL     1      23.098  50.559  47.371  1.00  0.00    -0.212 F 
HETATM   27  F   UNL     1      24.616  50.306  48.906  1.00  0.00    -0.212 F 
ENDBRANCH  24  25
ENDBRANCH  23  24
ENDBRANCH  18  23
ENDBRANCH   2  17
TORSDOF 6
ENDMDL
MODEL 8
REMARK VINA RESULT:      -7.1     13.632     16.139
REMARK  6 active torsions:
REMARK  status: ('A' for Active; 'I' for Inactive)
REMARK    1  A    between atoms: C_2  and  N_3 
REMARK    2  A    between atoms: C_2  and  C_17 
REMARK       I    between atoms: N_3  and  C_4 
REMARK    3  A    between atoms: C_4  and  C_5 
REMARK    4  A    between atoms: C_6  and  O_7 
REMARK    5  A    between atoms: O_7  and  C_8 
REMARK    6  A    between atoms: C_8  and  C_9 
ROOT
HETATM    1  N   UNL     1      33.619  50.512  42.753  1.00  0.00    -0.346 N 
HETATM    2  C   UNL     1      34.452  50.328  41.681  1.00  0.00     0.256 C 
HETATM    3  O   UNL     1      34.924  49.218  41.456  1.00  0.00    -0.267 OA
HETATM    4  H   UNL     1      33.443  49.647  43.246  1.00  0.00     0.163 HD
ENDROOT
BRANCH   1   5
HETATM    5  C   UNL     1      32.888  51.706  43.158  1.00  0.00     0.150 C 
HETATM    6  C   UNL     1      32.908  51.858  44.675  1.00  0.00     0.040 C 
BRANCH   5   7
HETATM    7  C   UNL     1      31.498  51.596  42.603  1.00  0.00     0.127 A 
HETATM    8  N   UNL     1      30.637  52.585  42.443  1.00  0.00    -0.231 NA
HETATM    9  C   UNL     1      29.527  52.024  41.857  1.00  0.00     0.085 A 
HETATM   10  C   UNL     1      29.706  50.662  41.659  1.00  0.00     0.062 A 
HETATM   11  C   UNL     1      28.322  52.620  41.458  1.00  0.00     0.034 A 
HETATM   12  N   UNL     1      30.965  50.414  42.139  1.00  0.00    -0.341 N 
HETATM   13  C   UNL     1      28.741  49.834  41.081  1.00  0.00     0.032 A 
HETATM   14  H   UNL     1      31.427  49.517  42.135  1.00  0.00     0.167 HD
HETATM   15  C   UNL     1      27.546  50.445  40.689  1.00  0.00     0.002 A 
HETATM   16  C   UNL     1      27.336  51.814  40.872  1.00  0.00     0.002 A 
ENDBRANCH   5   7
ENDBRANCH   1   5
BRANCH   2  17
HETATM   17  C   UNL     1      34.787  51.453  40.798  1.00  0.00     0.084 A 
HETATM   18  C   UNL     1      33.919  51.828  39.779  1.00  0.00     0.180 A 
HETATM   19  N   UNL     1      34.162  52.866  38.939  1.00  0.00    -0.236 NA
HETATM   20  C   UNL     1      35.292  53.575  39.160  1.00  0.00     0.119 A 
HETATM   21  C   UNL     1      36.198  53.293  40.172  1.00  0.00     0.020 A 
HETATM   22  C   UNL     1      35.937  52.214  41.012  1.00  0.00     0.023 A 
BRANCH  18  23
HETATM   23  O   UNL     1      32.804  51.055  39.539  1.00  0.00    -0.328 OA
BRANCH  23  24
HETATM   24  C   UNL     1      32.250  51.243  38.230  1.00  0.00     0.248 C 
BRANCH  24  25
HETATM   25  C   UNL     1      30.758  51.531  38.272  1.00  0.00     0.377 C 
HETATM   26  F   UNL     1      30.531  52.644  39.024  1.00  0.00    -0.212 F 
HETATM   27  F   UNL     1      30.318  51.829  37.020  1.00  0.00    -0.212 F 
ENDBRANCH  24  25
ENDBRANCH  23  24
ENDBRANCH  18  23
ENDBRANCH   2  17
TORSDOF 6
ENDMDL
MODEL 9
REMARK VINA RESULT:      -7.1     13.496     15.541
REMARK  6 active torsions:
REMARK  status: ('A' for Active; 'I' for Inactive)
REMARK    1  A    between atoms: C_2  and  N_3 
REMARK    2  A    between atoms: C_2  and  C_17 
REMARK       I    between atoms: N_3  and  C_4 
REMARK    3  A    between atoms: C_4  and  C_5 
REMARK    4  A    between atoms: C_6  and  O_7 
REMARK    5  A    between atoms: O_7  and  C_8 
REMARK    6  A    between atoms: C_8  and  C_9 
ROOT
HETATM    1  N   UNL     1      31.235  52.266  42.719  1.00  0.00    -0.346 N 
HETATM    2  C   UNL     1      32.206  51.637  43.453  1.00  0.00     0.256 C 
HETATM    3  O   UNL     1      32.071  51.509  44.666  1.00  0.00    -0.267 OA
HETATM    4  H   UNL     1      30.445  52.534  43.290  1.00  0.00     0.163 HD
ENDROOT
BRANCH   1   5
HETATM    5  C   UNL     1      31.148  52.456  41.278  1.00  0.00     0.150 C 
HETATM    6  C   UNL     1      31.090  53.940  40.934  1.00  0.00     0.040 C 
BRANCH   5   7
HETATM    7  C   UNL     1      29.945  51.700  40.793  1.00  0.00     0.127 A 
HETATM    8  N   UNL     1      29.315  51.880  39.646  1.00  0.00    -0.231 NA
HETATM    9  C   UNL     1      28.318  50.934  39.613  1.00  0.00     0.085 A 
HETATM   10  C   UNL     1      28.331  50.161  40.766  1.00  0.00     0.062 A 
HETATM   11  C   UNL     1      27.361  50.670  38.623  1.00  0.00     0.034 A 
HETATM   12  N   UNL     1      29.373  50.666  41.498  1.00  0.00    -0.341 N 
HETATM   13  C   UNL     1      27.430  49.121  41.005  1.00  0.00     0.032 A 
HETATM   14  H   UNL     1      29.678  50.321  42.397  1.00  0.00     0.167 HD
HETATM   15  C   UNL     1      26.483  48.871  40.008  1.00  0.00     0.002 A 
HETATM   16  C   UNL     1      26.445  49.629  38.835  1.00  0.00     0.002 A 
ENDBRANCH   5   7
ENDBRANCH   1   5
BRANCH   2  17
HETATM   17  C   UNL     1      33.414  51.118  42.798  1.00  0.00     0.084 A 
HETATM   18  C   UNL     1      33.344  49.988  41.992  1.00  0.00     0.180 A 
HETATM   19  N   UNL     1      34.418  49.466  41.347  1.00  0.00    -0.236 NA
HETATM   20  C   UNL     1      35.590  50.129  41.483  1.00  0.00     0.119 A 
HETATM   21  C   UNL     1      35.744  51.281  42.239  1.00  0.00     0.020 A 
HETATM   22  C   UNL     1      34.632  51.790  42.905  1.00  0.00     0.023 A 
BRANCH  18  23
HETATM   23  O   UNL     1      32.153  49.299  41.917  1.00  0.00    -0.328 OA
BRANCH  23  24
HETATM   24  C   UNL     1      32.290  47.980  41.372  1.00  0.00     0.248 C 
BRANCH  24  25
HETATM   25  C   UNL     1      31.438  47.778  40.130  1.00  0.00     0.377 C 
HETATM   26  F   UNL     1      30.191  47.370  40.496  1.00  0.00    -0.212 F 
HETATM   27  F   UNL     1      31.271  48.969  39.496  1.00  0.00    -0.212 F 
ENDBRANCH  24  25
ENDBRANCH  23  24
ENDBRANCH  18  23
ENDBRANCH   2  17
TORSDOF 6
ENDMDL
MODEL 10
REMARK VINA RESULT:      -7.0      5.517      7.641
REMARK  6 active torsions:
REMARK  status: ('A' for Active; 'I' for Inactive)
REMARK    1  A    between atoms: C_2  and  N_3 
REMARK    2  A    between atoms: C_2  and  C_17 
REMARK       I    between atoms: N_3  and  C_4 
REMARK    3  A    between atoms: C_4  and  C_5 
REMARK    4  A    between atoms: C_6  and  O_7 
REMARK    5  A    between atoms: O_7  and  C_8 
REMARK    6  A    between atoms: C_8  and  C_9 
ROOT
HETATM    1  N   UNL     1      27.190  41.792  48.799  1.00  0.00    -0.346 N 
HETATM    2  C   UNL     1      27.560  40.947  47.785  1.00  0.00     0.256 C 
HETATM    3  O   UNL     1      28.214  41.374  46.839  1.00  0.00    -0.267 OA
HETATM    4  H   UNL     1      27.559  42.724  48.665  1.00  0.00     0.163 HD
ENDROOT
BRANCH   1   5
HETATM    5  C   UNL     1      26.493  41.490  50.041  1.00  0.00     0.150 C 
HETATM    6  C   UNL     1      25.064  42.021  49.997  1.00  0.00     0.040 C 
BRANCH   5   7
HETATM    7  C   UNL     1      27.295  42.077  51.166  1.00  0.00     0.127 A 
HETATM    8  N   UNL     1      26.869  42.946  52.064  1.00  0.00    -0.231 NA
HETATM    9  C   UNL     1      27.926  43.150  52.919  1.00  0.00     0.085 A 
HETATM   10  C   UNL     1      29.027  42.396  52.536  1.00  0.00     0.062 A 
HETATM   11  C   UNL     1      28.020  43.966  54.055  1.00  0.00     0.034 A 
HETATM   12  N   UNL     1      28.601  41.721  51.421  1.00  0.00    -0.341 N 
HETATM   13  C   UNL     1      30.242  42.403  53.223  1.00  0.00     0.032 A 
HETATM   14  H   UNL     1      29.151  41.062  50.890  1.00  0.00     0.167 HD
HETATM   15  C   UNL     1      30.318  43.222  54.353  1.00  0.00     0.002 A 
HETATM   16  C   UNL     1      29.227  43.992  54.767  1.00  0.00     0.002 A 
ENDBRANCH   5   7
ENDBRANCH   1   5
BRANCH   2  17
HETATM   17  C   UNL     1      27.173  39.530  47.820  1.00  0.00     0.084 A 
HETATM   18  C   UNL     1      27.854  38.637  48.638  1.00  0.00     0.180 A 
HETATM   19  N   UNL     1      27.538  37.321  48.728  1.00  0.00    -0.236 NA
HETATM   20  C   UNL     1      26.475  36.900  48.005  1.00  0.00     0.119 A 
HETATM   21  C   UNL     1      25.717  37.727  47.189  1.00  0.00     0.020 A 
HETATM   22  C   UNL     1      26.069  39.071  47.100  1.00  0.00     0.023 A 
BRANCH  18  23
HETATM   23  O   UNL     1      28.968  39.078  49.319  1.00  0.00    -0.328 OA
BRANCH  23  24
HETATM   24  C   UNL     1      29.949  38.054  49.532  1.00  0.00     0.248 C 
BRANCH  24  25
HETATM   25  C   UNL     1      30.246  37.838  51.006  1.00  0.00     0.377 C 
HETATM   26  F   UNL     1      29.588  38.774  51.745  1.00  0.00    -0.212 F 
HETATM   27  F   UNL     1      29.747  36.635  51.398  1.00  0.00    -0.212 F 
ENDBRANCH  24  25
ENDBRANCH  23  24
ENDBRANCH  18  23
ENDBRANCH   2  17
TORSDOF 6
ENDMDL
