MODEL 1
REMARK VINA RESULT:      -9.6      0.000      0.000
REMARK  6 active torsions:
REMARK  status: ('A' for Active; 'I' for Inactive)
REMARK    1  A    between atoms: C_2  and  C_3 
REMARK    2  A    between atoms: C_7  and  C_8 
REMARK       I    between atoms: C_8  and  N_9 
REMARK    3  A    between atoms: N_9  and  C_10 
REMARK    4  A    between atoms: C_13  and  C_14 
REMARK       I    between atoms: C_14  and  N_15 
REMARK    5  A    between atoms: N_15  and  C_16 
REMARK    6  A    between atoms: C_16  and  C_17 
ROOT
HETATM    1  C   UNL     1      24.907  46.618  50.936  1.00  0.00     0.035 A 
HETATM    2  C   UNL     1      25.371  45.630  50.055  1.00  0.00     0.030 A 
HETATM    3  C   UNL     1      26.354  44.717  50.455  1.00  0.00     0.019 A 
HETATM    4  C   UNL     1      26.896  44.799  51.740  1.00  0.00     0.032 A 
HETATM    5  C   UNL     1      26.476  45.812  52.605  1.00  0.00     0.019 A 
HETATM    6  C   UNL     1      25.480  46.710  52.208  1.00  0.00     0.030 A 
ENDROOT
BRANCH   1   7
HETATM    7  N   UNL     1      23.885  47.476  50.478  1.00  0.00    -0.322 N 
HETATM    8  C   UNL     1      24.035  48.586  49.669  1.00  0.00     0.274 C 
HETATM    9  O   UNL     1      25.105  49.038  49.275  1.00  0.00    -0.266 OA
HETATM   10  H   UNL     1      22.965  47.322  50.863  1.00  0.00     0.169 HD
BRANCH   8  11
HETATM   11  C   UNL     1      22.801  49.258  49.338  1.00  0.00     0.120 A 
HETATM   12  N   UNL     1      21.602  48.599  49.400  1.00  0.00    -0.273 N 
HETATM   13  N   UNL     1      20.545  49.346  49.051  1.00  0.00    -0.179 NA
HETATM   14  H   UNL     1      21.455  47.629  49.666  1.00  0.00     0.189 HD
HETATM   15  C   UNL     1      21.069  50.552  48.804  1.00  0.00     0.056 A 
HETATM   16  C   UNL     1      22.478  50.546  48.956  1.00  0.00     0.065 A 
BRANCH  15  17
HETATM   17  C   UNL     1      20.187  51.692  48.424  1.00  0.00     0.056 C 
HETATM   18  C   UNL     1      19.069  51.923  49.431  1.00  0.00     0.011 C 
ENDBRANCH  15  17
ENDBRANCH   8  11
ENDBRANCH   1   7
BRANCH   4  19
HETATM   19  C   UNL     1      27.907  43.833  52.239  1.00  0.00     0.251 C 
HETATM   20  N   UNL     1      28.503  44.154  53.436  1.00  0.00    -0.353 N 
HETATM   21  H   UNL     1      28.250  45.001  53.927  1.00  0.00     0.163 HD
HETATM   22  O   UNL     1      28.207  42.856  51.565  1.00  0.00    -0.268 OA
BRANCH  20  23
HETATM   23  C   UNL     1      29.612  43.382  53.951  1.00  0.00     0.161 C 
BRANCH  23  24
HETATM   24  C   UNL     1      30.071  43.891  55.296  1.00  0.00    -0.041 A 
HETATM   25  C   UNL     1      30.995  43.157  56.053  1.00  0.00     0.009 A 
HETATM   26  C   UNL     1      31.453  43.642  57.280  1.00  0.00     0.001 A 
HETATM   27  C   UNL     1      30.994  44.866  57.763  1.00  0.00     0.000 A 
HETATM   28  C   UNL     1      30.088  45.613  57.015  1.00  0.00     0.001 A 
HETATM   29  C   UNL     1      29.637  45.134  55.784  1.00  0.00     0.009 A 
ENDBRANCH  23  24
ENDBRANCH  20  23
ENDBRANCH   4  19
TORSDOF 6
ENDMDL
MODEL 2
REMARK VINA RESULT:      -9.3      1.241      1.624
REMARK  6 active torsions:
REMARK  status: ('A' for Active; 'I' for Inactive)
REMARK    1  A    between atoms: C_2  and  C_3 
REMARK    2  A    between atoms: C_7  and  C_8 
REMARK       I    between atoms: C_8  and  N_9 
REMARK    3  A    between atoms: N_9  and  C_10 
REMARK    4  A    between atoms: C_13  and  C_14 
REMARK       I    between atoms: C_14  and  N_15 
REMARK    5  A    between atoms: N_15  and  C_16 
REMARK    6  A    between atoms: C_16  and  C_17 
ROOT
HETATM    1  C   UNL     1      25.709  46.166  50.414  1.00  0.00     0.035 A 
HETATM    2  C   UNL     1      25.550  45.959  51.793  1.00  0.00     0.030 A 
HETATM    3  C   UNL     1      26.382  45.071  52.485  1.00  0.00     0.019 A 
HETATM    4  C   UNL     1      27.371  44.365  51.795  1.00  0.00     0.032 A 
HETATM    5  C   UNL     1      27.500  44.527  50.414  1.00  0.00     0.019 A 
HETATM    6  C   UNL     1      26.679  45.429  49.730  1.00  0.00     0.030 A 
ENDROOT
BRANCH   1   7
HETATM    7  N   UNL     1      24.862  47.107  49.792  1.00  0.00    -0.322 N 
HETATM    8  C   UNL     1      25.183  48.401  49.429  1.00  0.00     0.274 C 
HETATM    9  O   UNL     1      26.253  48.956  49.658  1.00  0.00    -0.266 OA
HETATM   10  H   UNL     1      23.893  46.840  49.694  1.00  0.00     0.169 HD
BRANCH   8  11
HETATM   11  C   UNL     1      24.116  49.124  48.780  1.00  0.00     0.120 A 
HETATM   12  N   UNL     1      24.376  49.983  47.746  1.00  0.00    -0.273 N 
HETATM   13  N   UNL     1      23.288  50.594  47.253  1.00  0.00    -0.179 NA
HETATM   14  H   UNL     1      25.286  50.195  47.346  1.00  0.00     0.189 HD
HETATM   15  C   UNL     1      22.278  50.074  47.958  1.00  0.00     0.056 A 
HETATM   16  C   UNL     1      22.743  49.160  48.935  1.00  0.00     0.065 A 
BRANCH  15  17
HETATM   17  C   UNL     1      20.872  50.476  47.667  1.00  0.00     0.056 C 
HETATM   18  C   UNL     1      20.377  51.575  48.596  1.00  0.00     0.011 C 
ENDBRANCH  15  17
ENDBRANCH   8  11
ENDBRANCH   1   7
BRANCH   4  19
HETATM   19  C   UNL     1      28.314  43.444  52.479  1.00  0.00     0.251 C 
HETATM   20  N   UNL     1      28.940  43.948  53.594  1.00  0.00    -0.353 N 
HETATM   21  H   UNL     1      28.753  44.891  53.909  1.00  0.00     0.163 HD
HETATM   22  O   UNL     1      28.537  42.335  52.011  1.00  0.00    -0.268 OA
BRANCH  20  23
HETATM   23  C   UNL     1      29.995  43.213  54.257  1.00  0.00     0.161 C 
BRANCH  23  24
HETATM   24  C   UNL     1      30.348  43.824  55.592  1.00  0.00    -0.041 A 
HETATM   25  C   UNL     1      31.266  43.188  56.440  1.00  0.00     0.009 A 
HETATM   26  C   UNL     1      31.626  43.767  57.659  1.00  0.00     0.001 A 
HETATM   27  C   UNL     1      31.075  44.988  58.043  1.00  0.00     0.000 A 
HETATM   28  C   UNL     1      30.174  45.638  57.203  1.00  0.00     0.001 A 
HETATM   29  C   UNL     1      29.820  45.065  55.981  1.00  0.00     0.009 A 
ENDBRANCH  23  24
ENDBRANCH  20  23
ENDBRANCH   4  19
TORSDOF 6
ENDMDL
MODEL 3
REMARK VINA RESULT:      -9.0      1.372      2.102
REMARK  6 active torsions:
REMARK  status: ('A' for Active; 'I' for Inactive)
REMARK    1  A    between atoms: C_2  and  C_3 
REMARK    2  A    between atoms: C_7  and  C_8 
REMARK       I    between atoms: C_8  and  N_9 
REMARK    3  A    between atoms: N_9  and  C_10 
REMARK    4  A    between atoms: C_13  and  C_14 
REMARK       I    between atoms: C_14  and  N_15 
REMARK    5  A    between atoms: N_15  and  C_16 
REMARK    6  A    between atoms: C_16  and  C_17 
ROOT
HETATM    1  C   UNL     1      23.895  47.079  49.819  1.00  0.00     0.035 A 
HETATM    2  C   UNL     1      23.800  45.846  49.159  1.00  0.00     0.030 A 
HETATM    3  C   UNL     1      24.775  44.857  49.342  1.00  0.00     0.019 A 
HETATM    4  C   UNL     1      25.867  45.106  50.176  1.00  0.00     0.032 A 
HETATM    5  C   UNL     1      25.995  46.351  50.796  1.00  0.00     0.019 A 
HETATM    6  C   UNL     1      25.010  47.328  50.625  1.00  0.00     0.030 A 
ENDROOT
BRANCH   1   7
HETATM    7  N   UNL     1      22.855  48.010  49.619  1.00  0.00    -0.322 N 
HETATM    8  C   UNL     1      22.773  48.963  48.621  1.00  0.00     0.274 C 
HETATM    9  O   UNL     1      23.640  49.188  47.784  1.00  0.00    -0.266 OA
HETATM   10  H   UNL     1      22.147  48.051  50.338  1.00  0.00     0.169 HD
BRANCH   8  11
HETATM   11  C   UNL     1      21.571  49.761  48.650  1.00  0.00     0.120 A 
HETATM   12  N   UNL     1      20.382  49.227  49.069  1.00  0.00    -0.273 N 
HETATM   13  N   UNL     1      19.350  50.083  49.029  1.00  0.00    -0.179 NA
HETATM   14  H   UNL     1      20.221  48.274  49.385  1.00  0.00     0.189 HD
HETATM   15  C   UNL     1      19.899  51.231  48.618  1.00  0.00     0.056 A 
HETATM   16  C   UNL     1      21.282  51.080  48.354  1.00  0.00     0.065 A 
BRANCH  15  17
HETATM   17  C   UNL     1      19.064  52.460  48.489  1.00  0.00     0.056 C 
HETATM   18  C   UNL     1      17.993  52.325  47.417  1.00  0.00     0.011 C 
ENDBRANCH  15  17
ENDBRANCH   8  11
ENDBRANCH   1   7
BRANCH   4  19
HETATM   19  C   UNL     1      26.910  44.083  50.447  1.00  0.00     0.251 C 
HETATM   20  N   UNL     1      27.360  44.016  51.745  1.00  0.00    -0.353 N 
HETATM   21  H   UNL     1      26.988  44.635  52.452  1.00  0.00     0.163 HD
HETATM   22  O   UNL     1      27.357  43.406  49.531  1.00  0.00    -0.268 OA
BRANCH  20  23
HETATM   23  C   UNL     1      28.480  43.176  52.106  1.00  0.00     0.161 C 
BRANCH  23  24
HETATM   24  C   UNL     1      29.115  43.617  53.401  1.00  0.00    -0.041 A 
HETATM   25  C   UNL     1      28.558  44.671  54.140  1.00  0.00     0.009 A 
HETATM   26  C   UNL     1      29.119  45.059  55.359  1.00  0.00     0.001 A 
HETATM   27  C   UNL     1      30.241  44.397  55.854  1.00  0.00     0.000 A 
HETATM   28  C   UNL     1      30.796  43.339  55.139  1.00  0.00     0.001 A 
HETATM   29  C   UNL     1      30.231  42.944  53.925  1.00  0.00     0.009 A 
ENDBRANCH  23  24
ENDBRANCH  20  23
ENDBRANCH   4  19
TORSDOF 6
ENDMDL
MODEL 4
REMARK VINA RESULT:      -8.9      1.876     10.543
REMARK  6 active torsions:
REMARK  status: ('A' for Active; 'I' for Inactive)
REMARK    1  A    between atoms: C_2  and  C_3 
REMARK    2  A    between atoms: C_7  and  C_8 
REMARK       I    between atoms: C_8  and  N_9 
REMARK    3  A    between atoms: N_9  and  C_10 
REMARK    4  A    between atoms: C_13  and  C_14 
REMARK       I    between atoms: C_14  and  N_15 
REMARK    5  A    between atoms: N_15  and  C_16 
REMARK    6  A    between atoms: C_16  and  C_17 
ROOT
HETATM    1  C   UNL     1      25.822  46.842  50.642  1.00  0.00     0.035 A 
HETATM    2  C   UNL     1      26.552  47.859  50.010  1.00  0.00     0.030 A 
HETATM    3  C   UNL     1      25.909  48.816  49.215  1.00  0.00     0.019 A 
HETATM    4  C   UNL     1      24.526  48.747  49.029  1.00  0.00     0.032 A 
HETATM    5  C   UNL     1      23.800  47.707  49.613  1.00  0.00     0.019 A 
HETATM    6  C   UNL     1      24.444  46.765  50.422  1.00  0.00     0.030 A 
ENDROOT
BRANCH   1   7
HETATM    7  N   UNL     1      26.531  45.939  51.461  1.00  0.00    -0.322 N 
HETATM    8  C   UNL     1      26.446  45.823  52.836  1.00  0.00     0.274 C 
HETATM    9  O   UNL     1      25.778  46.544  53.568  1.00  0.00    -0.266 OA
HETATM   10  H   UNL     1      27.248  45.392  51.008  1.00  0.00     0.169 HD
BRANCH   8  11
HETATM   11  C   UNL     1      27.275  44.786  53.402  1.00  0.00     0.120 A 
HETATM   12  N   UNL     1      26.907  43.469  53.324  1.00  0.00    -0.273 N 
HETATM   13  N   UNL     1      27.768  42.622  53.906  1.00  0.00    -0.179 NA
HETATM   14  H   UNL     1      26.067  43.098  52.888  1.00  0.00     0.189 HD
HETATM   15  C   UNL     1      28.759  43.411  54.334  1.00  0.00     0.056 A 
HETATM   16  C   UNL     1      28.493  44.775  54.056  1.00  0.00     0.065 A 
BRANCH  15  17
HETATM   17  C   UNL     1      29.952  42.823  55.008  1.00  0.00     0.056 C 
HETATM   18  C   UNL     1      30.798  43.874  55.712  1.00  0.00     0.011 C 
ENDBRANCH  15  17
ENDBRANCH   8  11
ENDBRANCH   1   7
BRANCH   4  19
HETATM   19  C   UNL     1      23.780  49.757  48.235  1.00  0.00     0.251 C 
HETATM   20  N   UNL     1      22.491  50.006  48.644  1.00  0.00    -0.353 N 
HETATM   21  H   UNL     1      22.098  49.520  49.438  1.00  0.00     0.163 HD
HETATM   22  O   UNL     1      24.297  50.265  47.249  1.00  0.00    -0.268 OA
BRANCH  20  23
HETATM   23  C   UNL     1      21.608  50.846  47.864  1.00  0.00     0.161 C 
BRANCH  23  24
HETATM   24  C   UNL     1      20.296  51.084  48.570  1.00  0.00    -0.041 A 
HETATM   25  C   UNL     1      19.808  50.147  49.491  1.00  0.00     0.009 A 
HETATM   26  C   UNL     1      18.612  50.380  50.176  1.00  0.00     0.001 A 
HETATM   27  C   UNL     1      17.893  51.552  49.949  1.00  0.00     0.000 A 
HETATM   28  C   UNL     1      18.374  52.498  49.047  1.00  0.00     0.001 A 
HETATM   29  C   UNL     1      19.572  52.271  48.369  1.00  0.00     0.009 A 
ENDBRANCH  23  24
ENDBRANCH  20  23
ENDBRANCH   4  19
TORSDOF 6
ENDMDL
MODEL 5
REMARK VINA RESULT:      -8.5      1.926     10.695
REMARK  6 active torsions:
REMARK  status: ('A' for Active; 'I' for Inactive)
REMARK    1  A    between atoms: C_2  and  C_3 
REMARK    2  A    between atoms: C_7  and  C_8 
REMARK       I    between atoms: C_8  and  N_9 
REMARK    3  A    between atoms: N_9  and  C_10 
REMARK    4  A    between atoms: C_13  and  C_14 
REMARK       I    between atoms: C_14  and  N_15 
REMARK    5  A    between atoms: N_15  and  C_16 
REMARK    6  A    between atoms: C_16  and  C_17 
ROOT
HETATM    1  C   UNL     1      25.179  46.072  50.784  1.00  0.00     0.035 A 
HETATM    2  C   UNL     1      24.954  47.448  50.635  1.00  0.00     0.030 A 
HETATM    3  C   UNL     1      23.965  47.924  49.766  1.00  0.00     0.019 A 
HETATM    4  C   UNL     1      23.203  47.019  49.021  1.00  0.00     0.032 A 
HETATM    5  C   UNL     1      23.457  45.650  49.125  1.00  0.00     0.019 A 
HETATM    6  C   UNL     1      24.433  45.179  50.009  1.00  0.00     0.030 A 
ENDROOT
BRANCH   1   7
HETATM    7  N   UNL     1      26.164  45.666  51.708  1.00  0.00    -0.322 N 
HETATM    8  C   UNL     1      25.970  44.915  52.852  1.00  0.00     0.274 C 
HETATM    9  O   UNL     1      24.883  44.539  53.277  1.00  0.00    -0.266 OA
HETATM   10  H   UNL     1      27.089  46.049  51.574  1.00  0.00     0.169 HD
BRANCH   8  11
HETATM   11  C   UNL     1      27.175  44.629  53.593  1.00  0.00     0.120 A 
HETATM   12  N   UNL     1      27.517  45.368  54.694  1.00  0.00    -0.273 N 
HETATM   13  N   UNL     1      28.668  44.996  55.271  1.00  0.00    -0.179 NA
HETATM   14  H   UNL     1      26.998  46.149  55.087  1.00  0.00     0.189 HD
HETATM   15  C   UNL     1      29.064  43.941  54.550  1.00  0.00     0.056 A 
HETATM   16  C   UNL     1      28.173  43.679  53.481  1.00  0.00     0.065 A 
BRANCH  15  17
HETATM   17  C   UNL     1      30.308  43.204  54.915  1.00  0.00     0.056 C 
HETATM   18  C   UNL     1      31.005  43.804  56.128  1.00  0.00     0.011 C 
ENDBRANCH  15  17
ENDBRANCH   8  11
ENDBRANCH   1   7
BRANCH   4  19
HETATM   19  C   UNL     1      22.109  47.458  48.117  1.00  0.00     0.251 C 
HETATM   20  N   UNL     1      21.186  48.315  48.667  1.00  0.00    -0.353 N 
HETATM   21  H   UNL     1      21.269  48.614  49.629  1.00  0.00     0.163 HD
HETATM   22  O   UNL     1      22.036  47.010  46.980  1.00  0.00    -0.268 OA
BRANCH  20  23
HETATM   23  C   UNL     1      19.989  48.690  47.946  1.00  0.00     0.161 C 
BRANCH  23  24
HETATM   24  C   UNL     1      19.391  49.968  48.482  1.00  0.00    -0.041 A 
HETATM   25  C   UNL     1      19.864  51.211  48.039  1.00  0.00     0.009 A 
HETATM   26  C   UNL     1      19.288  52.396  48.503  1.00  0.00     0.001 A 
HETATM   27  C   UNL     1      18.232  52.352  49.411  1.00  0.00     0.000 A 
HETATM   28  C   UNL     1      17.741  51.124  49.847  1.00  0.00     0.001 A 
HETATM   29  C   UNL     1      18.310  49.939  49.378  1.00  0.00     0.009 A 
ENDBRANCH  23  24
ENDBRANCH  20  23
ENDBRANCH   4  19
TORSDOF 6
ENDMDL
MODEL 6
REMARK VINA RESULT:      -8.4      1.929     10.409
REMARK  6 active torsions:
REMARK  status: ('A' for Active; 'I' for Inactive)
REMARK    1  A    between atoms: C_2  and  C_3 
REMARK    2  A    between atoms: C_7  and  C_8 
REMARK       I    between atoms: C_8  and  N_9 
REMARK    3  A    between atoms: N_9  and  C_10 
REMARK    4  A    between atoms: C_13  and  C_14 
REMARK       I    between atoms: C_14  and  N_15 
REMARK    5  A    between atoms: N_15  and  C_16 
REMARK    6  A    between atoms: C_16  and  C_17 
ROOT
HETATM    1  C   UNL     1      25.995  45.715  51.789  1.00  0.00     0.035 A 
HETATM    2  C   UNL     1      25.143  44.693  51.347  1.00  0.00     0.030 A 
HETATM    3  C   UNL     1      24.140  44.952  50.404  1.00  0.00     0.019 A 
HETATM    4  C   UNL     1      23.971  46.249  49.911  1.00  0.00     0.032 A 
HETATM    5  C   UNL     1      24.782  47.281  50.386  1.00  0.00     0.019 A 
HETATM    6  C   UNL     1      25.794  47.014  51.313  1.00  0.00     0.030 A 
ENDROOT
BRANCH   1   7
HETATM    7  N   UNL     1      27.008  45.370  52.708  1.00  0.00    -0.322 N 
HETATM    8  C   UNL     1      27.085  45.740  54.037  1.00  0.00     0.274 C 
HETATM    9  O   UNL     1      26.303  46.491  54.610  1.00  0.00    -0.266 OA
HETATM   10  H   UNL     1      27.811  44.888  52.329  1.00  0.00     0.169 HD
BRANCH   8  11
HETATM   11  C   UNL     1      28.228  45.211  54.742  1.00  0.00     0.120 A 
HETATM   12  N   UNL     1      28.899  44.114  54.272  1.00  0.00    -0.273 N 
HETATM   13  N   UNL     1      29.930  43.730  55.038  1.00  0.00    -0.179 NA
HETATM   14  H   UNL     1      28.683  43.584  53.432  1.00  0.00     0.189 HD
HETATM   15  C   UNL     1      29.964  44.642  56.015  1.00  0.00     0.056 A 
HETATM   16  C   UNL     1      28.912  45.582  55.884  1.00  0.00     0.065 A 
BRANCH  15  17
HETATM   17  C   UNL     1      31.022  44.583  57.064  1.00  0.00     0.056 C 
HETATM   18  C   UNL     1      31.755  43.249  57.076  1.00  0.00     0.011 C 
ENDBRANCH  15  17
ENDBRANCH   8  11
ENDBRANCH   1   7
BRANCH   4  19
HETATM   19  C   UNL     1      22.956  46.579  48.877  1.00  0.00     0.251 C 
HETATM   20  N   UNL     1      22.264  47.750  49.071  1.00  0.00    -0.353 N 
HETATM   21  H   UNL     1      22.452  48.333  49.875  1.00  0.00     0.163 HD
HETATM   22  O   UNL     1      22.739  45.798  47.960  1.00  0.00    -0.268 OA
BRANCH  20  23
HETATM   23  C   UNL     1      21.144  48.107  48.227  1.00  0.00     0.161 C 
BRANCH  23  24
HETATM   24  C   UNL     1      20.472  49.374  48.696  1.00  0.00    -0.041 A 
HETATM   25  C   UNL     1      19.612  49.351  49.804  1.00  0.00     0.009 A 
HETATM   26  C   UNL     1      19.017  50.527  50.265  1.00  0.00     0.001 A 
HETATM   27  C   UNL     1      19.275  51.739  49.628  1.00  0.00     0.000 A 
HETATM   28  C   UNL     1      20.139  51.779  48.536  1.00  0.00     0.001 A 
HETATM   29  C   UNL     1      20.741  50.606  48.078  1.00  0.00     0.009 A 
ENDBRANCH  23  24
ENDBRANCH  20  23
ENDBRANCH   4  19
TORSDOF 6
ENDMDL
MODEL 7
REMARK VINA RESULT:      -8.0      1.865     10.556
REMARK  6 active torsions:
REMARK  status: ('A' for Active; 'I' for Inactive)
REMARK    1  A    between atoms: C_2  and  C_3 
REMARK    2  A    between atoms: C_7  and  C_8 
REMARK       I    between atoms: C_8  and  N_9 
REMARK    3  A    between atoms: N_9  and  C_10 
REMARK    4  A    between atoms: C_13  and  C_14 
REMARK       I    between atoms: C_14  and  N_15 
REMARK    5  A    between atoms: N_15  and  C_16 
REMARK    6  A    between atoms: C_16  and  C_17 
ROOT
HETATM    1  C   UNL     1      25.262  45.422  50.806  1.00  0.00     0.035 A 
HETATM    2  C   UNL     1      24.299  44.580  50.231  1.00  0.00     0.030 A 
HETATM    3  C   UNL     1      23.266  45.104  49.443  1.00  0.00     0.019 A 
HETATM    4  C   UNL     1      23.180  46.483  49.242  1.00  0.00     0.032 A 
HETATM    5  C   UNL     1      24.105  47.332  49.854  1.00  0.00     0.019 A 
HETATM    6  C   UNL     1      25.145  46.803  50.624  1.00  0.00     0.030 A 
ENDROOT
BRANCH   1   7
HETATM    7  N   UNL     1      26.297  44.819  51.552  1.00  0.00    -0.322 N 
HETATM    8  C   UNL     1      27.336  44.051  51.061  1.00  0.00     0.274 C 
HETATM    9  O   UNL     1      27.479  43.719  49.889  1.00  0.00    -0.266 OA
HETATM   10  H   UNL     1      26.212  44.871  52.557  1.00  0.00     0.169 HD
BRANCH   8  11
HETATM   11  C   UNL     1      28.265  43.589  52.063  1.00  0.00     0.120 A 
HETATM   12  N   UNL     1      28.943  42.410  51.903  1.00  0.00    -0.273 N 
HETATM   13  N   UNL     1      29.760  42.103  52.921  1.00  0.00    -0.179 NA
HETATM   14  H   UNL     1      28.874  41.771  51.115  1.00  0.00     0.189 HD
HETATM   15  C   UNL     1      29.649  43.147  53.750  1.00  0.00     0.056 A 
HETATM   16  C   UNL     1      28.716  44.097  53.267  1.00  0.00     0.065 A 
BRANCH  15  17
HETATM   17  C   UNL     1      30.456  43.202  55.003  1.00  0.00     0.056 C 
HETATM   18  C   UNL     1      30.222  44.484  55.789  1.00  0.00     0.011 C 
ENDBRANCH  15  17
ENDBRANCH   8  11
ENDBRANCH   1   7
BRANCH   4  19
HETATM   19  C   UNL     1      22.136  47.096  48.381  1.00  0.00     0.251 C 
HETATM   20  N   UNL     1      20.975  47.466  49.018  1.00  0.00    -0.353 N 
HETATM   21  H   UNL     1      20.864  47.320  50.012  1.00  0.00     0.163 HD
HETATM   22  O   UNL     1      22.314  47.190  47.173  1.00  0.00    -0.268 OA
BRANCH  20  23
HETATM   23  C   UNL     1      19.825  47.926  48.271  1.00  0.00     0.161 C 
BRANCH  23  24
HETATM   24  C   UNL     1      19.613  49.412  48.431  1.00  0.00    -0.041 A 
HETATM   25  C   UNL     1      19.889  50.039  49.655  1.00  0.00     0.009 A 
HETATM   26  C   UNL     1      19.731  51.419  49.797  1.00  0.00     0.001 A 
HETATM   27  C   UNL     1      19.298  52.189  48.719  1.00  0.00     0.000 A 
HETATM   28  C   UNL     1      19.035  51.582  47.493  1.00  0.00     0.001 A 
HETATM   29  C   UNL     1      19.201  50.204  47.347  1.00  0.00     0.009 A 
ENDBRANCH  23  24
ENDBRANCH  20  23
ENDBRANCH   4  19
TORSDOF 6
ENDMDL
MODEL 8
REMARK VINA RESULT:      -8.0      2.097      2.301
REMARK  6 active torsions:
REMARK  status: ('A' for Active; 'I' for Inactive)
REMARK    1  A    between atoms: C_2  and  C_3 
REMARK    2  A    between atoms: C_7  and  C_8 
REMARK       I    between atoms: C_8  and  N_9 
REMARK    3  A    between atoms: N_9  and  C_10 
REMARK    4  A    between atoms: C_13  and  C_14 
REMARK       I    between atoms: C_14  and  N_15 
REMARK    5  A    between atoms: N_15  and  C_16 
REMARK    6  A    between atoms: C_16  and  C_17 
ROOT
HETATM    1  C   UNL     1      25.035  45.322  50.807  1.00  0.00     0.035 A 
HETATM    2  C   UNL     1      26.180  44.824  50.168  1.00  0.00     0.030 A 
HETATM    3  C   UNL     1      27.158  44.128  50.889  1.00  0.00     0.019 A 
HETATM    4  C   UNL     1      27.005  43.944  52.266  1.00  0.00     0.032 A 
HETATM    5  C   UNL     1      25.893  44.482  52.917  1.00  0.00     0.019 A 
HETATM    6  C   UNL     1      24.910  45.160  52.189  1.00  0.00     0.030 A 
ENDROOT
BRANCH   1   7
HETATM    7  N   UNL     1      24.073  45.976  50.009  1.00  0.00    -0.322 N 
HETATM    8  C   UNL     1      23.176  45.385  49.139  1.00  0.00     0.274 C 
HETATM    9  O   UNL     1      23.127  44.188  48.877  1.00  0.00    -0.266 OA
HETATM   10  H   UNL     1      24.112  46.985  49.997  1.00  0.00     0.169 HD
BRANCH   8  11
HETATM   11  C   UNL     1      22.288  46.308  48.475  1.00  0.00     0.120 A 
HETATM   12  N   UNL     1      22.744  47.512  48.009  1.00  0.00    -0.273 N 
HETATM   13  N   UNL     1      21.802  48.269  47.428  1.00  0.00    -0.179 NA
HETATM   14  H   UNL     1      23.694  47.869  48.074  1.00  0.00     0.189 HD
HETATM   15  C   UNL     1      20.704  47.508  47.470  1.00  0.00     0.056 A 
HETATM   16  C   UNL     1      20.950  46.277  48.127  1.00  0.00     0.065 A 
BRANCH  15  17
HETATM   17  C   UNL     1      19.429  47.992  46.867  1.00  0.00     0.056 C 
HETATM   18  C   UNL     1      19.091  49.415  47.288  1.00  0.00     0.011 C 
ENDBRANCH  15  17
ENDBRANCH   8  11
ENDBRANCH   1   7
BRANCH   4  19
HETATM   19  C   UNL     1      27.984  43.177  53.078  1.00  0.00     0.251 C 
HETATM   20  N   UNL     1      29.007  43.909  53.632  1.00  0.00    -0.353 N 
HETATM   21  H   UNL     1      29.068  44.907  53.480  1.00  0.00     0.163 HD
HETATM   22  O   UNL     1      27.884  41.960  53.172  1.00  0.00    -0.268 OA
BRANCH  20  23
HETATM   23  C   UNL     1      30.109  43.262  54.310  1.00  0.00     0.161 C 
BRANCH  23  24
HETATM   24  C   UNL     1      30.398  43.904  55.645  1.00  0.00    -0.041 A 
HETATM   25  C   UNL     1      31.291  43.301  56.542  1.00  0.00     0.009 A 
HETATM   26  C   UNL     1      31.592  43.909  57.762  1.00  0.00     0.001 A 
HETATM   27  C   UNL     1      31.006  45.128  58.099  1.00  0.00     0.000 A 
HETATM   28  C   UNL     1      30.129  45.746  57.211  1.00  0.00     0.001 A 
HETATM   29  C   UNL     1      29.834  45.144  55.988  1.00  0.00     0.009 A 
ENDBRANCH  23  24
ENDBRANCH  20  23
ENDBRANCH   4  19
TORSDOF 6
ENDMDL
MODEL 9
REMARK VINA RESULT:      -7.6      2.575     10.221
REMARK  6 active torsions:
REMARK  status: ('A' for Active; 'I' for Inactive)
REMARK    1  A    between atoms: C_2  and  C_3 
REMARK    2  A    between atoms: C_7  and  C_8 
REMARK       I    between atoms: C_8  and  N_9 
REMARK    3  A    between atoms: N_9  and  C_10 
REMARK    4  A    between atoms: C_13  and  C_14 
REMARK       I    between atoms: C_14  and  N_15 
REMARK    5  A    between atoms: N_15  and  C_16 
REMARK    6  A    between atoms: C_16  and  C_17 
ROOT
HETATM    1  C   UNL     1      26.729  44.857  52.810  1.00  0.00     0.035 A 
HETATM    2  C   UNL     1      27.277  44.651  51.536  1.00  0.00     0.030 A 
HETATM    3  C   UNL     1      26.462  44.642  50.397  1.00  0.00     0.019 A 
HETATM    4  C   UNL     1      25.083  44.820  50.531  1.00  0.00     0.032 A 
HETATM    5  C   UNL     1      24.524  44.974  51.801  1.00  0.00     0.019 A 
HETATM    6  C   UNL     1      25.345  45.001  52.933  1.00  0.00     0.030 A 
ENDROOT
BRANCH   1   7
HETATM    7  N   UNL     1      27.617  44.895  53.906  1.00  0.00    -0.322 N 
HETATM    8  C   UNL     1      27.955  46.000  54.663  1.00  0.00     0.274 C 
HETATM    9  O   UNL     1      27.577  47.147  54.450  1.00  0.00    -0.266 OA
HETATM   10  H   UNL     1      28.135  44.048  54.091  1.00  0.00     0.169 HD
BRANCH   8  11
HETATM   11  C   UNL     1      28.872  45.730  55.744  1.00  0.00     0.120 A 
HETATM   12  N   UNL     1      28.735  46.353  56.956  1.00  0.00    -0.273 N 
HETATM   13  N   UNL     1      29.668  46.012  57.857  1.00  0.00    -0.179 NA
HETATM   14  H   UNL     1      28.022  47.030  57.214  1.00  0.00     0.189 HD
HETATM   15  C   UNL     1      30.408  45.095  57.226  1.00  0.00     0.056 A 
HETATM   16  C   UNL     1      29.961  44.892  55.897  1.00  0.00     0.065 A 
BRANCH  15  17
HETATM   17  C   UNL     1      31.541  44.428  57.929  1.00  0.00     0.056 C 
HETATM   18  C   UNL     1      31.957  43.127  57.258  1.00  0.00     0.011 C 
ENDBRANCH  15  17
ENDBRANCH   8  11
ENDBRANCH   1   7
BRANCH   4  19
HETATM   19  C   UNL     1      24.171  44.867  49.359  1.00  0.00     0.251 C 
HETATM   20  N   UNL     1      22.960  45.483  49.567  1.00  0.00    -0.353 N 
HETATM   21  H   UNL     1      22.728  45.873  50.470  1.00  0.00     0.163 HD
HETATM   22  O   UNL     1      24.492  44.323  48.310  1.00  0.00    -0.268 OA
BRANCH  20  23
HETATM   23  C   UNL     1      21.923  45.456  48.559  1.00  0.00     0.161 C 
BRANCH  23  24
HETATM   24  C   UNL     1      21.454  46.845  48.201  1.00  0.00    -0.041 A 
HETATM   25  C   UNL     1      20.309  47.024  47.413  1.00  0.00     0.009 A 
HETATM   26  C   UNL     1      19.848  48.308  47.110  1.00  0.00     0.001 A 
HETATM   27  C   UNL     1      20.526  49.426  47.593  1.00  0.00     0.000 A 
HETATM   28  C   UNL     1      21.657  49.262  48.390  1.00  0.00     0.001 A 
HETATM   29  C   UNL     1      22.113  47.981  48.700  1.00  0.00     0.009 A 
ENDBRANCH  23  24
ENDBRANCH  20  23
ENDBRANCH   4  19
TORSDOF 6
ENDMDL
MODEL 10
REMARK VINA RESULT:      -7.4      5.770      9.123
REMARK  6 active torsions:
REMARK  status: ('A' for Active; 'I' for Inactive)
REMARK    1  A    between atoms: C_2  and  C_3 
REMARK    2  A    between atoms: C_7  and  C_8 
REMARK       I    between atoms: C_8  and  N_9 
REMARK    3  A    between atoms: N_9  and  C_10 
REMARK    4  A    between atoms: C_13  and  C_14 
REMARK       I    between atoms: C_14  and  N_15 
REMARK    5  A    between atoms: N_15  and  C_16 
REMARK    6  A    between atoms: C_16  and  C_17 
ROOT
HETATM    1  C   UNL     1      26.776  40.484  50.330  1.00  0.00     0.035 A 
HETATM    2  C   UNL     1      28.002  40.658  50.987  1.00  0.00     0.030 A 
HETATM    3  C   UNL     1      28.271  41.829  51.706  1.00  0.00     0.019 A 
HETATM    4  C   UNL     1      27.315  42.847  51.756  1.00  0.00     0.032 A 
HETATM    5  C   UNL     1      26.113  42.702  51.061  1.00  0.00     0.019 A 
HETATM    6  C   UNL     1      25.841  41.523  50.360  1.00  0.00     0.030 A 
ENDROOT
BRANCH   1   7
HETATM    7  N   UNL     1      26.560  39.261  49.661  1.00  0.00    -0.322 N 
HETATM    8  C   UNL     1      26.904  38.956  48.357  1.00  0.00     0.274 C 
HETATM    9  O   UNL     1      27.398  39.739  47.553  1.00  0.00    -0.266 OA
HETATM   10  H   UNL     1      26.007  38.574  50.152  1.00  0.00     0.169 HD
BRANCH   8  11
HETATM   11  C   UNL     1      26.582  37.609  47.952  1.00  0.00     0.120 A 
HETATM   12  N   UNL     1      25.300  37.137  48.033  1.00  0.00    -0.273 N 
HETATM   13  N   UNL     1      25.156  35.864  47.635  1.00  0.00    -0.179 NA
HETATM   14  H   UNL     1      24.484  37.645  48.365  1.00  0.00     0.189 HD
HETATM   15  C   UNL     1      26.381  35.512  47.231  1.00  0.00     0.056 A 
HETATM   16  C   UNL     1      27.313  36.562  47.421  1.00  0.00     0.065 A 
BRANCH  15  17
HETATM   17  C   UNL     1      26.625  34.154  46.664  1.00  0.00     0.056 C 
HETATM   18  C   UNL     1      26.046  33.995  45.266  1.00  0.00     0.011 C 
ENDBRANCH  15  17
ENDBRANCH   8  11
ENDBRANCH   1   7
BRANCH   4  19
HETATM   19  C   UNL     1      27.521  44.093  52.539  1.00  0.00     0.251 C 
HETATM   20  N   UNL     1      28.441  44.014  53.558  1.00  0.00    -0.353 N 
HETATM   21  H   UNL     1      28.933  43.151  53.742  1.00  0.00     0.163 HD
HETATM   22  O   UNL     1      26.848  45.087  52.298  1.00  0.00    -0.268 OA
BRANCH  20  23
HETATM   23  C   UNL     1      28.619  45.105  54.491  1.00  0.00     0.161 C 
BRANCH  23  24
HETATM   24  C   UNL     1      29.619  44.761  55.568  1.00  0.00    -0.041 A 
HETATM   25  C   UNL     1      29.719  45.555  56.719  1.00  0.00     0.009 A 
HETATM   26  C   UNL     1      30.616  45.221  57.737  1.00  0.00     0.001 A 
HETATM   27  C   UNL     1      31.421  44.089  57.616  1.00  0.00     0.000 A 
HETATM   28  C   UNL     1      31.320  43.283  56.485  1.00  0.00     0.001 A 
HETATM   29  C   UNL     1      30.418  43.611  55.471  1.00  0.00     0.009 A 
ENDBRANCH  23  24
ENDBRANCH  20  23
ENDBRANCH   4  19
TORSDOF 6
ENDMDL
