MODEL 1
REMARK VINA RESULT:      -9.0      0.000      0.000
REMARK  5 active torsions:
REMARK  status: ('A' for Active; 'I' for Inactive)
REMARK    1  A    between atoms: O_2  and  C_3 
REMARK    2  A    between atoms: C_4  and  N_5 
REMARK       I    between atoms: N_5  and  C_6 
REMARK       I    between atoms: C_6  and  N_7 
REMARK    3  A    between atoms: N_7  and  N_8 
REMARK       I    between atoms: N_8  and  C_9 
REMARK    4  A    between atoms: C_9  and  C_10 
REMARK    5  A    between atoms: C_11  and  N_12 
ROOT
HETATM    1  N   UNL     1      24.363  45.042  51.808  1.00  0.00    -0.262 N 
HETATM    2  C   UNL     1      25.735  44.860  51.822  1.00  0.00     0.272 C 
HETATM    3  O   UNL     1      26.352  44.248  50.956  1.00  0.00    -0.266 OA
HETATM    4  H   UNL     1      23.907  45.686  52.450  1.00  0.00     0.190 HD
ENDROOT
BRANCH   1   5
HETATM    5  N   UNL     1      23.687  44.806  50.597  1.00  0.00    -0.249 N 
HETATM    6  C   UNL     1      23.660  45.765  49.607  1.00  0.00     0.339 C 
HETATM    7  N   UNL     1      23.649  47.048  50.089  1.00  0.00    -0.305 N 
HETATM    8  O   UNL     1      23.628  45.424  48.429  1.00  0.00    -0.245 OA
HETATM    9  H   UNL     1      23.299  47.143  51.036  1.00  0.00     0.171 HD
HETATM   10  H   UNL     1      23.680  43.843  50.270  1.00  0.00     0.192 HD
BRANCH   7  11
HETATM   11  C   UNL     1      23.688  48.231  49.325  1.00  0.00     0.069 A 
HETATM   12  C   UNL     1      24.939  48.821  49.077  1.00  0.00     0.095 A 
HETATM   13  C   UNL     1      25.040  49.959  48.271  1.00  0.00     0.039 A 
HETATM   14  C   UNL     1      23.887  50.537  47.740  1.00  0.00     0.003 A 
HETATM   15  C   UNL     1      22.640  49.974  48.006  1.00  0.00     0.002 A 
HETATM   16  C   UNL     1      22.540  48.824  48.794  1.00  0.00     0.032 A 
BRANCH  12  17
HETATM   17  O   UNL     1      26.047  48.233  49.639  1.00  0.00    -0.354 OA
HETATM   18  C   UNL     1      27.266  48.785  49.140  1.00  0.00     0.210 C 
ENDBRANCH  12  17
ENDBRANCH   7  11
ENDBRANCH   1   5
BRANCH   2  19
HETATM   19  C   UNL     1      26.482  45.580  52.894  1.00  0.00     0.060 A 
HETATM   20  C   UNL     1      27.460  45.031  53.744  1.00  0.00     0.054 A 
HETATM   21  C   UNL     1      27.903  45.781  54.852  1.00  0.00     0.031 A 
HETATM   22  C   UNL     1      27.420  47.070  55.084  1.00  0.00     0.002 A 
HETATM   23  C   UNL     1      26.489  47.631  54.218  1.00  0.00     0.001 A 
HETATM   24  C   UNL     1      26.022  46.890  53.133  1.00  0.00     0.019 A 
BRANCH  20  25
HETATM   25  N   UNL     1      28.077  43.771  53.508  1.00  0.00    -0.332 N 
HETATM   26  C   UNL     1      29.231  43.531  52.790  1.00  0.00     0.096 A 
HETATM   27  C   UNL     1      29.491  42.178  52.793  1.00  0.00     0.019 A 
HETATM   28  C   UNL     1      28.480  41.557  53.553  1.00  0.00     0.019 A 
HETATM   29  C   UNL     1      27.641  42.554  54.000  1.00  0.00     0.096 A 
ENDBRANCH  20  25
ENDBRANCH   2  19
TORSDOF 5
ENDMDL
MODEL 2
REMARK VINA RESULT:      -8.6      0.911      1.929
REMARK  5 active torsions:
REMARK  status: ('A' for Active; 'I' for Inactive)
REMARK    1  A    between atoms: O_2  and  C_3 
REMARK    2  A    between atoms: C_4  and  N_5 
REMARK       I    between atoms: N_5  and  C_6 
REMARK       I    between atoms: C_6  and  N_7 
REMARK    3  A    between atoms: N_7  and  N_8 
REMARK       I    between atoms: N_8  and  C_9 
REMARK    4  A    between atoms: C_9  and  C_10 
REMARK    5  A    between atoms: C_11  and  N_12 
ROOT
HETATM    1  N   UNL     1      24.326  45.033  51.806  1.00  0.00    -0.262 N 
HETATM    2  C   UNL     1      25.703  44.888  51.805  1.00  0.00     0.272 C 
HETATM    3  O   UNL     1      26.327  44.306  50.923  1.00  0.00    -0.266 OA
HETATM    4  H   UNL     1      23.860  45.656  52.463  1.00  0.00     0.190 HD
ENDROOT
BRANCH   1   5
HETATM    5  N   UNL     1      23.645  44.798  50.598  1.00  0.00    -0.249 N 
HETATM    6  C   UNL     1      23.622  45.754  49.604  1.00  0.00     0.339 C 
HETATM    7  N   UNL     1      23.623  47.039  50.082  1.00  0.00    -0.305 N 
HETATM    8  O   UNL     1      23.584  45.409  48.428  1.00  0.00    -0.245 OA
HETATM    9  H   UNL     1      23.277  47.140  51.030  1.00  0.00     0.171 HD
HETATM   10  H   UNL     1      23.629  43.835  50.274  1.00  0.00     0.192 HD
BRANCH   7  11
HETATM   11  C   UNL     1      23.669  48.219  49.314  1.00  0.00     0.069 A 
HETATM   12  C   UNL     1      22.454  48.798  48.911  1.00  0.00     0.095 A 
HETATM   13  C   UNL     1      22.442  50.003  48.202  1.00  0.00     0.039 A 
HETATM   14  C   UNL     1      23.647  50.617  47.860  1.00  0.00     0.003 A 
HETATM   15  C   UNL     1      24.857  50.033  48.231  1.00  0.00     0.002 A 
HETATM   16  C   UNL     1      24.868  48.839  48.957  1.00  0.00     0.032 A 
BRANCH  12  17
HETATM   17  O   UNL     1      21.292  48.147  49.250  1.00  0.00    -0.354 OA
HETATM   18  C   UNL     1      20.168  49.029  49.289  1.00  0.00     0.210 C 
ENDBRANCH  12  17
ENDBRANCH   7  11
ENDBRANCH   1   5
BRANCH   2  19
HETATM   19  C   UNL     1      26.442  45.610  52.880  1.00  0.00     0.060 A 
HETATM   20  C   UNL     1      27.406  45.061  53.745  1.00  0.00     0.054 A 
HETATM   21  C   UNL     1      27.841  45.817  54.853  1.00  0.00     0.031 A 
HETATM   22  C   UNL     1      27.362  47.110  55.071  1.00  0.00     0.002 A 
HETATM   23  C   UNL     1      26.445  47.670  54.190  1.00  0.00     0.001 A 
HETATM   24  C   UNL     1      25.986  46.925  53.105  1.00  0.00     0.019 A 
BRANCH  20  25
HETATM   25  N   UNL     1      28.019  43.796  53.525  1.00  0.00    -0.332 N 
HETATM   26  C   UNL     1      29.183  43.546  52.828  1.00  0.00     0.096 A 
HETATM   27  C   UNL     1      29.434  42.191  52.841  1.00  0.00     0.019 A 
HETATM   28  C   UNL     1      28.406  41.581  53.585  1.00  0.00     0.019 A 
HETATM   29  C   UNL     1      27.566  42.585  54.014  1.00  0.00     0.096 A 
ENDBRANCH  20  25
ENDBRANCH   2  19
TORSDOF 5
ENDMDL
MODEL 3
REMARK VINA RESULT:      -8.3      1.196      3.081
REMARK  5 active torsions:
REMARK  status: ('A' for Active; 'I' for Inactive)
REMARK    1  A    between atoms: O_2  and  C_3 
REMARK    2  A    between atoms: C_4  and  N_5 
REMARK       I    between atoms: N_5  and  C_6 
REMARK       I    between atoms: C_6  and  N_7 
REMARK    3  A    between atoms: N_7  and  N_8 
REMARK       I    between atoms: N_8  and  C_9 
REMARK    4  A    between atoms: C_9  and  C_10 
REMARK    5  A    between atoms: C_11  and  N_12 
ROOT
HETATM    1  N   UNL     1      25.772  44.558  51.462  1.00  0.00    -0.262 N 
HETATM    2  C   UNL     1      25.720  44.243  52.810  1.00  0.00     0.272 C 
HETATM    3  O   UNL     1      24.677  44.139  53.447  1.00  0.00    -0.266 OA
HETATM    4  H   UNL     1      26.637  44.478  50.932  1.00  0.00     0.190 HD
ENDROOT
BRANCH   1   5
HETATM    5  N   UNL     1      24.585  44.430  50.718  1.00  0.00    -0.249 N 
HETATM    6  C   UNL     1      24.181  45.430  49.858  1.00  0.00     0.339 C 
HETATM    7  N   UNL     1      24.520  46.688  50.285  1.00  0.00    -0.305 N 
HETATM    8  O   UNL     1      23.564  45.143  48.837  1.00  0.00    -0.245 OA
HETATM    9  H   UNL     1      24.671  46.771  51.284  1.00  0.00     0.171 HD
HETATM   10  H   UNL     1      24.333  43.487  50.435  1.00  0.00     0.192 HD
BRANCH   7  11
HETATM   11  C   UNL     1      24.303  47.896  49.592  1.00  0.00     0.069 A 
HETATM   12  C   UNL     1      25.424  48.640  49.188  1.00  0.00     0.095 A 
HETATM   13  C   UNL     1      25.266  49.812  48.442  1.00  0.00     0.039 A 
HETATM   14  C   UNL     1      23.986  50.266  48.128  1.00  0.00     0.003 A 
HETATM   15  C   UNL     1      22.868  49.548  48.551  1.00  0.00     0.002 A 
HETATM   16  C   UNL     1      23.026  48.365  49.279  1.00  0.00     0.032 A 
BRANCH  12  17
HETATM   17  O   UNL     1      26.666  48.168  49.539  1.00  0.00    -0.354 OA
HETATM   18  C   UNL     1      27.719  49.011  49.067  1.00  0.00     0.210 C 
ENDBRANCH  12  17
ENDBRANCH   7  11
ENDBRANCH   1   5
BRANCH   2  19
HETATM   19  C   UNL     1      27.018  43.885  53.451  1.00  0.00     0.060 A 
HETATM   20  C   UNL     1      27.865  44.754  54.164  1.00  0.00     0.054 A 
HETATM   21  C   UNL     1      29.160  44.317  54.509  1.00  0.00     0.031 A 
HETATM   22  C   UNL     1      29.589  43.026  54.192  1.00  0.00     0.002 A 
HETATM   23  C   UNL     1      28.736  42.152  53.530  1.00  0.00     0.001 A 
HETATM   24  C   UNL     1      27.461  42.580  53.159  1.00  0.00     0.019 A 
BRANCH  20  25
HETATM   25  N   UNL     1      27.458  46.040  54.615  1.00  0.00    -0.332 N 
HETATM   26  C   UNL     1      27.789  46.645  55.811  1.00  0.00     0.096 A 
HETATM   27  C   UNL     1      27.192  47.886  55.868  1.00  0.00     0.019 A 
HETATM   28  C   UNL     1      26.484  48.068  54.664  1.00  0.00     0.019 A 
HETATM   29  C   UNL     1      26.683  46.937  53.903  1.00  0.00     0.096 A 
ENDBRANCH  20  25
ENDBRANCH   2  19
TORSDOF 5
ENDMDL
MODEL 4
REMARK VINA RESULT:      -8.2      2.521      4.960
REMARK  5 active torsions:
REMARK  status: ('A' for Active; 'I' for Inactive)
REMARK    1  A    between atoms: O_2  and  C_3 
REMARK    2  A    between atoms: C_4  and  N_5 
REMARK       I    between atoms: N_5  and  C_6 
REMARK       I    between atoms: C_6  and  N_7 
REMARK    3  A    between atoms: N_7  and  N_8 
REMARK       I    between atoms: N_8  and  C_9 
REMARK    4  A    between atoms: C_9  and  C_10 
REMARK    5  A    between atoms: C_11  and  N_12 
ROOT
HETATM    1  N   UNL     1      22.812  45.473  49.727  1.00  0.00    -0.262 N 
HETATM    2  C   UNL     1      24.191  45.351  49.697  1.00  0.00     0.272 C 
HETATM    3  O   UNL     1      24.828  45.053  48.692  1.00  0.00    -0.266 OA
HETATM    4  H   UNL     1      22.333  45.876  50.530  1.00  0.00     0.190 HD
ENDROOT
BRANCH   1   5
HETATM    5  N   UNL     1      22.141  45.586  48.495  1.00  0.00    -0.249 N 
HETATM    6  C   UNL     1      21.706  46.812  48.039  1.00  0.00     0.339 C 
HETATM    7  N   UNL     1      21.317  47.662  49.042  1.00  0.00    -0.305 N 
HETATM    8  O   UNL     1      21.677  47.039  46.834  1.00  0.00    -0.245 OA
HETATM    9  H   UNL     1      21.047  47.204  49.906  1.00  0.00     0.171 HD
HETATM   10  H   UNL     1      22.421  44.928  47.773  1.00  0.00     0.192 HD
BRANCH   7  11
HETATM   11  C   UNL     1      20.892  48.997  48.893  1.00  0.00     0.069 A 
HETATM   12  C   UNL     1      19.625  49.349  49.386  1.00  0.00     0.095 A 
HETATM   13  C   UNL     1      19.181  50.674  49.320  1.00  0.00     0.039 A 
HETATM   14  C   UNL     1      19.987  51.646  48.729  1.00  0.00     0.003 A 
HETATM   15  C   UNL     1      21.234  51.297  48.212  1.00  0.00     0.002 A 
HETATM   16  C   UNL     1      21.686  49.978  48.296  1.00  0.00     0.032 A 
BRANCH  12  17
HETATM   17  O   UNL     1      18.854  48.355  49.939  1.00  0.00    -0.354 OA
HETATM   18  C   UNL     1      18.542  48.610  51.310  1.00  0.00     0.210 C 
ENDBRANCH  12  17
ENDBRANCH   7  11
ENDBRANCH   1   5
BRANCH   2  19
HETATM   19  C   UNL     1      24.913  45.744  50.941  1.00  0.00     0.060 A 
HETATM   20  C   UNL     1      25.805  46.822  51.084  1.00  0.00     0.054 A 
HETATM   21  C   UNL     1      26.578  46.920  52.259  1.00  0.00     0.031 A 
HETATM   22  C   UNL     1      26.432  45.992  53.292  1.00  0.00     0.002 A 
HETATM   23  C   UNL     1      25.517  44.954  53.171  1.00  0.00     0.001 A 
HETATM   24  C   UNL     1      24.765  44.829  52.003  1.00  0.00     0.019 A 
BRANCH  20  25
HETATM   25  N   UNL     1      25.926  47.864  50.123  1.00  0.00    -0.332 N 
HETATM   26  C   UNL     1      27.094  48.378  49.597  1.00  0.00     0.096 A 
HETATM   27  C   UNL     1      26.783  49.377  48.700  1.00  0.00     0.019 A 
HETATM   28  C   UNL     1      25.378  49.476  48.652  1.00  0.00     0.019 A 
HETATM   29  C   UNL     1      24.876  48.523  49.511  1.00  0.00     0.096 A 
ENDBRANCH  20  25
ENDBRANCH   2  19
TORSDOF 5
ENDMDL
MODEL 5
REMARK VINA RESULT:      -8.1      2.425      3.384
REMARK  5 active torsions:
REMARK  status: ('A' for Active; 'I' for Inactive)
REMARK    1  A    between atoms: O_2  and  C_3 
REMARK    2  A    between atoms: C_4  and  N_5 
REMARK       I    between atoms: N_5  and  C_6 
REMARK       I    between atoms: C_6  and  N_7 
REMARK    3  A    between atoms: N_7  and  N_8 
REMARK       I    between atoms: N_8  and  C_9 
REMARK    4  A    between atoms: C_9  and  C_10 
REMARK    5  A    between atoms: C_11  and  N_12 
ROOT
HETATM    1  N   UNL     1      24.151  46.076  50.411  1.00  0.00    -0.262 N 
HETATM    2  C   UNL     1      24.358  45.044  51.311  1.00  0.00     0.272 C 
HETATM    3  O   UNL     1      23.645  44.049  51.385  1.00  0.00    -0.266 OA
HETATM    4  H   UNL     1      24.849  46.802  50.268  1.00  0.00     0.190 HD
ENDROOT
BRANCH   1   5
HETATM    5  N   UNL     1      23.294  45.828  49.323  1.00  0.00    -0.249 N 
HETATM    6  C   UNL     1      22.649  46.866  48.684  1.00  0.00     0.339 C 
HETATM    7  N   UNL     1      22.316  47.901  49.519  1.00  0.00    -0.305 N 
HETATM    8  O   UNL     1      22.412  46.788  47.483  1.00  0.00    -0.245 OA
HETATM    9  H   UNL     1      22.237  47.647  50.498  1.00  0.00     0.171 HD
HETATM   10  H   UNL     1      23.539  45.038  48.732  1.00  0.00     0.192 HD
BRANCH   7  11
HETATM   11  C   UNL     1      21.715  49.119  49.147  1.00  0.00     0.069 A 
HETATM   12  C   UNL     1      20.339  49.279  49.380  1.00  0.00     0.095 A 
HETATM   13  C   UNL     1      19.706  50.491  49.088  1.00  0.00     0.039 A 
HETATM   14  C   UNL     1      20.437  51.538  48.527  1.00  0.00     0.003 A 
HETATM   15  C   UNL     1      21.797  51.375  48.266  1.00  0.00     0.002 A 
HETATM   16  C   UNL     1      22.434  50.171  48.577  1.00  0.00     0.032 A 
BRANCH  12  17
HETATM   17  O   UNL     1      19.652  48.214  49.912  1.00  0.00    -0.354 OA
HETATM   18  C   UNL     1      18.647  48.626  50.841  1.00  0.00     0.210 C 
ENDBRANCH  12  17
ENDBRANCH   7  11
ENDBRANCH   1   5
BRANCH   2  19
HETATM   19  C   UNL     1      25.607  45.122  52.123  1.00  0.00     0.060 A 
HETATM   20  C   UNL     1      26.657  44.186  52.132  1.00  0.00     0.054 A 
HETATM   21  C   UNL     1      27.657  44.287  53.121  1.00  0.00     0.031 A 
HETATM   22  C   UNL     1      27.638  45.325  54.055  1.00  0.00     0.002 A 
HETATM   23  C   UNL     1      26.626  46.277  54.017  1.00  0.00     0.001 A 
HETATM   24  C   UNL     1      25.617  46.174  53.060  1.00  0.00     0.019 A 
BRANCH  20  25
HETATM   25  N   UNL     1      26.801  43.169  51.147  1.00  0.00    -0.332 N 
HETATM   26  C   UNL     1      26.905  43.341  49.782  1.00  0.00     0.096 A 
HETATM   27  C   UNL     1      27.026  42.108  49.180  1.00  0.00     0.019 A 
HETATM   28  C   UNL     1      27.018  41.139  50.202  1.00  0.00     0.019 A 
HETATM   29  C   UNL     1      26.905  41.813  51.398  1.00  0.00     0.096 A 
ENDBRANCH  20  25
ENDBRANCH   2  19
TORSDOF 5
ENDMDL
MODEL 6
REMARK VINA RESULT:      -8.0      1.698      6.944
REMARK  5 active torsions:
REMARK  status: ('A' for Active; 'I' for Inactive)
REMARK    1  A    between atoms: O_2  and  C_3 
REMARK    2  A    between atoms: C_4  and  N_5 
REMARK       I    between atoms: N_5  and  C_6 
REMARK       I    between atoms: C_6  and  N_7 
REMARK    3  A    between atoms: N_7  and  N_8 
REMARK       I    between atoms: N_8  and  C_9 
REMARK    4  A    between atoms: C_9  and  C_10 
REMARK    5  A    between atoms: C_11  and  N_12 
ROOT
HETATM    1  N   UNL     1      24.201  46.364  51.013  1.00  0.00    -0.262 N 
HETATM    2  C   UNL     1      24.038  46.437  49.640  1.00  0.00     0.272 C 
HETATM    3  O   UNL     1      24.200  45.486  48.882  1.00  0.00    -0.266 OA
HETATM    4  H   UNL     1      23.904  47.122  51.623  1.00  0.00     0.190 HD
ENDROOT
BRANCH   1   5
HETATM    5  N   UNL     1      24.232  45.085  51.598  1.00  0.00    -0.249 N 
HETATM    6  C   UNL     1      25.020  44.833  52.701  1.00  0.00     0.339 C 
HETATM    7  N   UNL     1      26.185  45.557  52.718  1.00  0.00    -0.305 N 
HETATM    8  O   UNL     1      24.656  44.011  53.535  1.00  0.00    -0.245 OA
HETATM    9  H   UNL     1      26.498  45.878  51.808  1.00  0.00     0.171 HD
HETATM   10  H   UNL     1      23.369  44.550  51.550  1.00  0.00     0.192 HD
BRANCH   7  11
HETATM   11  C   UNL     1      27.153  45.564  53.741  1.00  0.00     0.069 A 
HETATM   12  C   UNL     1      27.068  46.559  54.729  1.00  0.00     0.095 A 
HETATM   13  C   UNL     1      27.965  46.573  55.802  1.00  0.00     0.039 A 
HETATM   14  C   UNL     1      28.975  45.614  55.873  1.00  0.00     0.003 A 
HETATM   15  C   UNL     1      29.083  44.642  54.880  1.00  0.00     0.002 A 
HETATM   16  C   UNL     1      28.174  44.615  53.819  1.00  0.00     0.032 A 
BRANCH  12  17
HETATM   17  O   UNL     1      26.072  47.499  54.608  1.00  0.00    -0.354 OA
HETATM   18  C   UNL     1      26.234  48.582  55.524  1.00  0.00     0.210 C 
ENDBRANCH  12  17
ENDBRANCH   7  11
ENDBRANCH   1   5
BRANCH   2  19
HETATM   19  C   UNL     1      23.502  47.724  49.109  1.00  0.00     0.060 A 
HETATM   20  C   UNL     1      24.218  48.923  48.947  1.00  0.00     0.054 A 
HETATM   21  C   UNL     1      23.513  50.108  48.651  1.00  0.00     0.031 A 
HETATM   22  C   UNL     1      22.128  50.092  48.474  1.00  0.00     0.002 A 
HETATM   23  C   UNL     1      21.426  48.898  48.589  1.00  0.00     0.001 A 
HETATM   24  C   UNL     1      22.107  47.724  48.906  1.00  0.00     0.019 A 
BRANCH  20  25
HETATM   25  N   UNL     1      25.638  48.995  49.004  1.00  0.00    -0.332 N 
HETATM   26  C   UNL     1      26.439  50.010  48.522  1.00  0.00     0.096 A 
HETATM   27  C   UNL     1      27.759  49.700  48.770  1.00  0.00     0.019 A 
HETATM   28  C   UNL     1      27.779  48.463  49.445  1.00  0.00     0.019 A 
HETATM   29  C   UNL     1      26.470  48.064  49.599  1.00  0.00     0.096 A 
ENDBRANCH  20  25
ENDBRANCH   2  19
TORSDOF 5
ENDMDL
MODEL 7
REMARK VINA RESULT:      -8.0      2.100      7.124
REMARK  5 active torsions:
REMARK  status: ('A' for Active; 'I' for Inactive)
REMARK    1  A    between atoms: O_2  and  C_3 
REMARK    2  A    between atoms: C_4  and  N_5 
REMARK       I    between atoms: N_5  and  C_6 
REMARK       I    between atoms: C_6  and  N_7 
REMARK    3  A    between atoms: N_7  and  N_8 
REMARK       I    between atoms: N_8  and  C_9 
REMARK    4  A    between atoms: C_9  and  C_10 
REMARK    5  A    between atoms: C_11  and  N_12 
ROOT
HETATM    1  N   UNL     1      22.973  46.541  49.272  1.00  0.00    -0.262 N 
HETATM    2  C   UNL     1      22.569  47.130  48.086  1.00  0.00     0.272 C 
HETATM    3  O   UNL     1      22.353  46.505  47.053  1.00  0.00    -0.266 OA
HETATM    4  H   UNL     1      22.987  47.063  50.146  1.00  0.00     0.190 HD
ENDROOT
BRANCH   1   5
HETATM    5  N   UNL     1      22.815  45.148  49.395  1.00  0.00    -0.249 N 
HETATM    6  C   UNL     1      23.566  44.430  50.301  1.00  0.00     0.339 C 
HETATM    7  N   UNL     1      24.827  44.935  50.487  1.00  0.00    -0.305 N 
HETATM    8  O   UNL     1      23.089  43.433  50.834  1.00  0.00    -0.245 OA
HETATM    9  H   UNL     1      25.176  45.498  49.719  1.00  0.00     0.171 HD
HETATM   10  H   UNL     1      21.880  44.788  49.224  1.00  0.00     0.192 HD
BRANCH   7  11
HETATM   11  C   UNL     1      25.795  44.460  51.394  1.00  0.00     0.069 A 
HETATM   12  C   UNL     1      26.918  43.792  50.877  1.00  0.00     0.095 A 
HETATM   13  C   UNL     1      27.939  43.356  51.728  1.00  0.00     0.039 A 
HETATM   14  C   UNL     1      27.826  43.554  53.104  1.00  0.00     0.003 A 
HETATM   15  C   UNL     1      26.700  44.191  53.626  1.00  0.00     0.002 A 
HETATM   16  C   UNL     1      25.690  44.644  52.774  1.00  0.00     0.032 A 
BRANCH  12  17
HETATM   17  O   UNL     1      26.977  43.597  49.518  1.00  0.00    -0.354 OA
HETATM   18  C   UNL     1      26.967  42.211  49.168  1.00  0.00     0.210 C 
ENDBRANCH  12  17
ENDBRANCH   7  11
ENDBRANCH   1   5
BRANCH   2  19
HETATM   19  C   UNL     1      22.259  48.587  48.149  1.00  0.00     0.060 A 
HETATM   20  C   UNL     1      23.141  49.613  48.534  1.00  0.00     0.054 A 
HETATM   21  C   UNL     1      22.629  50.907  48.761  1.00  0.00     0.031 A 
HETATM   22  C   UNL     1      21.276  51.187  48.563  1.00  0.00     0.002 A 
HETATM   23  C   UNL     1      20.413  50.185  48.137  1.00  0.00     0.001 A 
HETATM   24  C   UNL     1      20.900  48.894  47.934  1.00  0.00     0.019 A 
BRANCH  20  25
HETATM   25  N   UNL     1      24.547  49.428  48.649  1.00  0.00    -0.332 N 
HETATM   26  C   UNL     1      25.204  48.543  49.480  1.00  0.00     0.096 A 
HETATM   27  C   UNL     1      26.563  48.674  49.294  1.00  0.00     0.019 A 
HETATM   28  C   UNL     1      26.758  49.657  48.303  1.00  0.00     0.019 A 
HETATM   29  C   UNL     1      25.511  50.085  47.907  1.00  0.00     0.096 A 
ENDBRANCH  20  25
ENDBRANCH   2  19
TORSDOF 5
ENDMDL
MODEL 8
REMARK VINA RESULT:      -8.0      2.706      8.473
REMARK  5 active torsions:
REMARK  status: ('A' for Active; 'I' for Inactive)
REMARK    1  A    between atoms: O_2  and  C_3 
REMARK    2  A    between atoms: C_4  and  N_5 
REMARK       I    between atoms: N_5  and  C_6 
REMARK       I    between atoms: C_6  and  N_7 
REMARK    3  A    between atoms: N_7  and  N_8 
REMARK       I    between atoms: N_8  and  C_9 
REMARK    4  A    between atoms: C_9  and  C_10 
REMARK    5  A    between atoms: C_11  and  N_12 
ROOT
HETATM    1  N   UNL     1      23.274  47.858  49.613  1.00  0.00    -0.262 N 
HETATM    2  C   UNL     1      22.515  48.272  48.532  1.00  0.00     0.272 C 
HETATM    3  O   UNL     1      22.933  49.013  47.648  1.00  0.00    -0.266 OA
HETATM    4  H   UNL     1      22.951  47.121  50.237  1.00  0.00     0.190 HD
ENDROOT
BRANCH   1   5
HETATM    5  N   UNL     1      24.669  48.020  49.529  1.00  0.00    -0.249 N 
HETATM    6  C   UNL     1      25.511  47.315  50.363  1.00  0.00     0.339 C 
HETATM    7  N   UNL     1      24.982  47.084  51.607  1.00  0.00    -0.305 N 
HETATM    8  O   UNL     1      26.622  46.980  49.966  1.00  0.00    -0.245 OA
HETATM    9  H   UNL     1      24.254  47.733  51.886  1.00  0.00     0.171 HD
HETATM   10  H   UNL     1      25.041  48.220  48.605  1.00  0.00     0.192 HD
BRANCH   7  11
HETATM   11  C   UNL     1      25.575  46.339  52.645  1.00  0.00     0.069 A 
HETATM   12  C   UNL     1      25.207  44.991  52.789  1.00  0.00     0.095 A 
HETATM   13  C   UNL     1      25.812  44.190  53.763  1.00  0.00     0.039 A 
HETATM   14  C   UNL     1      26.762  44.742  54.622  1.00  0.00     0.003 A 
HETATM   15  C   UNL     1      27.111  46.086  54.503  1.00  0.00     0.002 A 
HETATM   16  C   UNL     1      26.521  46.882  53.517  1.00  0.00     0.032 A 
BRANCH  12  17
HETATM   17  O   UNL     1      24.249  44.494  51.937  1.00  0.00    -0.354 OA
HETATM   18  C   UNL     1      24.732  43.396  51.161  1.00  0.00     0.210 C 
ENDBRANCH  12  17
ENDBRANCH   7  11
ENDBRANCH   1   5
BRANCH   2  19
HETATM   19  C   UNL     1      21.165  47.652  48.401  1.00  0.00     0.060 A 
HETATM   20  C   UNL     1      19.932  48.267  48.683  1.00  0.00     0.054 A 
HETATM   21  C   UNL     1      18.766  47.476  48.729  1.00  0.00     0.031 A 
HETATM   22  C   UNL     1      18.817  46.108  48.452  1.00  0.00     0.002 A 
HETATM   23  C   UNL     1      20.028  45.509  48.127  1.00  0.00     0.001 A 
HETATM   24  C   UNL     1      21.193  46.274  48.104  1.00  0.00     0.019 A 
BRANCH  20  25
HETATM   25  N   UNL     1      19.787  49.671  48.867  1.00  0.00    -0.332 N 
HETATM   26  C   UNL     1      19.764  50.640  47.884  1.00  0.00     0.096 A 
HETATM   27  C   UNL     1      19.610  51.876  48.474  1.00  0.00     0.019 A 
HETATM   28  C   UNL     1      19.514  51.669  49.864  1.00  0.00     0.019 A 
HETATM   29  C   UNL     1      19.600  50.311  50.078  1.00  0.00     0.096 A 
ENDBRANCH  20  25
ENDBRANCH   2  19
TORSDOF 5
ENDMDL
MODEL 9
REMARK VINA RESULT:      -7.9      2.662      7.326
REMARK  5 active torsions:
REMARK  status: ('A' for Active; 'I' for Inactive)
REMARK    1  A    between atoms: O_2  and  C_3 
REMARK    2  A    between atoms: C_4  and  N_5 
REMARK       I    between atoms: N_5  and  C_6 
REMARK       I    between atoms: C_6  and  N_7 
REMARK    3  A    between atoms: N_7  and  N_8 
REMARK       I    between atoms: N_8  and  C_9 
REMARK    4  A    between atoms: C_9  and  C_10 
REMARK    5  A    between atoms: C_11  and  N_12 
ROOT
HETATM    1  N   UNL     1      26.095  42.295  51.490  1.00  0.00    -0.262 N 
HETATM    2  C   UNL     1      26.185  42.859  50.228  1.00  0.00     0.272 C 
HETATM    3  O   UNL     1      27.208  42.858  49.552  1.00  0.00    -0.266 OA
HETATM    4  H   UNL     1      25.197  42.171  51.952  1.00  0.00     0.190 HD
ENDROOT
BRANCH   1   5
HETATM    5  N   UNL     1      27.111  41.403  51.878  1.00  0.00    -0.249 N 
HETATM    6  C   UNL     1      27.945  41.702  52.934  1.00  0.00     0.339 C 
HETATM    7  N   UNL     1      28.207  43.042  53.063  1.00  0.00    -0.305 N 
HETATM    8  O   UNL     1      28.388  40.798  53.636  1.00  0.00    -0.245 OA
HETATM    9  H   UNL     1      28.087  43.581  52.212  1.00  0.00     0.171 HD
HETATM   10  H   UNL     1      26.912  40.415  51.748  1.00  0.00     0.192 HD
BRANCH   7  11
HETATM   11  C   UNL     1      28.966  43.655  54.079  1.00  0.00     0.069 A 
HETATM   12  C   UNL     1      28.443  44.802  54.698  1.00  0.00     0.095 A 
HETATM   13  C   UNL     1      29.126  45.412  55.756  1.00  0.00     0.039 A 
HETATM   14  C   UNL     1      30.353  44.898  56.176  1.00  0.00     0.003 A 
HETATM   15  C   UNL     1      30.891  43.777  55.546  1.00  0.00     0.002 A 
HETATM   16  C   UNL     1      30.199  43.156  54.503  1.00  0.00     0.032 A 
BRANCH  12  17
HETATM   17  O   UNL     1      27.243  45.288  54.237  1.00  0.00    -0.354 OA
HETATM   18  C   UNL     1      26.920  46.560  54.802  1.00  0.00     0.210 C 
ENDBRANCH  12  17
ENDBRANCH   7  11
ENDBRANCH   1   5
BRANCH   2  19
HETATM   19  C   UNL     1      24.910  43.362  49.641  1.00  0.00     0.060 A 
HETATM   20  C   UNL     1      24.378  44.657  49.783  1.00  0.00     0.054 A 
HETATM   21  C   UNL     1      23.056  44.905  49.360  1.00  0.00     0.031 A 
HETATM   22  C   UNL     1      22.294  43.898  48.764  1.00  0.00     0.002 A 
HETATM   23  C   UNL     1      22.835  42.631  48.581  1.00  0.00     0.001 A 
HETATM   24  C   UNL     1      24.132  42.365  49.018  1.00  0.00     0.019 A 
BRANCH  20  25
HETATM   25  N   UNL     1      25.132  45.757  50.279  1.00  0.00    -0.332 N 
HETATM   26  C   UNL     1      25.155  46.232  51.575  1.00  0.00     0.096 A 
HETATM   27  C   UNL     1      26.007  47.312  51.644  1.00  0.00     0.019 A 
HETATM   28  C   UNL     1      26.546  47.505  50.356  1.00  0.00     0.019 A 
HETATM   29  C   UNL     1      26.015  46.527  49.545  1.00  0.00     0.096 A 
ENDBRANCH  20  25
ENDBRANCH   2  19
TORSDOF 5
ENDMDL
MODEL 10
REMARK VINA RESULT:      -7.9      3.795      5.667
REMARK  5 active torsions:
REMARK  status: ('A' for Active; 'I' for Inactive)
REMARK    1  A    between atoms: O_2  and  C_3 
REMARK    2  A    between atoms: C_4  and  N_5 
REMARK       I    between atoms: N_5  and  C_6 
REMARK       I    between atoms: C_6  and  N_7 
REMARK    3  A    between atoms: N_7  and  N_8 
REMARK       I    between atoms: N_8  and  C_9 
REMARK    4  A    between atoms: C_9  and  C_10 
REMARK    5  A    between atoms: C_11  and  N_12 
ROOT
HETATM    1  N   UNL     1      28.355  41.956  53.746  1.00  0.00    -0.262 N 
HETATM    2  C   UNL     1      29.192  43.047  53.576  1.00  0.00     0.272 C 
HETATM    3  O   UNL     1      30.239  43.011  52.938  1.00  0.00    -0.266 OA
HETATM    4  H   UNL     1      27.423  42.060  54.141  1.00  0.00     0.190 HD
ENDROOT
BRANCH   1   5
HETATM    5  N   UNL     1      28.538  40.856  52.889  1.00  0.00    -0.249 N 
HETATM    6  C   UNL     1      27.881  40.789  51.679  1.00  0.00     0.339 C 
HETATM    7  N   UNL     1      26.638  41.368  51.698  1.00  0.00    -0.305 N 
HETATM    8  O   UNL     1      28.415  40.230  50.726  1.00  0.00    -0.245 OA
HETATM    9  H   UNL     1      26.213  41.430  52.617  1.00  0.00     0.171 HD
HETATM   10  H   UNL     1      29.456  40.420  52.910  1.00  0.00     0.192 HD
BRANCH   7  11
HETATM   11  C   UNL     1      25.763  41.513  50.603  1.00  0.00     0.069 A 
HETATM   12  C   UNL     1      24.897  42.618  50.588  1.00  0.00     0.095 A 
HETATM   13  C   UNL     1      24.054  42.844  49.495  1.00  0.00     0.039 A 
HETATM   14  C   UNL     1      24.047  41.946  48.428  1.00  0.00     0.003 A 
HETATM   15  C   UNL     1      24.884  40.831  48.450  1.00  0.00     0.002 A 
HETATM   16  C   UNL     1      25.741  40.616  49.533  1.00  0.00     0.032 A 
BRANCH  12  17
HETATM   17  O   UNL     1      24.919  43.465  51.670  1.00  0.00    -0.354 OA
HETATM   18  C   UNL     1      24.445  44.773  51.345  1.00  0.00     0.210 C 
ENDBRANCH  12  17
ENDBRANCH   7  11
ENDBRANCH   1   5
BRANCH   2  19
HETATM   19  C   UNL     1      28.687  44.350  54.096  1.00  0.00     0.060 A 
HETATM   20  C   UNL     1      29.001  44.931  55.338  1.00  0.00     0.054 A 
HETATM   21  C   UNL     1      28.265  46.051  55.776  1.00  0.00     0.031 A 
HETATM   22  C   UNL     1      27.267  46.611  54.975  1.00  0.00     0.002 A 
HETATM   23  C   UNL     1      26.989  46.065  53.728  1.00  0.00     0.001 A 
HETATM   24  C   UNL     1      27.691  44.942  53.293  1.00  0.00     0.019 A 
BRANCH  20  25
HETATM   25  N   UNL     1      30.075  44.484  56.157  1.00  0.00    -0.332 N 
HETATM   26  C   UNL     1      30.875  43.379  55.949  1.00  0.00     0.096 A 
HETATM   27  C   UNL     1      31.795  43.290  56.971  1.00  0.00     0.019 A 
HETATM   28  C   UNL     1      31.575  44.383  57.831  1.00  0.00     0.019 A 
HETATM   29  C   UNL     1      30.535  45.113  57.300  1.00  0.00     0.096 A 
ENDBRANCH  20  25
ENDBRANCH   2  19
TORSDOF 5
ENDMDL
