MODEL 1
REMARK VINA RESULT:     -10.3      0.000      0.000
REMARK  8 active torsions:
REMARK  status: ('A' for Active; 'I' for Inactive)
REMARK    1  A    between atoms: C_2  and  C_3 
REMARK    2  A    between atoms: C_6  and  C_7 
REMARK    3  A    between atoms: C_8  and  C_9 
REMARK       I    between atoms: C_9  and  N_10 
REMARK    4  A    between atoms: N_10  and  C_11 
REMARK    5  A    between atoms: C_11  and  N_12 
REMARK    6  A    between atoms: N_12  and  C_13 
REMARK    7  A    between atoms: C_16  and  N_17 
REMARK       I    between atoms: N_20  and  C_21 
REMARK    8  A    between atoms: C_21  and  C_22 
ROOT
HETATM    1  C   UNL     1      22.914  48.677  49.213  1.00  0.00     0.034 A 
HETATM    2  C   UNL     1      22.358  49.896  49.581  1.00  0.00     0.032 A 
HETATM    3  C   UNL     1      20.966  50.073  49.556  1.00  0.00     0.031 A 
HETATM    4  C   UNL     1      20.082  49.051  49.170  1.00  0.00     0.030 A 
HETATM    5  C   UNL     1      20.681  47.866  48.716  1.00  0.00     0.031 A 
HETATM    6  C   UNL     1      22.070  47.679  48.733  1.00  0.00     0.032 A 
ENDROOT
BRANCH   1   7
HETATM    7  N   UNL     1      24.295  48.395  49.245  1.00  0.00    -0.333 N 
HETATM    8  H   UNL     1      24.887  49.192  49.030  1.00  0.00     0.168 HD
BRANCH   7   9
HETATM    9  C   UNL     1      24.963  47.373  49.824  1.00  0.00     0.179 C 
HETATM   10  S   UNL     1      26.635  47.376  49.763  1.00  0.00    -0.040 SA
BRANCH   9  11
HETATM   11  N   UNL     1      24.336  46.308  50.415  1.00  0.00    -0.300 N 
HETATM   12  C   UNL     1      24.632  45.358  51.379  1.00  0.00     0.247 C 
HETATM   13  O   UNL     1      23.922  44.359  51.481  1.00  0.00    -0.268 OA
HETATM   14  H   UNL     1      23.392  46.176  50.076  1.00  0.00     0.171 HD
BRANCH  12  15
HETATM   15  C   UNL     1      25.779  45.601  52.286  1.00  0.00     0.075 C 
HETATM   16  C   UNL     1      26.420  44.544  52.811  1.00  0.00     0.017 C 
BRANCH  16  17
HETATM   17  C   UNL     1      27.588  44.596  53.702  1.00  0.00    -0.036 A 
HETATM   18  C   UNL     1      27.684  45.658  54.610  1.00  0.00     0.012 A 
HETATM   19  C   UNL     1      28.740  45.733  55.526  1.00  0.00     0.008 A 
HETATM   20  C   UNL     1      29.734  44.749  55.554  1.00  0.00    -0.055 A 
HETATM   21  C   UNL     1      29.629  43.677  54.657  1.00  0.00     0.008 A 
HETATM   22  C   UNL     1      28.569  43.600  53.744  1.00  0.00     0.012 A 
BRANCH  20  23
HETATM   23  C   UNL     1      30.880  44.785  56.551  1.00  0.00     0.010 C 
HETATM   24  C   UNL     1      31.429  43.377  56.785  1.00  0.00     0.015 C 
HETATM   25  C   UNL     1      30.510  45.445  57.884  1.00  0.00     0.015 C 
ENDBRANCH  20  23
ENDBRANCH  16  17
ENDBRANCH  12  15
ENDBRANCH   9  11
ENDBRANCH   7   9
ENDBRANCH   1   7
BRANCH   4  26
HETATM   26  N   UNL     1      18.698  49.256  49.188  1.00  0.00    -0.378 N 
HETATM   27  C   UNL     1      18.086  50.136  50.219  1.00  0.00     0.143 C 
HETATM   28  C   UNL     1      18.109  51.606  49.757  1.00  0.00     0.146 C 
HETATM   29  N   UNL     1      17.418  51.737  48.466  1.00  0.00    -0.343 N 
HETATM   30  C   UNL     1      16.269  52.479  48.195  1.00  0.00     0.277 C 
HETATM   31  C   UNL     1      17.994  50.887  47.417  1.00  0.00     0.146 C 
HETATM   32  O   UNL     1      15.875  52.605  47.033  1.00  0.00    -0.265 OA
HETATM   33  C   UNL     1      18.016  49.407  47.867  1.00  0.00     0.143 C 
BRANCH  30  34
HETATM   34  C   UNL     1      15.548  53.119  49.282  1.00  0.00     0.142 A 
HETATM   35  O   UNL     1      15.838  54.401  49.672  1.00  0.00    -0.317 OA
HETATM   36  C   UNL     1      15.039  54.697  50.730  1.00  0.00     0.143 A 
HETATM   37  C   UNL     1      14.254  53.618  51.057  1.00  0.00     0.027 A 
HETATM   38  C   UNL     1      14.596  52.594  50.141  1.00  0.00     0.045 A 
ENDBRANCH  30  34
ENDBRANCH   4  26
TORSDOF 8
ENDMDL
MODEL 2
REMARK VINA RESULT:     -10.2      2.235      3.268
REMARK  8 active torsions:
REMARK  status: ('A' for Active; 'I' for Inactive)
REMARK    1  A    between atoms: C_2  and  C_3 
REMARK    2  A    between atoms: C_6  and  C_7 
REMARK    3  A    between atoms: C_8  and  C_9 
REMARK       I    between atoms: C_9  and  N_10 
REMARK    4  A    between atoms: N_10  and  C_11 
REMARK    5  A    between atoms: C_11  and  N_12 
REMARK    6  A    between atoms: N_12  and  C_13 
REMARK    7  A    between atoms: C_16  and  N_17 
REMARK       I    between atoms: N_20  and  C_21 
REMARK    8  A    between atoms: C_21  and  C_22 
ROOT
HETATM    1  C   UNL     1      23.947  46.268  49.708  1.00  0.00     0.034 A 
HETATM    2  C   UNL     1      24.349  47.548  50.068  1.00  0.00     0.032 A 
HETATM    3  C   UNL     1      23.698  48.669  49.533  1.00  0.00     0.031 A 
HETATM    4  C   UNL     1      22.628  48.561  48.627  1.00  0.00     0.030 A 
HETATM    5  C   UNL     1      22.309  47.259  48.215  1.00  0.00     0.031 A 
HETATM    6  C   UNL     1      22.956  46.131  48.740  1.00  0.00     0.032 A 
ENDROOT
BRANCH   1   7
HETATM    7  N   UNL     1      24.514  45.085  50.223  1.00  0.00    -0.333 N 
HETATM    8  H   UNL     1      24.880  45.177  51.167  1.00  0.00     0.168 HD
BRANCH   7   9
HETATM    9  C   UNL     1      24.359  43.801  49.832  1.00  0.00     0.179 C 
HETATM   10  S   UNL     1      22.855  43.089  50.009  1.00  0.00    -0.040 SA
BRANCH   9  11
HETATM   11  N   UNL     1      25.385  43.038  49.343  1.00  0.00    -0.300 N 
HETATM   12  C   UNL     1      26.752  42.924  49.534  1.00  0.00     0.247 C 
HETATM   13  O   UNL     1      27.428  42.301  48.718  1.00  0.00    -0.268 OA
HETATM   14  H   UNL     1      25.072  42.354  48.665  1.00  0.00     0.171 HD
BRANCH  12  15
HETATM   15  C   UNL     1      27.351  43.528  50.749  1.00  0.00     0.075 C 
HETATM   16  C   UNL     1      28.013  42.732  51.604  1.00  0.00     0.017 C 
BRANCH  16  17
HETATM   17  C   UNL     1      28.690  43.161  52.837  1.00  0.00    -0.036 A 
HETATM   18  C   UNL     1      29.914  42.565  53.164  1.00  0.00     0.012 A 
HETATM   19  C   UNL     1      30.637  42.971  54.291  1.00  0.00     0.008 A 
HETATM   20  C   UNL     1      30.152  43.982  55.128  1.00  0.00    -0.055 A 
HETATM   21  C   UNL     1      28.934  44.590  54.792  1.00  0.00     0.008 A 
HETATM   22  C   UNL     1      28.214  44.187  53.659  1.00  0.00     0.012 A 
BRANCH  20  23
HETATM   23  C   UNL     1      30.922  44.464  56.346  1.00  0.00     0.010 C 
HETATM   24  C   UNL     1      31.384  43.275  57.190  1.00  0.00     0.015 C 
HETATM   25  C   UNL     1      30.141  45.463  57.206  1.00  0.00     0.015 C 
ENDBRANCH  20  23
ENDBRANCH  16  17
ENDBRANCH  12  15
ENDBRANCH   9  11
ENDBRANCH   7   9
ENDBRANCH   1   7
BRANCH   4  26
HETATM   26  N   UNL     1      21.983  49.702  48.139  1.00  0.00    -0.378 N 
HETATM   27  C   UNL     1      20.772  49.570  47.287  1.00  0.00     0.143 C 
HETATM   28  C   UNL     1      19.506  49.457  48.159  1.00  0.00     0.146 C 
HETATM   29  N   UNL     1      19.406  50.621  49.050  1.00  0.00    -0.343 N 
HETATM   30  C   UNL     1      18.396  51.582  49.074  1.00  0.00     0.277 C 
HETATM   31  C   UNL     1      20.582  50.787  49.915  1.00  0.00     0.146 C 
HETATM   32  O   UNL     1      18.373  52.432  49.967  1.00  0.00    -0.265 OA
HETATM   33  C   UNL     1      21.872  50.869  49.066  1.00  0.00     0.143 C 
BRANCH  30  34
HETATM   34  C   UNL     1      17.360  51.568  48.054  1.00  0.00     0.142 A 
HETATM   35  O   UNL     1      17.621  51.970  46.769  1.00  0.00    -0.317 OA
HETATM   36  C   UNL     1      16.457  51.891  46.074  1.00  0.00     0.143 A 
HETATM   37  C   UNL     1      15.434  51.474  46.891  1.00  0.00     0.027 A 
HETATM   38  C   UNL     1      16.009  51.288  48.171  1.00  0.00     0.045 A 
ENDBRANCH  30  34
ENDBRANCH   4  26
TORSDOF 8
ENDMDL
MODEL 3
REMARK VINA RESULT:     -10.2      1.830      2.360
REMARK  8 active torsions:
REMARK  status: ('A' for Active; 'I' for Inactive)
REMARK    1  A    between atoms: C_2  and  C_3 
REMARK    2  A    between atoms: C_6  and  C_7 
REMARK    3  A    between atoms: C_8  and  C_9 
REMARK       I    between atoms: C_9  and  N_10 
REMARK    4  A    between atoms: N_10  and  C_11 
REMARK    5  A    between atoms: C_11  and  N_12 
REMARK    6  A    between atoms: N_12  and  C_13 
REMARK    7  A    between atoms: C_16  and  N_17 
REMARK       I    between atoms: N_20  and  C_21 
REMARK    8  A    between atoms: C_21  and  C_22 
ROOT
HETATM    1  C   UNL     1      23.087  46.255  48.856  1.00  0.00     0.034 A 
HETATM    2  C   UNL     1      22.778  47.609  48.910  1.00  0.00     0.032 A 
HETATM    3  C   UNL     1      21.450  48.035  48.758  1.00  0.00     0.031 A 
HETATM    4  C   UNL     1      20.388  47.139  48.551  1.00  0.00     0.030 A 
HETATM    5  C   UNL     1      20.747  45.790  48.410  1.00  0.00     0.031 A 
HETATM    6  C   UNL     1      22.071  45.352  48.556  1.00  0.00     0.032 A 
ENDROOT
BRANCH   1   7
HETATM    7  N   UNL     1      24.384  45.731  49.037  1.00  0.00    -0.333 N 
HETATM    8  H   UNL     1      25.124  46.316  48.662  1.00  0.00     0.168 HD
BRANCH   7   9
HETATM    9  C   UNL     1      24.830  44.786  49.894  1.00  0.00     0.179 C 
HETATM   10  S   UNL     1      24.501  44.969  51.525  1.00  0.00    -0.040 SA
BRANCH   9  11
HETATM   11  N   UNL     1      25.582  43.713  49.500  1.00  0.00    -0.300 N 
HETATM   12  C   UNL     1      26.869  43.241  49.699  1.00  0.00     0.247 C 
HETATM   13  O   UNL     1      27.312  42.360  48.962  1.00  0.00    -0.268 OA
HETATM   14  H   UNL     1      25.064  43.071  48.912  1.00  0.00     0.171 HD
BRANCH  12  15
HETATM   15  C   UNL     1      27.659  43.789  50.827  1.00  0.00     0.075 C 
HETATM   16  C   UNL     1      27.794  43.047  51.938  1.00  0.00     0.017 C 
BRANCH  16  17
HETATM   17  C   UNL     1      28.561  43.417  53.138  1.00  0.00    -0.036 A 
HETATM   18  C   UNL     1      29.738  42.713  53.417  1.00  0.00     0.012 A 
HETATM   19  C   UNL     1      30.544  43.055  54.508  1.00  0.00     0.008 A 
HETATM   20  C   UNL     1      30.191  44.110  55.356  1.00  0.00    -0.055 A 
HETATM   21  C   UNL     1      29.021  44.828  55.067  1.00  0.00     0.008 A 
HETATM   22  C   UNL     1      28.218  44.487  53.970  1.00  0.00     0.012 A 
BRANCH  20  23
HETATM   23  C   UNL     1      31.054  44.526  56.535  1.00  0.00     0.010 C 
HETATM   24  C   UNL     1      31.651  43.294  57.219  1.00  0.00     0.015 C 
HETATM   25  C   UNL     1      30.317  45.401  57.554  1.00  0.00     0.015 C 
ENDBRANCH  20  23
ENDBRANCH  16  17
ENDBRANCH  12  15
ENDBRANCH   9  11
ENDBRANCH   7   9
ENDBRANCH   1   7
BRANCH   4  26
HETATM   26  N   UNL     1      19.072  47.601  48.435  1.00  0.00    -0.378 N 
HETATM   27  C   UNL     1      18.485  48.461  49.498  1.00  0.00     0.143 C 
HETATM   28  C   UNL     1      18.829  49.942  49.245  1.00  0.00     0.146 C 
HETATM   29  N   UNL     1      18.359  50.345  47.912  1.00  0.00    -0.343 N 
HETATM   30  C   UNL     1      17.407  51.318  47.611  1.00  0.00     0.277 C 
HETATM   31  C   UNL     1      18.919  49.523  46.831  1.00  0.00     0.146 C 
HETATM   32  O   UNL     1      17.207  51.646  46.439  1.00  0.00    -0.265 OA
HETATM   33  C   UNL     1      18.618  48.026  47.077  1.00  0.00     0.143 C 
BRANCH  30  34
HETATM   34  C   UNL     1      16.664  51.959  48.684  1.00  0.00     0.142 A 
HETATM   35  O   UNL     1      15.366  51.611  48.958  1.00  0.00    -0.317 OA
HETATM   36  C   UNL     1      14.934  52.410  49.968  1.00  0.00     0.143 A 
HETATM   37  C   UNL     1      15.918  53.295  50.337  1.00  0.00     0.027 A 
HETATM   38  C   UNL     1      17.024  53.021  49.496  1.00  0.00     0.045 A 
ENDBRANCH  30  34
ENDBRANCH   4  26
TORSDOF 8
ENDMDL
MODEL 4
REMARK VINA RESULT:      -9.8      4.573      6.803
REMARK  8 active torsions:
REMARK  status: ('A' for Active; 'I' for Inactive)
REMARK    1  A    between atoms: C_2  and  C_3 
REMARK    2  A    between atoms: C_6  and  C_7 
REMARK    3  A    between atoms: C_8  and  C_9 
REMARK       I    between atoms: C_9  and  N_10 
REMARK    4  A    between atoms: N_10  and  C_11 
REMARK    5  A    between atoms: C_11  and  N_12 
REMARK    6  A    between atoms: N_12  and  C_13 
REMARK    7  A    between atoms: C_16  and  N_17 
REMARK       I    between atoms: N_20  and  C_21 
REMARK    8  A    between atoms: C_21  and  C_22 
ROOT
HETATM    1  C   UNL     1      25.367  40.871  49.340  1.00  0.00     0.034 A 
HETATM    2  C   UNL     1      25.563  41.710  50.430  1.00  0.00     0.032 A 
HETATM    3  C   UNL     1      24.738  42.830  50.615  1.00  0.00     0.031 A 
HETATM    4  C   UNL     1      23.694  43.154  49.731  1.00  0.00     0.030 A 
HETATM    5  C   UNL     1      23.584  42.339  48.595  1.00  0.00     0.031 A 
HETATM    6  C   UNL     1      24.404  41.219  48.397  1.00  0.00     0.032 A 
ENDROOT
BRANCH   1   7
HETATM    7  N   UNL     1      26.118  39.703  49.095  1.00  0.00    -0.333 N 
HETATM    8  H   UNL     1      25.595  38.960  48.643  1.00  0.00     0.168 HD
BRANCH   7   9
HETATM    9  C   UNL     1      27.456  39.522  49.046  1.00  0.00     0.179 C 
HETATM   10  S   UNL     1      28.276  40.002  47.668  1.00  0.00    -0.040 SA
BRANCH   9  11
HETATM   11  N   UNL     1      28.168  38.920  50.048  1.00  0.00    -0.300 N 
HETATM   12  C   UNL     1      28.941  39.313  51.128  1.00  0.00     0.247 C 
HETATM   13  O   UNL     1      29.671  38.492  51.681  1.00  0.00    -0.268 OA
HETATM   14  H   UNL     1      28.112  37.910  50.011  1.00  0.00     0.171 HD
BRANCH  12  15
HETATM   15  C   UNL     1      28.829  40.711  51.609  1.00  0.00     0.075 C 
HETATM   16  C   UNL     1      28.692  40.929  52.927  1.00  0.00     0.017 C 
BRANCH  16  17
HETATM   17  C   UNL     1      28.596  42.243  53.580  1.00  0.00    -0.036 A 
HETATM   18  C   UNL     1      29.715  42.725  54.271  1.00  0.00     0.012 A 
HETATM   19  C   UNL     1      29.708  43.993  54.863  1.00  0.00     0.008 A 
HETATM   20  C   UNL     1      28.577  44.813  54.786  1.00  0.00    -0.055 A 
HETATM   21  C   UNL     1      27.463  44.338  54.080  1.00  0.00     0.008 A 
HETATM   22  C   UNL     1      27.473  43.071  53.483  1.00  0.00     0.012 A 
BRANCH  20  23
HETATM   23  C   UNL     1      28.544  46.204  55.396  1.00  0.00     0.010 C 
HETATM   24  C   UNL     1      28.713  46.126  56.914  1.00  0.00     0.015 C 
HETATM   25  C   UNL     1      27.283  46.998  55.036  1.00  0.00     0.015 C 
ENDBRANCH  20  23
ENDBRANCH  16  17
ENDBRANCH  12  15
ENDBRANCH   9  11
ENDBRANCH   7   9
ENDBRANCH   1   7
BRANCH   4  26
HETATM   26  N   UNL     1      22.873  44.262  49.967  1.00  0.00    -0.378 N 
HETATM   27  C   UNL     1      23.475  45.588  50.268  1.00  0.00     0.143 C 
HETATM   28  C   UNL     1      23.800  46.342  48.964  1.00  0.00     0.146 C 
HETATM   29  N   UNL     1      22.585  46.481  48.148  1.00  0.00    -0.343 N 
HETATM   30  C   UNL     1      21.957  47.664  47.764  1.00  0.00     0.277 C 
HETATM   31  C   UNL     1      21.960  45.192  47.824  1.00  0.00     0.146 C 
HETATM   32  O   UNL     1      21.017  47.634  46.965  1.00  0.00    -0.265 OA
HETATM   33  C   UNL     1      21.654  44.397  49.115  1.00  0.00     0.143 C 
BRANCH  30  34
HETATM   34  C   UNL     1      22.424  48.936  48.291  1.00  0.00     0.142 A 
HETATM   35  O   UNL     1      21.909  49.458  49.450  1.00  0.00    -0.317 OA
HETATM   36  C   UNL     1      22.504  50.662  49.653  1.00  0.00     0.143 A 
HETATM   37  C   UNL     1      23.374  50.949  48.630  1.00  0.00     0.027 A 
HETATM   38  C   UNL     1      23.307  49.850  47.741  1.00  0.00     0.045 A 
ENDBRANCH  30  34
ENDBRANCH   4  26
TORSDOF 8
ENDMDL
MODEL 5
REMARK VINA RESULT:      -9.7      2.382      3.032
REMARK  8 active torsions:
REMARK  status: ('A' for Active; 'I' for Inactive)
REMARK    1  A    between atoms: C_2  and  C_3 
REMARK    2  A    between atoms: C_6  and  C_7 
REMARK    3  A    between atoms: C_8  and  C_9 
REMARK       I    between atoms: C_9  and  N_10 
REMARK    4  A    between atoms: N_10  and  C_11 
REMARK    5  A    between atoms: C_11  and  N_12 
REMARK    6  A    between atoms: N_12  and  C_13 
REMARK    7  A    between atoms: C_16  and  N_17 
REMARK       I    between atoms: N_20  and  C_21 
REMARK    8  A    between atoms: C_21  and  C_22 
ROOT
HETATM    1  C   UNL     1      23.826  48.719  49.190  1.00  0.00     0.034 A 
HETATM    2  C   UNL     1      23.560  50.079  49.292  1.00  0.00     0.032 A 
HETATM    3  C   UNL     1      22.240  50.548  49.201  1.00  0.00     0.031 A 
HETATM    4  C   UNL     1      21.145  49.689  49.008  1.00  0.00     0.030 A 
HETATM    5  C   UNL     1      21.459  48.335  48.817  1.00  0.00     0.031 A 
HETATM    6  C   UNL     1      22.773  47.855  48.902  1.00  0.00     0.032 A 
ENDROOT
BRANCH   1   7
HETATM    7  N   UNL     1      25.112  48.153  49.309  1.00  0.00    -0.333 N 
HETATM    8  H   UNL     1      25.868  48.831  49.280  1.00  0.00     0.168 HD
BRANCH   7   9
HETATM    9  C   UNL     1      25.493  46.946  49.782  1.00  0.00     0.179 C 
HETATM   10  S   UNL     1      27.100  46.503  49.638  1.00  0.00    -0.040 SA
BRANCH   9  11
HETATM   11  N   UNL     1      24.618  46.046  50.330  1.00  0.00    -0.300 N 
HETATM   12  C   UNL     1      24.577  45.202  51.427  1.00  0.00     0.247 C 
HETATM   13  O   UNL     1      23.729  44.313  51.476  1.00  0.00    -0.268 OA
HETATM   14  H   UNL     1      23.753  45.979  49.808  1.00  0.00     0.171 HD
BRANCH  12  15
HETATM   15  C   UNL     1      25.538  45.430  52.533  1.00  0.00     0.075 C 
HETATM   16  C   UNL     1      26.519  44.533  52.728  1.00  0.00     0.017 C 
BRANCH  16  17
HETATM   17  C   UNL     1      27.571  44.610  53.752  1.00  0.00    -0.036 A 
HETATM   18  C   UNL     1      28.462  43.537  53.871  1.00  0.00     0.012 A 
HETATM   19  C   UNL     1      29.522  43.575  54.785  1.00  0.00     0.008 A 
HETATM   20  C   UNL     1      29.716  44.688  55.610  1.00  0.00    -0.055 A 
HETATM   21  C   UNL     1      28.834  45.771  55.478  1.00  0.00     0.008 A 
HETATM   22  C   UNL     1      27.777  45.733  54.559  1.00  0.00     0.012 A 
BRANCH  20  23
HETATM   23  C   UNL     1      30.870  44.774  56.595  1.00  0.00     0.010 C 
HETATM   24  C   UNL     1      31.517  43.400  56.779  1.00  0.00     0.015 C 
HETATM   25  C   UNL     1      30.473  45.367  57.951  1.00  0.00     0.015 C 
ENDBRANCH  20  23
ENDBRANCH  16  17
ENDBRANCH  12  15
ENDBRANCH   9  11
ENDBRANCH   7   9
ENDBRANCH   1   7
BRANCH   4  26
HETATM   26  N   UNL     1      19.840  50.191  48.954  1.00  0.00    -0.378 N 
HETATM   27  C   UNL     1      19.231  50.551  47.645  1.00  0.00     0.143 C 
HETATM   28  C   UNL     1      18.582  49.315  46.993  1.00  0.00     0.146 C 
HETATM   29  N   UNL     1      17.585  48.734  47.904  1.00  0.00    -0.343 N 
HETATM   30  C   UNL     1      16.214  48.607  47.684  1.00  0.00     0.277 C 
HETATM   31  C   UNL     1      18.146  48.359  49.208  1.00  0.00     0.146 C 
HETATM   32  O   UNL     1      15.516  47.977  48.482  1.00  0.00    -0.265 OA
HETATM   33  C   UNL     1      18.836  49.575  49.871  1.00  0.00     0.143 C 
BRANCH  30  34
HETATM   34  C   UNL     1      15.612  49.204  46.503  1.00  0.00     0.142 A 
HETATM   35  O   UNL     1      15.466  48.492  45.341  1.00  0.00    -0.317 OA
HETATM   36  C   UNL     1      14.924  49.326  44.417  1.00  0.00     0.143 A 
HETATM   37  C   UNL     1      14.743  50.580  44.947  1.00  0.00     0.027 A 
HETATM   38  C   UNL     1      15.206  50.510  46.282  1.00  0.00     0.045 A 
ENDBRANCH  30  34
ENDBRANCH   4  26
TORSDOF 8
ENDMDL
MODEL 6
REMARK VINA RESULT:      -9.6     12.777     16.377
REMARK  8 active torsions:
REMARK  status: ('A' for Active; 'I' for Inactive)
REMARK    1  A    between atoms: C_2  and  C_3 
REMARK    2  A    between atoms: C_6  and  C_7 
REMARK    3  A    between atoms: C_8  and  C_9 
REMARK       I    between atoms: C_9  and  N_10 
REMARK    4  A    between atoms: N_10  and  C_11 
REMARK    5  A    between atoms: C_11  and  N_12 
REMARK    6  A    between atoms: N_12  and  C_13 
REMARK    7  A    between atoms: C_16  and  N_17 
REMARK       I    between atoms: N_20  and  C_21 
REMARK    8  A    between atoms: C_21  and  C_22 
ROOT
HETATM    1  C   UNL     1      34.612  51.244  42.472  1.00  0.00     0.034 A 
HETATM    2  C   UNL     1      33.325  51.398  42.971  1.00  0.00     0.032 A 
HETATM    3  C   UNL     1      32.361  50.402  42.751  1.00  0.00     0.031 A 
HETATM    4  C   UNL     1      32.639  49.225  42.036  1.00  0.00     0.030 A 
HETATM    5  C   UNL     1      33.919  49.146  41.469  1.00  0.00     0.031 A 
HETATM    6  C   UNL     1      34.890  50.136  41.677  1.00  0.00     0.032 A 
ENDROOT
BRANCH   1   7
HETATM    7  N   UNL     1      35.656  52.170  42.675  1.00  0.00    -0.333 N 
HETATM    8  H   UNL     1      35.527  52.770  43.485  1.00  0.00     0.168 HD
BRANCH   7   9
HETATM    9  C   UNL     1      36.921  52.176  42.201  1.00  0.00     0.179 C 
HETATM   10  S   UNL     1      38.154  51.664  43.211  1.00  0.00    -0.040 SA
BRANCH   9  11
HETATM   11  N   UNL     1      37.251  52.627  40.951  1.00  0.00    -0.300 N 
HETATM   12  C   UNL     1      36.589  52.978  39.787  1.00  0.00     0.247 C 
HETATM   13  O   UNL     1      37.224  53.089  38.739  1.00  0.00    -0.268 OA
HETATM   14  H   UNL     1      38.248  52.760  40.837  1.00  0.00     0.171 HD
BRANCH  12  15
HETATM   15  C   UNL     1      35.133  53.249  39.852  1.00  0.00     0.075 C 
HETATM   16  C   UNL     1      34.286  52.348  39.327  1.00  0.00     0.017 C 
BRANCH  16  17
HETATM   17  C   UNL     1      32.818  52.438  39.328  1.00  0.00    -0.036 A 
HETATM   18  C   UNL     1      32.105  51.649  38.417  1.00  0.00     0.012 A 
HETATM   19  C   UNL     1      30.705  51.643  38.408  1.00  0.00     0.008 A 
HETATM   20  C   UNL     1      29.980  52.434  39.306  1.00  0.00    -0.055 A 
HETATM   21  C   UNL     1      30.694  53.211  40.229  1.00  0.00     0.008 A 
HETATM   22  C   UNL     1      32.096  53.211  40.242  1.00  0.00     0.012 A 
BRANCH  20  23
HETATM   23  C   UNL     1      28.461  52.433  39.340  1.00  0.00     0.010 C 
HETATM   24  C   UNL     1      27.960  52.266  40.776  1.00  0.00     0.015 C 
HETATM   25  C   UNL     1      27.830  51.379  38.425  1.00  0.00     0.015 C 
ENDBRANCH  20  23
ENDBRANCH  16  17
ENDBRANCH  12  15
ENDBRANCH   9  11
ENDBRANCH   7   9
ENDBRANCH   1   7
BRANCH   4  26
HETATM   26  N   UNL     1      31.659  48.241  41.865  1.00  0.00    -0.378 N 
HETATM   27  C   UNL     1      30.238  48.536  42.192  1.00  0.00     0.143 C 
HETATM   28  C   UNL     1      29.530  49.185  40.987  1.00  0.00     0.146 C 
HETATM   29  N   UNL     1      29.636  48.308  39.812  1.00  0.00    -0.343 N 
HETATM   30  C   UNL     1      28.593  47.703  39.112  1.00  0.00     0.277 C 
HETATM   31  C   UNL     1      31.025  47.995  39.451  1.00  0.00     0.146 C 
HETATM   32  O   UNL     1      28.821  47.099  38.062  1.00  0.00    -0.265 OA
HETATM   33  C   UNL     1      31.771  47.373  40.655  1.00  0.00     0.143 C 
BRANCH  30  34
HETATM   34  C   UNL     1      27.232  47.803  39.615  1.00  0.00     0.142 A 
HETATM   35  O   UNL     1      26.810  47.051  40.681  1.00  0.00    -0.317 OA
HETATM   36  C   UNL     1      25.495  47.326  40.878  1.00  0.00     0.143 A 
HETATM   37  C   UNL     1      25.043  48.221  39.939  1.00  0.00     0.027 A 
HETATM   38  C   UNL     1      26.154  48.511  39.111  1.00  0.00     0.045 A 
ENDBRANCH  30  34
ENDBRANCH   4  26
TORSDOF 8
ENDMDL
MODEL 7
REMARK VINA RESULT:      -9.6      5.789     12.045
REMARK  8 active torsions:
REMARK  status: ('A' for Active; 'I' for Inactive)
REMARK    1  A    between atoms: C_2  and  C_3 
REMARK    2  A    between atoms: C_6  and  C_7 
REMARK    3  A    between atoms: C_8  and  C_9 
REMARK       I    between atoms: C_9  and  N_10 
REMARK    4  A    between atoms: N_10  and  C_11 
REMARK    5  A    between atoms: C_11  and  N_12 
REMARK    6  A    between atoms: N_12  and  C_13 
REMARK    7  A    between atoms: C_16  and  N_17 
REMARK       I    between atoms: N_20  and  C_21 
REMARK    8  A    between atoms: C_21  and  C_22 
ROOT
HETATM    1  C   UNL     1      26.704  42.019  49.107  1.00  0.00     0.034 A 
HETATM    2  C   UNL     1      27.199  41.099  50.023  1.00  0.00     0.032 A 
HETATM    3  C   UNL     1      27.271  41.430  51.385  1.00  0.00     0.031 A 
HETATM    4  C   UNL     1      26.854  42.676  51.883  1.00  0.00     0.030 A 
HETATM    5  C   UNL     1      26.447  43.611  50.920  1.00  0.00     0.031 A 
HETATM    6  C   UNL     1      26.374  43.294  49.556  1.00  0.00     0.032 A 
ENDROOT
BRANCH   1   7
HETATM    7  N   UNL     1      26.557  41.762  47.729  1.00  0.00    -0.333 N 
HETATM    8  H   UNL     1      27.431  41.760  47.211  1.00  0.00     0.168 HD
BRANCH   7   9
HETATM    9  C   UNL     1      25.533  41.197  47.051  1.00  0.00     0.179 C 
HETATM   10  S   UNL     1      25.791  40.718  45.469  1.00  0.00    -0.040 SA
BRANCH   9  11
HETATM   11  N   UNL     1      24.279  41.044  47.580  1.00  0.00    -0.300 N 
HETATM   12  C   UNL     1      23.313  41.848  48.160  1.00  0.00     0.247 C 
HETATM   13  O   UNL     1      22.386  41.329  48.781  1.00  0.00    -0.268 OA
HETATM   14  H   UNL     1      23.949  40.089  47.525  1.00  0.00     0.171 HD
BRANCH  12  15
HETATM   15  C   UNL     1      23.407  43.316  47.976  1.00  0.00     0.075 C 
HETATM   16  C   UNL     1      22.804  44.117  48.870  1.00  0.00     0.017 C 
BRANCH  16  17
HETATM   17  C   UNL     1      22.817  45.587  48.861  1.00  0.00    -0.036 A 
HETATM   18  C   UNL     1      23.897  46.246  49.461  1.00  0.00     0.012 A 
HETATM   19  C   UNL     1      23.998  47.641  49.433  1.00  0.00     0.008 A 
HETATM   20  C   UNL     1      23.017  48.418  48.809  1.00  0.00    -0.055 A 
HETATM   21  C   UNL     1      21.943  47.759  48.194  1.00  0.00     0.008 A 
HETATM   22  C   UNL     1      21.846  46.361  48.217  1.00  0.00     0.012 A 
BRANCH  20  23
HETATM   23  C   UNL     1      23.108  49.934  48.739  1.00  0.00     0.010 C 
HETATM   24  C   UNL     1      21.891  50.508  48.010  1.00  0.00     0.015 C 
HETATM   25  C   UNL     1      24.405  50.438  48.098  1.00  0.00     0.015 C 
ENDBRANCH  20  23
ENDBRANCH  16  17
ENDBRANCH  12  15
ENDBRANCH   9  11
ENDBRANCH   7   9
ENDBRANCH   1   7
BRANCH   4  26
HETATM   26  N   UNL     1      26.911  42.957  53.252  1.00  0.00    -0.378 N 
HETATM   27  C   UNL     1      28.079  42.511  54.059  1.00  0.00     0.143 C 
HETATM   28  C   UNL     1      29.214  43.552  53.988  1.00  0.00     0.146 C 
HETATM   29  N   UNL     1      28.722  44.861  54.441  1.00  0.00    -0.343 N 
HETATM   30  C   UNL     1      29.165  45.595  55.540  1.00  0.00     0.277 C 
HETATM   31  C   UNL     1      27.570  45.342  53.667  1.00  0.00     0.146 C 
HETATM   32  O   UNL     1      28.752  46.743  55.724  1.00  0.00    -0.265 OA
HETATM   33  C   UNL     1      26.427  44.300  53.692  1.00  0.00     0.143 C 
BRANCH  30  34
HETATM   34  C   UNL     1      30.130  45.012  56.458  1.00  0.00     0.142 A 
HETATM   35  O   UNL     1      30.348  45.553  57.699  1.00  0.00    -0.317 OA
HETATM   36  C   UNL     1      31.328  44.825  58.294  1.00  0.00     0.143 A 
HETATM   37  C   UNL     1      31.776  43.838  57.450  1.00  0.00     0.027 A 
HETATM   38  C   UNL     1      31.022  43.972  56.260  1.00  0.00     0.045 A 
ENDBRANCH  30  34
ENDBRANCH   4  26
TORSDOF 8
ENDMDL
MODEL 8
REMARK VINA RESULT:      -9.5      2.056      2.576
REMARK  8 active torsions:
REMARK  status: ('A' for Active; 'I' for Inactive)
REMARK    1  A    between atoms: C_2  and  C_3 
REMARK    2  A    between atoms: C_6  and  C_7 
REMARK    3  A    between atoms: C_8  and  C_9 
REMARK       I    between atoms: C_9  and  N_10 
REMARK    4  A    between atoms: N_10  and  C_11 
REMARK    5  A    between atoms: C_11  and  N_12 
REMARK    6  A    between atoms: N_12  and  C_13 
REMARK    7  A    between atoms: C_16  and  N_17 
REMARK       I    between atoms: N_20  and  C_21 
REMARK    8  A    between atoms: C_21  and  C_22 
ROOT
HETATM    1  C   UNL     1      22.666  48.655  49.150  1.00  0.00     0.034 A 
HETATM    2  C   UNL     1      22.042  47.680  48.382  1.00  0.00     0.032 A 
HETATM    3  C   UNL     1      20.702  47.836  47.997  1.00  0.00     0.031 A 
HETATM    4  C   UNL     1      19.938  48.960  48.357  1.00  0.00     0.030 A 
HETATM    5  C   UNL     1      20.571  49.878  49.208  1.00  0.00     0.031 A 
HETATM    6  C   UNL     1      21.908  49.731  49.603  1.00  0.00     0.032 A 
ENDROOT
BRANCH   1   7
HETATM    7  N   UNL     1      24.017  48.603  49.549  1.00  0.00    -0.333 N 
HETATM    8  H   UNL     1      24.403  49.500  49.828  1.00  0.00     0.168 HD
BRANCH   7   9
HETATM    9  C   UNL     1      24.771  47.552  49.941  1.00  0.00     0.179 C 
HETATM   10  S   UNL     1      26.418  47.599  49.653  1.00  0.00    -0.040 SA
BRANCH   9  11
HETATM   11  N   UNL     1      24.245  46.427  50.518  1.00  0.00    -0.300 N 
HETATM   12  C   UNL     1      24.666  45.436  51.390  1.00  0.00     0.247 C 
HETATM   13  O   UNL     1      24.009  44.401  51.493  1.00  0.00    -0.268 OA
HETATM   14  H   UNL     1      23.279  46.271  50.256  1.00  0.00     0.171 HD
BRANCH  12  15
HETATM   15  C   UNL     1      25.880  45.678  52.205  1.00  0.00     0.075 C 
HETATM   16  C   UNL     1      26.284  44.722  53.057  1.00  0.00     0.017 C 
BRANCH  16  17
HETATM   17  C   UNL     1      27.475  44.778  53.919  1.00  0.00    -0.036 A 
HETATM   18  C   UNL     1      27.627  45.879  54.770  1.00  0.00     0.012 A 
HETATM   19  C   UNL     1      28.706  45.963  55.657  1.00  0.00     0.008 A 
HETATM   20  C   UNL     1      29.668  44.948  55.713  1.00  0.00    -0.055 A 
HETATM   21  C   UNL     1      29.506  43.837  54.873  1.00  0.00     0.008 A 
HETATM   22  C   UNL     1      28.422  43.752  53.989  1.00  0.00     0.012 A 
BRANCH  20  23
HETATM   23  C   UNL     1      30.838  44.994  56.681  1.00  0.00     0.010 C 
HETATM   24  C   UNL     1      31.457  43.604  56.837  1.00  0.00     0.015 C 
HETATM   25  C   UNL     1      30.475  45.577  58.051  1.00  0.00     0.015 C 
ENDBRANCH  20  23
ENDBRANCH  16  17
ENDBRANCH  12  15
ENDBRANCH   9  11
ENDBRANCH   7   9
ENDBRANCH   1   7
BRANCH   4  26
HETATM   26  N   UNL     1      18.614  49.095  47.927  1.00  0.00    -0.378 N 
HETATM   27  C   UNL     1      17.924  50.409  48.029  1.00  0.00     0.143 C 
HETATM   28  C   UNL     1      18.218  51.272  46.786  1.00  0.00     0.146 C 
HETATM   29  N   UNL     1      17.816  50.551  45.570  1.00  0.00    -0.343 N 
HETATM   30  C   UNL     1      16.843  50.932  44.647  1.00  0.00     0.277 C 
HETATM   31  C   UNL     1      18.478  49.248  45.427  1.00  0.00     0.146 C 
HETATM   32  O   UNL     1      16.703  50.296  43.599  1.00  0.00    -0.265 OA
HETATM   33  C   UNL     1      18.229  48.373  46.677  1.00  0.00     0.143 C 
BRANCH  30  34
HETATM   34  C   UNL     1      16.006  52.090  44.913  1.00  0.00     0.142 A 
HETATM   35  O   UNL     1      14.815  51.970  45.582  1.00  0.00    -0.317 OA
HETATM   36  C   UNL     1      14.249  53.203  45.631  1.00  0.00     0.143 A 
HETATM   37  C   UNL     1      15.035  54.121  44.978  1.00  0.00     0.027 A 
HETATM   38  C   UNL     1      16.155  53.402  44.496  1.00  0.00     0.045 A 
ENDBRANCH  30  34
ENDBRANCH   4  26
TORSDOF 8
ENDMDL
MODEL 9
REMARK VINA RESULT:      -9.3      4.569      7.662
REMARK  8 active torsions:
REMARK  status: ('A' for Active; 'I' for Inactive)
REMARK    1  A    between atoms: C_2  and  C_3 
REMARK    2  A    between atoms: C_6  and  C_7 
REMARK    3  A    between atoms: C_8  and  C_9 
REMARK       I    between atoms: C_9  and  N_10 
REMARK    4  A    between atoms: N_10  and  C_11 
REMARK    5  A    between atoms: C_11  and  N_12 
REMARK    6  A    between atoms: N_12  and  C_13 
REMARK    7  A    between atoms: C_16  and  N_17 
REMARK       I    between atoms: N_20  and  C_21 
REMARK    8  A    between atoms: C_21  and  C_22 
ROOT
HETATM    1  C   UNL     1      24.017  44.136  48.415  1.00  0.00     0.034 A 
HETATM    2  C   UNL     1      23.478  43.296  47.447  1.00  0.00     0.032 A 
HETATM    3  C   UNL     1      22.160  43.485  47.005  1.00  0.00     0.031 A 
HETATM    4  C   UNL     1      21.335  44.509  47.502  1.00  0.00     0.030 A 
HETATM    5  C   UNL     1      21.879  45.277  48.542  1.00  0.00     0.031 A 
HETATM    6  C   UNL     1      23.193  45.096  48.995  1.00  0.00     0.032 A 
ENDROOT
BRANCH   1   7
HETATM    7  N   UNL     1      25.341  44.048  48.890  1.00  0.00    -0.333 N 
HETATM    8  H   UNL     1      25.990  43.618  48.237  1.00  0.00     0.168 HD
BRANCH   7   9
HETATM    9  C   UNL     1      25.954  44.718  49.890  1.00  0.00     0.179 C 
HETATM   10  S   UNL     1      25.650  44.252  51.468  1.00  0.00    -0.040 SA
BRANCH   9  11
HETATM   11  N   UNL     1      26.774  45.794  49.678  1.00  0.00    -0.300 N 
HETATM   12  C   UNL     1      26.634  47.148  49.421  1.00  0.00     0.247 C 
HETATM   13  O   UNL     1      27.599  47.789  49.009  1.00  0.00    -0.268 OA
HETATM   14  H   UNL     1      27.755  45.553  49.737  1.00  0.00     0.171 HD
BRANCH  12  15
HETATM   15  C   UNL     1      25.325  47.789  49.691  1.00  0.00     0.075 C 
HETATM   16  C   UNL     1      24.870  48.713  48.829  1.00  0.00     0.017 C 
BRANCH  16  17
HETATM   17  C   UNL     1      23.588  49.428  48.923  1.00  0.00    -0.036 A 
HETATM   18  C   UNL     1      22.458  48.713  49.339  1.00  0.00     0.012 A 
HETATM   19  C   UNL     1      21.223  49.347  49.506  1.00  0.00     0.008 A 
HETATM   20  C   UNL     1      21.081  50.716  49.255  1.00  0.00    -0.055 A 
HETATM   21  C   UNL     1      22.216  51.436  48.855  1.00  0.00     0.008 A 
HETATM   22  C   UNL     1      23.454  50.801  48.694  1.00  0.00     0.012 A 
BRANCH  20  23
HETATM   23  C   UNL     1      19.760  51.443  49.450  1.00  0.00     0.010 C 
HETATM   24  C   UNL     1      18.686  50.472  49.945  1.00  0.00     0.015 C 
HETATM   25  C   UNL     1      19.280  52.183  48.198  1.00  0.00     0.015 C 
ENDBRANCH  20  23
ENDBRANCH  16  17
ENDBRANCH  12  15
ENDBRANCH   9  11
ENDBRANCH   7   9
ENDBRANCH   1   7
BRANCH   4  26
HETATM   26  N   UNL     1      20.036  44.684  47.013  1.00  0.00    -0.378 N 
HETATM   27  C   UNL     1      19.049  45.486  47.784  1.00  0.00     0.143 C 
HETATM   28  C   UNL     1      19.180  46.982  47.439  1.00  0.00     0.146 C 
HETATM   29  N   UNL     1      19.013  47.179  45.992  1.00  0.00    -0.343 N 
HETATM   30  C   UNL     1      18.017  47.913  45.349  1.00  0.00     0.277 C 
HETATM   31  C   UNL     1      19.973  46.408  45.192  1.00  0.00     0.146 C 
HETATM   32  O   UNL     1      18.078  48.103  44.132  1.00  0.00    -0.265 OA
HETATM   33  C   UNL     1      19.888  44.904  45.543  1.00  0.00     0.143 C 
BRANCH  30  34
HETATM   34  C   UNL     1      16.917  48.470  46.120  1.00  0.00     0.142 A 
HETATM   35  O   UNL     1      15.764  47.758  46.332  1.00  0.00    -0.317 OA
HETATM   36  C   UNL     1      14.918  48.554  47.034  1.00  0.00     0.143 A 
HETATM   37  C   UNL     1      15.486  49.785  47.257  1.00  0.00     0.027 A 
HETATM   38  C   UNL     1      16.763  49.740  46.650  1.00  0.00     0.045 A 
ENDBRANCH  30  34
ENDBRANCH   4  26
TORSDOF 8
ENDMDL
MODEL 10
REMARK VINA RESULT:      -9.1      5.079      7.909
REMARK  8 active torsions:
REMARK  status: ('A' for Active; 'I' for Inactive)
REMARK    1  A    between atoms: C_2  and  C_3 
REMARK    2  A    between atoms: C_6  and  C_7 
REMARK    3  A    between atoms: C_8  and  C_9 
REMARK       I    between atoms: C_9  and  N_10 
REMARK    4  A    between atoms: N_10  and  C_11 
REMARK    5  A    between atoms: C_11  and  N_12 
REMARK    6  A    between atoms: N_12  and  C_13 
REMARK    7  A    between atoms: C_16  and  N_17 
REMARK       I    between atoms: N_20  and  C_21 
REMARK    8  A    between atoms: C_21  and  C_22 
ROOT
HETATM    1  C   UNL     1      26.371  39.863  48.403  1.00  0.00     0.034 A 
HETATM    2  C   UNL     1      26.054  40.679  49.482  1.00  0.00     0.032 A 
HETATM    3  C   UNL     1      24.916  41.500  49.434  1.00  0.00     0.031 A 
HETATM    4  C   UNL     1      24.057  41.537  48.322  1.00  0.00     0.030 A 
HETATM    5  C   UNL     1      24.458  40.771  47.217  1.00  0.00     0.031 A 
HETATM    6  C   UNL     1      25.595  39.951  47.251  1.00  0.00     0.032 A 
ENDROOT
BRANCH   1   7
HETATM    7  N   UNL     1      27.468  38.978  48.377  1.00  0.00    -0.333 N 
HETATM    8  H   UNL     1      28.352  39.419  48.142  1.00  0.00     0.168 HD
BRANCH   7   9
HETATM    9  C   UNL     1      27.611  37.750  48.923  1.00  0.00     0.179 C 
HETATM   10  S   UNL     1      26.477  36.576  48.556  1.00  0.00    -0.040 SA
BRANCH   9  11
HETATM   11  N   UNL     1      28.612  37.434  49.803  1.00  0.00    -0.300 N 
HETATM   12  C   UNL     1      29.513  38.111  50.608  1.00  0.00     0.247 C 
HETATM   13  O   UNL     1      30.474  37.506  51.081  1.00  0.00    -0.268 OA
HETATM   14  H   UNL     1      28.725  36.435  49.919  1.00  0.00     0.171 HD
BRANCH  12  15
HETATM   15  C   UNL     1      29.264  39.541  50.905  1.00  0.00     0.075 C 
HETATM   16  C   UNL     1      29.100  39.913  52.185  1.00  0.00     0.017 C 
BRANCH  16  17
HETATM   17  C   UNL     1      28.873  41.285  52.665  1.00  0.00    -0.036 A 
HETATM   18  C   UNL     1      27.553  41.737  52.783  1.00  0.00     0.012 A 
HETATM   19  C   UNL     1      27.268  43.010  53.289  1.00  0.00     0.008 A 
HETATM   20  C   UNL     1      28.298  43.870  53.688  1.00  0.00    -0.055 A 
HETATM   21  C   UNL     1      29.619  43.410  53.587  1.00  0.00     0.008 A 
HETATM   22  C   UNL     1      29.902  42.133  53.085  1.00  0.00     0.012 A 
BRANCH  20  23
HETATM   23  C   UNL     1      28.023  45.248  54.266  1.00  0.00     0.010 C 
HETATM   24  C   UNL     1      28.773  45.431  55.586  1.00  0.00     0.015 C 
HETATM   25  C   UNL     1      26.532  45.547  54.450  1.00  0.00     0.015 C 
ENDBRANCH  20  23
ENDBRANCH  16  17
ENDBRANCH  12  15
ENDBRANCH   9  11
ENDBRANCH   7   9
ENDBRANCH   1   7
BRANCH   4  26
HETATM   26  N   UNL     1      22.915  42.345  48.325  1.00  0.00    -0.378 N 
HETATM   27  C   UNL     1      22.887  43.598  49.127  1.00  0.00     0.143 C 
HETATM   28  C   UNL     1      23.485  44.768  48.322  1.00  0.00     0.146 C 
HETATM   29  N   UNL     1      22.756  44.929  47.056  1.00  0.00    -0.343 N 
HETATM   30  C   UNL     1      22.018  46.037  46.641  1.00  0.00     0.277 C 
HETATM   31  C   UNL     1      22.762  43.715  46.230  1.00  0.00     0.146 C 
HETATM   32  O   UNL     1      21.568  46.086  45.494  1.00  0.00    -0.265 OA
HETATM   33  C   UNL     1      22.199  42.514  47.025  1.00  0.00     0.143 C 
BRANCH  30  34
HETATM   34  C   UNL     1      21.796  47.143  47.559  1.00  0.00     0.142 A 
HETATM   35  O   UNL     1      22.718  48.148  47.699  1.00  0.00    -0.317 OA
HETATM   36  C   UNL     1      22.254  48.996  48.653  1.00  0.00     0.143 A 
HETATM   37  C   UNL     1      21.060  48.545  49.159  1.00  0.00     0.027 A 
HETATM   38  C   UNL     1      20.774  47.341  48.473  1.00  0.00     0.045 A 
ENDBRANCH  30  34
ENDBRANCH   4  26
TORSDOF 8
ENDMDL
