MODEL 1
REMARK VINA RESULT:     -10.3      0.000      0.000
REMARK  2 active torsions:
REMARK  status: ('A' for Active; 'I' for Inactive)
REMARK    1  A    between atoms: C_4  and  C_5 
REMARK       I    between atoms: N_12  and  C_13 
REMARK    2  A    between atoms: C_13  and  C_14 
ROOT
HETATM    1  C   UNL     1      28.411  46.090  55.565  1.00  0.00     0.097 A 
HETATM    2  N   UNL     1      27.933  47.119  56.292  1.00  0.00    -0.173 NA
HETATM    3  N   UNL     1      26.913  47.613  55.574  1.00  0.00    -0.281 N 
HETATM    4  H   UNL     1      26.392  48.396  55.954  1.00  0.00     0.189 HD
HETATM    5  C   UNL     1      26.709  46.934  54.420  1.00  0.00     0.039 A 
HETATM    6  C   UNL     1      27.672  45.954  54.353  1.00  0.00     0.015 A 
HETATM    7  C   UNL     1      27.771  44.981  53.232  1.00  0.00     0.169 C 
HETATM    8  N   UNL     1      26.562  45.040  52.377  1.00  0.00    -0.343 N 
HETATM    9  C   UNL     1      26.303  44.083  51.390  1.00  0.00     0.254 C 
HETATM   10  O   UNL     1      25.484  44.245  50.486  1.00  0.00    -0.267 OA
HETATM   11  C   UNL     1      25.965  46.377  52.150  1.00  0.00     0.132 C 
HETATM   12  C   UNL     1      25.618  47.135  53.446  1.00  0.00     0.079 C 
ENDROOT
BRANCH   9  13
HETATM   13  C   UNL     1      27.075  42.823  51.366  1.00  0.00     0.035 A 
HETATM   14  C   UNL     1      27.268  42.201  50.129  1.00  0.00     0.056 A 
HETATM   15  C   UNL     1      27.977  41.004  50.064  1.00  0.00     0.103 A 
HETATM   16  C   UNL     1      28.461  40.412  51.236  1.00  0.00     0.102 A 
HETATM   17  O   UNL     1      28.149  40.460  48.818  1.00  0.00    -0.346 OA
HETATM   18  O   UNL     1      29.143  39.222  51.244  1.00  0.00    -0.346 OA
HETATM   19  C   UNL     1      28.259  41.029  52.471  1.00  0.00     0.040 A 
HETATM   20  C   UNL     1      28.952  38.506  50.019  1.00  0.00     0.202 C 
HETATM   21  C   UNL     1      29.137  39.425  48.824  1.00  0.00     0.202 C 
HETATM   22  C   UNL     1      27.548  42.229  52.543  1.00  0.00     0.020 A 
ENDBRANCH   9  13
BRANCH   1  23
HETATM   23  C   UNL     1      29.504  45.260  56.079  1.00  0.00    -0.005 A 
HETATM   24  C   UNL     1      30.064  45.548  57.333  1.00  0.00     0.014 A 
HETATM   25  C   UNL     1      31.081  44.752  57.864  1.00  0.00     0.001 A 
HETATM   26  C   UNL     1      31.554  43.659  57.144  1.00  0.00     0.000 A 
HETATM   27  C   UNL     1      31.018  43.368  55.890  1.00  0.00     0.001 A 
HETATM   28  C   UNL     1      30.001  44.167  55.357  1.00  0.00     0.014 A 
ENDBRANCH   1  23
TORSDOF 2
ENDMDL
MODEL 2
REMARK VINA RESULT:      -9.9      2.926      6.290
REMARK  2 active torsions:
REMARK  status: ('A' for Active; 'I' for Inactive)
REMARK    1  A    between atoms: C_4  and  C_5 
REMARK       I    between atoms: N_12  and  C_13 
REMARK    2  A    between atoms: C_13  and  C_14 
ROOT
HETATM    1  C   UNL     1      28.095  42.711  53.408  1.00  0.00     0.097 A 
HETATM    2  N   UNL     1      28.778  41.588  53.707  1.00  0.00    -0.173 NA
HETATM    3  N   UNL     1      28.377  40.681  52.803  1.00  0.00    -0.281 N 
HETATM    4  H   UNL     1      28.788  39.754  52.837  1.00  0.00     0.189 HD
HETATM    5  C   UNL     1      27.472  41.180  51.928  1.00  0.00     0.039 A 
HETATM    6  C   UNL     1      27.233  42.484  52.295  1.00  0.00     0.015 A 
HETATM    7  C   UNL     1      26.301  43.383  51.560  1.00  0.00     0.169 C 
HETATM    8  N   UNL     1      25.900  42.778  50.267  1.00  0.00    -0.343 N 
HETATM    9  C   UNL     1      25.209  43.505  49.290  1.00  0.00     0.254 C 
HETATM   10  O   UNL     1      24.618  42.982  48.348  1.00  0.00    -0.267 OA
HETATM   11  C   UNL     1      25.690  41.312  50.248  1.00  0.00     0.132 C 
HETATM   12  C   UNL     1      26.899  40.500  50.750  1.00  0.00     0.079 C 
ENDROOT
BRANCH   9  13
HETATM   13  C   UNL     1      25.117  44.976  49.397  1.00  0.00     0.035 A 
HETATM   14  C   UNL     1      23.879  45.571  49.131  1.00  0.00     0.056 A 
HETATM   15  C   UNL     1      23.752  46.955  49.206  1.00  0.00     0.103 A 
HETATM   16  C   UNL     1      24.866  47.747  49.508  1.00  0.00     0.102 A 
HETATM   17  O   UNL     1      22.507  47.471  48.956  1.00  0.00    -0.346 OA
HETATM   18  O   UNL     1      24.815  49.116  49.570  1.00  0.00    -0.346 OA
HETATM   19  C   UNL     1      26.103  47.152  49.762  1.00  0.00     0.040 A 
HETATM   20  C   UNL     1      23.640  49.621  48.925  1.00  0.00     0.202 C 
HETATM   21  C   UNL     1      22.411  48.841  49.358  1.00  0.00     0.202 C 
HETATM   22  C   UNL     1      26.237  45.763  49.690  1.00  0.00     0.020 A 
ENDBRANCH   9  13
BRANCH   1  23
HETATM   23  C   UNL     1      28.331  43.948  54.157  1.00  0.00    -0.005 A 
HETATM   24  C   UNL     1      29.486  44.071  54.946  1.00  0.00     0.014 A 
HETATM   25  C   UNL     1      29.755  45.252  55.641  1.00  0.00     0.001 A 
HETATM   26  C   UNL     1      28.871  46.324  55.558  1.00  0.00     0.000 A 
HETATM   27  C   UNL     1      27.713  46.212  54.789  1.00  0.00     0.001 A 
HETATM   28  C   UNL     1      27.441  45.028  54.095  1.00  0.00     0.014 A 
ENDBRANCH   1  23
TORSDOF 2
ENDMDL
MODEL 3
REMARK VINA RESULT:      -9.4      3.440      7.832
REMARK  2 active torsions:
REMARK  status: ('A' for Active; 'I' for Inactive)
REMARK    1  A    between atoms: C_4  and  C_5 
REMARK       I    between atoms: N_12  and  C_13 
REMARK    2  A    between atoms: C_13  and  C_14 
ROOT
HETATM    1  C   UNL     1      28.125  40.742  50.286  1.00  0.00     0.097 A 
HETATM    2  N   UNL     1      28.717  39.647  50.803  1.00  0.00    -0.173 NA
HETATM    3  N   UNL     1      29.043  39.983  52.060  1.00  0.00    -0.281 N 
HETATM    4  H   UNL     1      29.492  39.285  52.644  1.00  0.00     0.189 HD
HETATM    5  C   UNL     1      28.674  41.247  52.376  1.00  0.00     0.039 A 
HETATM    6  C   UNL     1      28.099  41.792  51.251  1.00  0.00     0.015 A 
HETATM    7  C   UNL     1      27.547  43.173  51.202  1.00  0.00     0.169 C 
HETATM    8  N   UNL     1      27.456  43.750  52.565  1.00  0.00    -0.343 N 
HETATM    9  C   UNL     1      26.770  44.943  52.822  1.00  0.00     0.254 C 
HETATM   10  O   UNL     1      26.908  45.594  53.856  1.00  0.00    -0.267 OA
HETATM   11  C   UNL     1      28.549  43.419  53.509  1.00  0.00     0.132 C 
HETATM   12  C   UNL     1      28.781  41.907  53.692  1.00  0.00     0.079 C 
ENDROOT
BRANCH   9  13
HETATM   13  C   UNL     1      25.870  45.509  51.796  1.00  0.00     0.035 A 
HETATM   14  C   UNL     1      26.143  46.800  51.332  1.00  0.00     0.056 A 
HETATM   15  C   UNL     1      25.311  47.377  50.377  1.00  0.00     0.103 A 
HETATM   16  C   UNL     1      24.188  46.682  49.912  1.00  0.00     0.102 A 
HETATM   17  O   UNL     1      25.648  48.635  49.949  1.00  0.00    -0.346 OA
HETATM   18  O   UNL     1      23.314  47.204  48.993  1.00  0.00    -0.346 OA
HETATM   19  C   UNL     1      23.912  45.398  50.384  1.00  0.00     0.040 A 
HETATM   20  C   UNL     1      23.464  48.624  48.882  1.00  0.00     0.202 C 
HETATM   21  C   UNL     1      24.931  49.002  48.767  1.00  0.00     0.202 C 
HETATM   22  C   UNL     1      24.743  44.813  51.343  1.00  0.00     0.020 A 
ENDBRANCH   9  13
BRANCH   1  23
HETATM   23  C   UNL     1      27.570  40.720  48.930  1.00  0.00    -0.005 A 
HETATM   24  C   UNL     1      26.178  40.693  48.751  1.00  0.00     0.014 A 
HETATM   25  C   UNL     1      25.621  40.709  47.471  1.00  0.00     0.001 A 
HETATM   26  C   UNL     1      26.449  40.747  46.353  1.00  0.00     0.000 A 
HETATM   27  C   UNL     1      27.834  40.760  46.515  1.00  0.00     0.001 A 
HETATM   28  C   UNL     1      28.393  40.742  47.797  1.00  0.00     0.014 A 
ENDBRANCH   1  23
TORSDOF 2
ENDMDL
MODEL 4
REMARK VINA RESULT:      -9.4      5.750      7.617
REMARK  2 active torsions:
REMARK  status: ('A' for Active; 'I' for Inactive)
REMARK    1  A    between atoms: C_4  and  C_5 
REMARK       I    between atoms: N_12  and  C_13 
REMARK    2  A    between atoms: C_13  and  C_14 
ROOT
HETATM    1  C   UNL     1      23.289  49.199  49.244  1.00  0.00     0.097 A 
HETATM    2  N   UNL     1      22.773  50.333  49.758  1.00  0.00    -0.173 NA
HETATM    3  N   UNL     1      21.444  50.148  49.753  1.00  0.00    -0.281 N 
HETATM    4  H   UNL     1      20.854  50.887  50.122  1.00  0.00     0.189 HD
HETATM    5  C   UNL     1      21.087  48.937  49.266  1.00  0.00     0.039 A 
HETATM    6  C   UNL     1      22.245  48.293  48.895  1.00  0.00     0.015 A 
HETATM    7  C   UNL     1      22.270  46.919  48.325  1.00  0.00     0.169 C 
HETATM    8  N   UNL     1      20.948  46.265  48.473  1.00  0.00    -0.343 N 
HETATM    9  C   UNL     1      20.761  44.901  48.223  1.00  0.00     0.254 C 
HETATM   10  O   UNL     1      19.657  44.387  48.056  1.00  0.00    -0.267 OA
HETATM   11  C   UNL     1      19.752  47.121  48.296  1.00  0.00     0.132 C 
HETATM   12  C   UNL     1      19.728  48.361  49.211  1.00  0.00     0.079 C 
ENDROOT
BRANCH   9  13
HETATM   13  C   UNL     1      21.934  44.012  48.088  1.00  0.00     0.035 A 
HETATM   14  C   UNL     1      22.669  43.724  49.242  1.00  0.00     0.056 A 
HETATM   15  C   UNL     1      23.790  42.903  49.157  1.00  0.00     0.103 A 
HETATM   16  C   UNL     1      24.198  42.400  47.916  1.00  0.00     0.102 A 
HETATM   17  O   UNL     1      24.450  42.643  50.329  1.00  0.00    -0.346 OA
HETATM   18  O   UNL     1      25.307  41.609  47.759  1.00  0.00    -0.346 OA
HETATM   19  C   UNL     1      23.470  42.697  46.763  1.00  0.00     0.040 A 
HETATM   20  C   UNL     1      26.171  41.694  48.898  1.00  0.00     0.202 C 
HETATM   21  C   UNL     1      25.377  41.561  50.186  1.00  0.00     0.202 C 
HETATM   22  C   UNL     1      22.344  43.520  46.842  1.00  0.00     0.020 A 
ENDBRANCH   9  13
BRANCH   1  23
HETATM   23  C   UNL     1      24.740  49.014  49.157  1.00  0.00    -0.005 A 
HETATM   24  C   UNL     1      25.515  49.932  48.431  1.00  0.00     0.014 A 
HETATM   25  C   UNL     1      26.903  49.801  48.362  1.00  0.00     0.001 A 
HETATM   26  C   UNL     1      27.535  48.747  49.016  1.00  0.00     0.000 A 
HETATM   27  C   UNL     1      26.777  47.819  49.729  1.00  0.00     0.001 A 
HETATM   28  C   UNL     1      25.386  47.948  49.796  1.00  0.00     0.014 A 
ENDBRANCH   1  23
TORSDOF 2
ENDMDL
MODEL 5
REMARK VINA RESULT:      -9.3      8.008     11.323
REMARK  2 active torsions:
REMARK  status: ('A' for Active; 'I' for Inactive)
REMARK    1  A    between atoms: C_4  and  C_5 
REMARK       I    between atoms: N_12  and  C_13 
REMARK    2  A    between atoms: C_13  and  C_14 
ROOT
HETATM    1  C   UNL     1      19.273  45.189  47.042  1.00  0.00     0.097 A 
HETATM    2  N   UNL     1      18.042  44.664  46.882  1.00  0.00    -0.173 NA
HETATM    3  N   UNL     1      17.240  45.401  47.665  1.00  0.00    -0.281 N 
HETATM    4  H   UNL     1      16.250  45.182  47.681  1.00  0.00     0.189 HD
HETATM    5  C   UNL     1      17.905  46.386  48.314  1.00  0.00     0.039 A 
HETATM    6  C   UNL     1      19.231  46.275  47.966  1.00  0.00     0.015 A 
HETATM    7  C   UNL     1      20.288  47.196  48.465  1.00  0.00     0.169 C 
HETATM    8  N   UNL     1      19.684  48.371  49.138  1.00  0.00    -0.343 N 
HETATM    9  C   UNL     1      20.442  49.490  49.500  1.00  0.00     0.254 C 
HETATM   10  O   UNL     1      20.054  50.343  50.297  1.00  0.00    -0.267 OA
HETATM   11  C   UNL     1      18.466  48.130  49.946  1.00  0.00     0.132 C 
HETATM   12  C   UNL     1      17.327  47.441  49.170  1.00  0.00     0.079 C 
ENDROOT
BRANCH   9  13
HETATM   13  C   UNL     1      21.808  49.659  48.961  1.00  0.00     0.035 A 
HETATM   14  C   UNL     1      22.855  49.014  49.629  1.00  0.00     0.056 A 
HETATM   15  C   UNL     1      24.159  49.159  49.163  1.00  0.00     0.103 A 
HETATM   16  C   UNL     1      24.422  49.975  48.057  1.00  0.00     0.102 A 
HETATM   17  O   UNL     1      25.133  48.482  49.849  1.00  0.00    -0.346 OA
HETATM   18  O   UNL     1      25.685  50.181  47.565  1.00  0.00    -0.346 OA
HETATM   19  C   UNL     1      23.377  50.626  47.399  1.00  0.00     0.040 A 
HETATM   20  C   UNL     1      26.683  49.802  48.521  1.00  0.00     0.202 C 
HETATM   21  C   UNL     1      26.364  48.443  49.120  1.00  0.00     0.202 C 
HETATM   22  C   UNL     1      22.067  50.484  47.861  1.00  0.00     0.020 A 
ENDBRANCH   9  13
BRANCH   1  23
HETATM   23  C   UNL     1      20.409  44.672  46.275  1.00  0.00    -0.005 A 
HETATM   24  C   UNL     1      21.204  45.557  45.530  1.00  0.00     0.014 A 
HETATM   25  C   UNL     1      22.315  45.098  44.820  1.00  0.00     0.001 A 
HETATM   26  C   UNL     1      22.644  43.745  44.843  1.00  0.00     0.000 A 
HETATM   27  C   UNL     1      21.855  42.851  45.568  1.00  0.00     0.001 A 
HETATM   28  C   UNL     1      20.741  43.311  46.277  1.00  0.00     0.014 A 
ENDBRANCH   1  23
TORSDOF 2
ENDMDL
MODEL 6
REMARK VINA RESULT:      -9.1      2.876      5.709
REMARK  2 active torsions:
REMARK  status: ('A' for Active; 'I' for Inactive)
REMARK    1  A    between atoms: C_4  and  C_5 
REMARK       I    between atoms: N_12  and  C_13 
REMARK    2  A    between atoms: C_13  and  C_14 
ROOT
HETATM    1  C   UNL     1      28.273  44.369  54.310  1.00  0.00     0.097 A 
HETATM    2  N   UNL     1      29.378  43.966  54.969  1.00  0.00    -0.173 NA
HETATM    3  N   UNL     1      29.691  42.776  54.435  1.00  0.00    -0.281 N 
HETATM    4  H   UNL     1      30.516  42.296  54.780  1.00  0.00     0.189 HD
HETATM    5  C   UNL     1      28.839  42.403  53.451  1.00  0.00     0.039 A 
HETATM    6  C   UNL     1      27.884  43.389  53.350  1.00  0.00     0.015 A 
HETATM    7  C   UNL     1      26.772  43.351  52.361  1.00  0.00     0.169 C 
HETATM    8  N   UNL     1      26.998  42.284  51.358  1.00  0.00    -0.343 N 
HETATM    9  C   UNL     1      26.222  42.179  50.198  1.00  0.00     0.254 C 
HETATM   10  O   UNL     1      26.182  41.169  49.498  1.00  0.00    -0.267 OA
HETATM   11  C   UNL     1      27.603  41.022  51.844  1.00  0.00     0.132 C 
HETATM   12  C   UNL     1      28.941  41.213  52.582  1.00  0.00     0.079 C 
ENDROOT
BRANCH   9  13
HETATM   13  C   UNL     1      25.347  43.300  49.795  1.00  0.00     0.035 A 
HETATM   14  C   UNL     1      24.003  43.016  49.532  1.00  0.00     0.056 A 
HETATM   15  C   UNL     1      23.149  44.040  49.135  1.00  0.00     0.103 A 
HETATM   16  C   UNL     1      23.642  45.339  48.964  1.00  0.00     0.102 A 
HETATM   17  O   UNL     1      21.840  43.697  48.917  1.00  0.00    -0.346 OA
HETATM   18  O   UNL     1      22.860  46.386  48.549  1.00  0.00    -0.346 OA
HETATM   19  C   UNL     1      24.986  45.619  49.215  1.00  0.00     0.040 A 
HETATM   20  C   UNL     1      21.641  45.921  47.958  1.00  0.00     0.202 C 
HETATM   21  C   UNL     1      20.998  44.851  48.823  1.00  0.00     0.202 C 
HETATM   22  C   UNL     1      25.849  44.595  49.615  1.00  0.00     0.020 A 
ENDBRANCH   9  13
BRANCH   1  23
HETATM   23  C   UNL     1      27.676  45.678  54.586  1.00  0.00    -0.005 A 
HETATM   24  C   UNL     1      26.685  46.183  53.730  1.00  0.00     0.014 A 
HETATM   25  C   UNL     1      26.073  47.411  53.990  1.00  0.00     0.001 A 
HETATM   26  C   UNL     1      26.447  48.152  55.107  1.00  0.00     0.000 A 
HETATM   27  C   UNL     1      27.440  47.670  55.959  1.00  0.00     0.001 A 
HETATM   28  C   UNL     1      28.056  46.441  55.698  1.00  0.00     0.014 A 
ENDBRANCH   1  23
TORSDOF 2
ENDMDL
MODEL 7
REMARK VINA RESULT:      -8.9      3.309      7.542
REMARK  2 active torsions:
REMARK  status: ('A' for Active; 'I' for Inactive)
REMARK    1  A    between atoms: C_4  and  C_5 
REMARK       I    between atoms: N_12  and  C_13 
REMARK    2  A    between atoms: C_13  and  C_14 
ROOT
HETATM    1  C   UNL     1      28.131  40.684  50.415  1.00  0.00     0.097 A 
HETATM    2  N   UNL     1      28.769  39.626  50.955  1.00  0.00    -0.173 NA
HETATM    3  N   UNL     1      29.100  40.011  52.196  1.00  0.00    -0.281 N 
HETATM    4  H   UNL     1      29.581  39.346  52.794  1.00  0.00     0.189 HD
HETATM    5  C   UNL     1      28.691  41.270  52.480  1.00  0.00     0.039 A 
HETATM    6  C   UNL     1      28.082  41.761  51.348  1.00  0.00     0.015 A 
HETATM    7  C   UNL     1      27.482  43.120  51.267  1.00  0.00     0.169 C 
HETATM    8  N   UNL     1      27.389  43.734  52.613  1.00  0.00    -0.343 N 
HETATM    9  C   UNL     1      26.665  44.909  52.846  1.00  0.00     0.254 C 
HETATM   10  O   UNL     1      26.794  45.596  53.857  1.00  0.00    -0.267 OA
HETATM   11  C   UNL     1      28.505  43.469  53.551  1.00  0.00     0.132 C 
HETATM   12  C   UNL     1      28.792  41.972  53.775  1.00  0.00     0.079 C 
ENDROOT
BRANCH   9  13
HETATM   13  C   UNL     1      25.732  45.413  51.816  1.00  0.00     0.035 A 
HETATM   14  C   UNL     1      24.779  44.523  51.310  1.00  0.00     0.056 A 
HETATM   15  C   UNL     1      23.891  44.953  50.328  1.00  0.00     0.103 A 
HETATM   16  C   UNL     1      23.977  46.257  49.826  1.00  0.00     0.102 A 
HETATM   17  O   UNL     1      22.969  44.037  49.893  1.00  0.00    -0.346 OA
HETATM   18  O   UNL     1      23.151  46.733  48.841  1.00  0.00    -0.346 OA
HETATM   19  C   UNL     1      24.935  47.140  50.325  1.00  0.00     0.040 A 
HETATM   20  C   UNL     1      22.497  45.664  48.149  1.00  0.00     0.202 C 
HETATM   21  C   UNL     1      21.926  44.657  49.132  1.00  0.00     0.202 C 
HETATM   22  C   UNL     1      25.829  46.715  51.311  1.00  0.00     0.020 A 
ENDBRANCH   9  13
BRANCH   1  23
HETATM   23  C   UNL     1      27.560  40.602  49.068  1.00  0.00    -0.005 A 
HETATM   24  C   UNL     1      28.394  40.759  47.950  1.00  0.00     0.014 A 
HETATM   25  C   UNL     1      27.883  40.649  46.655  1.00  0.00     0.001 A 
HETATM   26  C   UNL     1      26.531  40.385  46.461  1.00  0.00     0.000 A 
HETATM   27  C   UNL     1      25.687  40.241  47.562  1.00  0.00     0.001 A 
HETATM   28  C   UNL     1      26.197  40.353  48.860  1.00  0.00     0.014 A 
ENDBRANCH   1  23
TORSDOF 2
ENDMDL
MODEL 8
REMARK VINA RESULT:      -8.8      2.402      5.460
REMARK  2 active torsions:
REMARK  status: ('A' for Active; 'I' for Inactive)
REMARK    1  A    between atoms: C_4  and  C_5 
REMARK       I    between atoms: N_12  and  C_13 
REMARK    2  A    between atoms: C_13  and  C_14 
ROOT
HETATM    1  C   UNL     1      25.967  45.836  52.341  1.00  0.00     0.097 A 
HETATM    2  N   UNL     1      26.321  46.815  53.198  1.00  0.00    -0.173 NA
HETATM    3  N   UNL     1      27.214  46.253  54.025  1.00  0.00    -0.281 N 
HETATM    4  H   UNL     1      27.629  46.831  54.749  1.00  0.00     0.189 HD
HETATM    5  C   UNL     1      27.458  44.955  53.727  1.00  0.00     0.039 A 
HETATM    6  C   UNL     1      26.654  44.628  52.661  1.00  0.00     0.015 A 
HETATM    7  C   UNL     1      26.645  43.282  52.026  1.00  0.00     0.169 C 
HETATM    8  N   UNL     1      27.785  42.467  52.510  1.00  0.00    -0.343 N 
HETATM    9  C   UNL     1      28.135  41.251  51.911  1.00  0.00     0.254 C 
HETATM   10  O   UNL     1      28.870  40.421  52.442  1.00  0.00    -0.267 OA
HETATM   11  C   UNL     1      28.159  42.614  53.935  1.00  0.00     0.132 C 
HETATM   12  C   UNL     1      28.454  44.065  54.359  1.00  0.00     0.079 C 
ENDROOT
BRANCH   9  13
HETATM   13  C   UNL     1      27.562  40.886  50.598  1.00  0.00     0.035 A 
HETATM   14  C   UNL     1      28.286  41.236  49.453  1.00  0.00     0.056 A 
HETATM   15  C   UNL     1      27.775  40.925  48.196  1.00  0.00     0.103 A 
HETATM   16  C   UNL     1      26.528  40.299  48.081  1.00  0.00     0.102 A 
HETATM   17  O   UNL     1      28.545  41.275  47.118  1.00  0.00    -0.346 OA
HETATM   18  O   UNL     1      25.957  39.990  46.873  1.00  0.00    -0.346 OA
HETATM   19  C   UNL     1      25.803  39.961  49.224  1.00  0.00     0.040 A 
HETATM   20  C   UNL     1      26.578  40.714  45.804  1.00  0.00     0.202 C 
HETATM   21  C   UNL     1      28.091  40.643  45.916  1.00  0.00     0.202 C 
HETATM   22  C   UNL     1      26.310  40.270  50.488  1.00  0.00     0.020 A 
ENDBRANCH   9  13
BRANCH   1  23
HETATM   23  C   UNL     1      25.042  46.109  51.239  1.00  0.00    -0.005 A 
HETATM   24  C   UNL     1      24.885  47.424  50.774  1.00  0.00     0.014 A 
HETATM   25  C   UNL     1      24.038  47.708  49.700  1.00  0.00     0.001 A 
HETATM   26  C   UNL     1      23.334  46.680  49.081  1.00  0.00     0.000 A 
HETATM   27  C   UNL     1      23.468  45.370  49.540  1.00  0.00     0.001 A 
HETATM   28  C   UNL     1      24.314  45.086  50.618  1.00  0.00     0.014 A 
ENDBRANCH   1  23
TORSDOF 2
ENDMDL
MODEL 9
REMARK VINA RESULT:      -8.7     13.771     16.140
REMARK  2 active torsions:
REMARK  status: ('A' for Active; 'I' for Inactive)
REMARK    1  A    between atoms: C_4  and  C_5 
REMARK       I    between atoms: N_12  and  C_13 
REMARK    2  A    between atoms: C_13  and  C_14 
ROOT
HETATM    1  C   UNL     1      28.627  50.198  38.961  1.00  0.00     0.097 A 
HETATM    2  N   UNL     1      27.495  49.605  38.533  1.00  0.00    -0.173 NA
HETATM    3  N   UNL     1      27.723  48.288  38.645  1.00  0.00    -0.281 N 
HETATM    4  H   UNL     1      26.979  47.647  38.388  1.00  0.00     0.189 HD
HETATM    5  C   UNL     1      28.953  48.011  39.139  1.00  0.00     0.039 A 
HETATM    6  C   UNL     1      29.590  49.214  39.334  1.00  0.00     0.015 A 
HETATM    7  C   UNL     1      30.967  49.331  39.886  1.00  0.00     0.169 C 
HETATM    8  N   UNL     1      31.424  48.032  40.435  1.00  0.00    -0.343 N 
HETATM    9  C   UNL     1      32.586  47.919  41.206  1.00  0.00     0.254 C 
HETATM   10  O   UNL     1      33.146  46.848  41.435  1.00  0.00    -0.267 OA
HETATM   11  C   UNL     1      31.018  46.812  39.699  1.00  0.00     0.132 C 
HETATM   12  C   UNL     1      29.498  46.684  39.489  1.00  0.00     0.079 C 
ENDROOT
BRANCH   9  13
HETATM   13  C   UNL     1      33.234  49.134  41.742  1.00  0.00     0.035 A 
HETATM   14  C   UNL     1      34.554  49.391  41.357  1.00  0.00     0.056 A 
HETATM   15  C   UNL     1      35.207  50.518  41.850  1.00  0.00     0.103 A 
HETATM   16  C   UNL     1      34.556  51.366  42.754  1.00  0.00     0.102 A 
HETATM   17  O   UNL     1      36.490  50.722  41.414  1.00  0.00    -0.346 OA
HETATM   18  O   UNL     1      35.152  52.475  43.298  1.00  0.00    -0.346 OA
HETATM   19  C   UNL     1      33.243  51.101  43.146  1.00  0.00     0.040 A 
HETATM   20  C   UNL     1      36.575  52.428  43.144  1.00  0.00     0.202 C 
HETATM   21  C   UNL     1      36.950  52.042  41.723  1.00  0.00     0.202 C 
HETATM   22  C   UNL     1      32.583  49.973  42.654  1.00  0.00     0.020 A 
ENDBRANCH   9  13
BRANCH   1  23
HETATM   23  C   UNL     1      28.719  51.658  39.042  1.00  0.00    -0.005 A 
HETATM   24  C   UNL     1      28.885  52.274  40.293  1.00  0.00     0.014 A 
HETATM   25  C   UNL     1      29.013  53.660  40.397  1.00  0.00     0.001 A 
HETATM   26  C   UNL     1      28.972  54.450  39.252  1.00  0.00     0.000 A 
HETATM   27  C   UNL     1      28.793  53.854  38.004  1.00  0.00     0.001 A 
HETATM   28  C   UNL     1      28.663  52.465  37.899  1.00  0.00     0.014 A 
ENDBRANCH   1  23
TORSDOF 2
ENDMDL
MODEL 10
REMARK VINA RESULT:      -8.5     14.843     16.524
REMARK  2 active torsions:
REMARK  status: ('A' for Active; 'I' for Inactive)
REMARK    1  A    between atoms: C_4  and  C_5 
REMARK       I    between atoms: N_12  and  C_13 
REMARK    2  A    between atoms: C_13  and  C_14 
ROOT
HETATM    1  C   UNL     1      36.874  46.972  66.077  1.00  0.00     0.097 A 
HETATM    2  N   UNL     1      36.316  48.194  65.958  1.00  0.00    -0.173 NA
HETATM    3  N   UNL     1      37.276  48.968  65.429  1.00  0.00    -0.281 N 
HETATM    4  H   UNL     1      37.058  49.940  65.237  1.00  0.00     0.189 HD
HETATM    5  C   UNL     1      38.424  48.290  65.193  1.00  0.00     0.039 A 
HETATM    6  C   UNL     1      38.225  46.998  65.622  1.00  0.00     0.015 A 
HETATM    7  C   UNL     1      39.259  45.933  65.516  1.00  0.00     0.169 C 
HETATM    8  N   UNL     1      40.384  46.378  64.659  1.00  0.00    -0.343 N 
HETATM    9  C   UNL     1      41.376  45.495  64.218  1.00  0.00     0.254 C 
HETATM   10  O   UNL     1      42.456  45.862  63.759  1.00  0.00    -0.267 OA
HETATM   11  C   UNL     1      40.789  47.799  64.767  1.00  0.00     0.132 C 
HETATM   12  C   UNL     1      39.640  48.797  64.527  1.00  0.00     0.079 C 
ENDROOT
BRANCH   9  13
HETATM   13  C   UNL     1      41.173  44.037  64.350  1.00  0.00     0.035 A 
HETATM   14  C   UNL     1      40.314  43.414  63.438  1.00  0.00     0.056 A 
HETATM   15  C   UNL     1      40.083  42.045  63.536  1.00  0.00     0.103 A 
HETATM   16  C   UNL     1      40.679  41.305  64.563  1.00  0.00     0.102 A 
HETATM   17  O   UNL     1      39.249  41.496  62.597  1.00  0.00    -0.346 OA
HETATM   18  O   UNL     1      40.471  39.960  64.732  1.00  0.00    -0.346 OA
HETATM   19  C   UNL     1      41.527  41.929  65.479  1.00  0.00     0.040 A 
HETATM   20  C   UNL     1      39.316  39.518  64.009  1.00  0.00     0.202 C 
HETATM   21  C   UNL     1      39.326  40.066  62.593  1.00  0.00     0.202 C 
HETATM   22  C   UNL     1      41.763  43.303  65.385  1.00  0.00     0.020 A 
ENDBRANCH   9  13
BRANCH   1  23
HETATM   23  C   UNL     1      36.085  45.838  66.566  1.00  0.00    -0.005 A 
HETATM   24  C   UNL     1      35.630  44.868  65.658  1.00  0.00     0.014 A 
HETATM   25  C   UNL     1      34.909  43.757  66.100  1.00  0.00     0.001 A 
HETATM   26  C   UNL     1      34.629  43.604  67.455  1.00  0.00     0.000 A 
HETATM   27  C   UNL     1      35.062  44.566  68.366  1.00  0.00     0.001 A 
HETATM   28  C   UNL     1      35.783  45.681  67.924  1.00  0.00     0.014 A 
ENDBRANCH   1  23
TORSDOF 2
ENDMDL
