MODEL 1
REMARK VINA RESULT:      -9.5      0.000      0.000
REMARK  3 active torsions:
REMARK  status: ('A' for Active; 'I' for Inactive)
REMARK    1  A    between atoms: C_8  and  C_9 
REMARK    2  A    between atoms: C_12  and  C_13 
REMARK    3  A    between atoms: C_24  and  N_25 
ROOT
HETATM    1  C   UNL     1      27.181  47.731  49.852  1.00  0.00     0.073 C 
HETATM    2  C   UNL     1      25.788  47.225  49.897  1.00  0.00     0.062 A 
HETATM    3  N   UNL     1      24.755  48.082  49.953  1.00  0.00    -0.177 NA
HETATM    4  N   UNL     1      23.664  47.289  49.994  1.00  0.00    -0.256 N 
HETATM    5  H   UNL     1      22.746  47.719  50.032  1.00  0.00     0.191 HD
HETATM    6  C   UNL     1      23.975  45.969  49.958  1.00  0.00     0.175 A 
HETATM    7  C   UNL     1      25.342  45.883  49.905  1.00  0.00     0.034 A 
HETATM    8  C   UNL     1      26.006  44.548  49.858  1.00  0.00     0.104 A 
HETATM    9  C   UNL     1      24.955  43.453  49.701  1.00  0.00     0.067 A 
HETATM   10  C   UNL     1      25.459  42.081  49.284  1.00  0.00     0.020 C 
HETATM   11  N   UNL     1      25.877  40.942  48.938  1.00  0.00    -0.096 N 
HETATM   12  C   UNL     1      23.615  43.684  49.756  1.00  0.00     0.139 A 
HETATM   13  O   UNL     1      23.093  44.975  49.964  1.00  0.00    -0.279 OA
ENDROOT
BRANCH   8  14
HETATM   14  C   UNL     1      26.806  44.445  51.149  1.00  0.00    -0.044 A 
HETATM   15  C   UNL     1      26.423  45.112  52.325  1.00  0.00     0.009 A 
HETATM   16  C   UNL     1      27.218  45.058  53.475  1.00  0.00     0.013 A 
HETATM   17  C   UNL     1      28.412  44.323  53.500  1.00  0.00    -0.026 A 
HETATM   18  C   UNL     1      28.768  43.620  52.337  1.00  0.00     0.013 A 
HETATM   19  C   UNL     1      27.980  43.678  51.181  1.00  0.00     0.009 A 
BRANCH  17  20
HETATM   20  C   UNL     1      29.273  44.314  54.698  1.00  0.00    -0.026 A 
HETATM   21  C   UNL     1      29.212  45.346  55.650  1.00  0.00     0.012 A 
HETATM   22  C   UNL     1      30.049  45.349  56.770  1.00  0.00     0.001 A 
HETATM   23  C   UNL     1      30.961  44.316  56.962  1.00  0.00     0.000 A 
HETATM   24  C   UNL     1      31.037  43.280  56.035  1.00  0.00     0.001 A 
HETATM   25  C   UNL     1      30.202  43.281  54.915  1.00  0.00     0.012 A 
ENDBRANCH  17  20
ENDBRANCH   8  14
BRANCH  12  26
HETATM   26  N   UNL     1      22.634  42.734  49.592  1.00  0.00    -0.282 NA
HETATM   27  H   UNL     1      21.821  42.832  50.195  1.00  0.00     0.126 HD
HETATM   28  H   UNL     1      22.389  42.601  48.614  1.00  0.00     0.126 HD
ENDBRANCH  12  26
TORSDOF 3
ENDMDL
MODEL 2
REMARK VINA RESULT:      -9.0      3.190      6.641
REMARK  3 active torsions:
REMARK  status: ('A' for Active; 'I' for Inactive)
REMARK    1  A    between atoms: C_8  and  C_9 
REMARK    2  A    between atoms: C_12  and  C_13 
REMARK    3  A    between atoms: C_24  and  N_25 
ROOT
HETATM    1  C   UNL     1      27.449  45.187  55.212  1.00  0.00     0.073 C 
HETATM    2  C   UNL     1      28.389  44.235  54.572  1.00  0.00     0.062 A 
HETATM    3  N   UNL     1      29.639  44.092  55.045  1.00  0.00    -0.177 NA
HETATM    4  N   UNL     1      30.202  43.175  54.231  1.00  0.00    -0.256 N 
HETATM    5  H   UNL     1      31.161  42.893  54.399  1.00  0.00     0.191 HD
HETATM    6  C   UNL     1      29.349  42.733  53.271  1.00  0.00     0.175 A 
HETATM    7  C   UNL     1      28.166  43.403  53.451  1.00  0.00     0.034 A 
HETATM    8  C   UNL     1      27.013  43.139  52.543  1.00  0.00     0.104 A 
HETATM    9  C   UNL     1      27.338  41.969  51.620  1.00  0.00     0.067 A 
HETATM   10  C   UNL     1      26.169  41.338  50.882  1.00  0.00     0.020 C 
HETATM   11  N   UNL     1      25.198  40.814  50.269  1.00  0.00    -0.096 N 
HETATM   12  C   UNL     1      28.564  41.380  51.556  1.00  0.00     0.139 A 
HETATM   13  O   UNL     1      29.639  41.816  52.355  1.00  0.00    -0.279 OA
ENDROOT
BRANCH   8  14
HETATM   14  C   UNL     1      26.767  44.447  51.805  1.00  0.00    -0.044 A 
HETATM   15  C   UNL     1      25.915  45.445  52.307  1.00  0.00     0.009 A 
HETATM   16  C   UNL     1      25.651  46.604  51.571  1.00  0.00     0.013 A 
HETATM   17  C   UNL     1      26.241  46.820  50.317  1.00  0.00    -0.026 A 
HETATM   18  C   UNL     1      27.128  45.842  49.839  1.00  0.00     0.013 A 
HETATM   19  C   UNL     1      27.389  44.675  50.568  1.00  0.00     0.009 A 
BRANCH  17  20
HETATM   20  C   UNL     1      25.917  48.019  49.520  1.00  0.00    -0.026 A 
HETATM   21  C   UNL     1      26.928  48.853  49.011  1.00  0.00     0.012 A 
HETATM   22  C   UNL     1      26.618  50.003  48.280  1.00  0.00     0.001 A 
HETATM   23  C   UNL     1      25.289  50.341  48.040  1.00  0.00     0.000 A 
HETATM   24  C   UNL     1      24.270  49.528  48.530  1.00  0.00     0.001 A 
HETATM   25  C   UNL     1      24.583  48.380  49.263  1.00  0.00     0.012 A 
ENDBRANCH  17  20
ENDBRANCH   8  14
BRANCH  12  26
HETATM   26  N   UNL     1      28.894  40.306  50.761  1.00  0.00    -0.282 NA
HETATM   27  H   UNL     1      29.816  40.342  50.333  1.00  0.00     0.126 HD
HETATM   28  H   UNL     1      28.702  39.418  51.218  1.00  0.00     0.126 HD
ENDBRANCH  12  26
TORSDOF 3
ENDMDL
MODEL 3
REMARK VINA RESULT:      -8.4      5.929      8.408
REMARK  3 active torsions:
REMARK  status: ('A' for Active; 'I' for Inactive)
REMARK    1  A    between atoms: C_8  and  C_9 
REMARK    2  A    between atoms: C_12  and  C_13 
REMARK    3  A    between atoms: C_24  and  N_25 
ROOT
HETATM    1  C   UNL     1      19.352  52.451  48.484  1.00  0.00     0.073 C 
HETATM    2  C   UNL     1      18.541  51.287  48.917  1.00  0.00     0.062 A 
HETATM    3  N   UNL     1      17.666  51.408  49.929  1.00  0.00    -0.177 NA
HETATM    4  N   UNL     1      17.128  50.177  50.055  1.00  0.00    -0.256 N 
HETATM    5  H   UNL     1      16.420  50.020  50.764  1.00  0.00     0.191 HD
HETATM    6  C   UNL     1      17.629  49.292  49.155  1.00  0.00     0.175 A 
HETATM    7  C   UNL     1      18.556  49.969  48.405  1.00  0.00     0.034 A 
HETATM    8  C   UNL     1      19.296  49.265  47.318  1.00  0.00     0.104 A 
HETATM    9  C   UNL     1      18.722  47.865  47.124  1.00  0.00     0.067 A 
HETATM   10  C   UNL     1      19.107  47.143  45.844  1.00  0.00     0.020 C 
HETATM   11  N   UNL     1      19.426  46.543  44.780  1.00  0.00    -0.096 N 
HETATM   12  C   UNL     1      17.781  47.319  47.942  1.00  0.00     0.139 A 
HETATM   13  O   UNL     1      17.259  48.021  49.046  1.00  0.00    -0.279 OA
ENDROOT
BRANCH   8  14
HETATM   14  C   UNL     1      20.756  49.271  47.749  1.00  0.00    -0.044 A 
HETATM   15  C   UNL     1      21.658  50.264  47.334  1.00  0.00     0.009 A 
HETATM   16  C   UNL     1      23.010  50.202  47.685  1.00  0.00     0.013 A 
HETATM   17  C   UNL     1      23.508  49.158  48.478  1.00  0.00    -0.026 A 
HETATM   18  C   UNL     1      22.595  48.191  48.930  1.00  0.00     0.013 A 
HETATM   19  C   UNL     1      21.241  48.245  48.573  1.00  0.00     0.009 A 
BRANCH  17  20
HETATM   20  C   UNL     1      24.946  49.067  48.801  1.00  0.00    -0.026 A 
HETATM   21  C   UNL     1      25.869  49.997  48.292  1.00  0.00     0.012 A 
HETATM   22  C   UNL     1      27.233  49.893  48.577  1.00  0.00     0.001 A 
HETATM   23  C   UNL     1      27.701  48.858  49.381  1.00  0.00     0.000 A 
HETATM   24  C   UNL     1      26.806  47.927  49.901  1.00  0.00     0.001 A 
HETATM   25  C   UNL     1      25.442  48.032  49.612  1.00  0.00     0.012 A 
ENDBRANCH  17  20
ENDBRANCH   8  14
BRANCH  12  26
HETATM   26  N   UNL     1      17.215  46.074  47.789  1.00  0.00    -0.282 NA
HETATM   27  H   UNL     1      16.646  45.949  46.955  1.00  0.00     0.126 HD
HETATM   28  H   UNL     1      17.892  45.327  47.923  1.00  0.00     0.126 HD
ENDBRANCH  12  26
TORSDOF 3
ENDMDL
MODEL 4
REMARK VINA RESULT:      -8.3      1.689      2.268
REMARK  3 active torsions:
REMARK  status: ('A' for Active; 'I' for Inactive)
REMARK    1  A    between atoms: C_8  and  C_9 
REMARK    2  A    between atoms: C_12  and  C_13 
REMARK    3  A    between atoms: C_24  and  N_25 
ROOT
HETATM    1  C   UNL     1      25.859  48.775  49.146  1.00  0.00     0.073 C 
HETATM    2  C   UNL     1      24.430  48.388  49.232  1.00  0.00     0.062 A 
HETATM    3  N   UNL     1      23.496  49.300  49.552  1.00  0.00    -0.177 NA
HETATM    4  N   UNL     1      22.338  48.608  49.549  1.00  0.00    -0.256 N 
HETATM    5  H   UNL     1      21.475  49.096  49.758  1.00  0.00     0.191 HD
HETATM    6  C   UNL     1      22.510  47.299  49.232  1.00  0.00     0.175 A 
HETATM    7  C   UNL     1      23.854  47.113  49.029  1.00  0.00     0.034 A 
HETATM    8  C   UNL     1      24.374  45.764  48.663  1.00  0.00     0.104 A 
HETATM    9  C   UNL     1      23.209  44.813  48.406  1.00  0.00     0.067 A 
HETATM   10  C   UNL     1      23.537  43.514  47.688  1.00  0.00     0.020 C 
HETATM   11  N   UNL     1      23.808  42.435  47.092  1.00  0.00    -0.096 N 
HETATM   12  C   UNL     1      21.908  45.139  48.636  1.00  0.00     0.139 A 
HETATM   13  O   UNL     1      21.537  46.402  49.136  1.00  0.00    -0.279 OA
ENDROOT
BRANCH   8  14
HETATM   14  C   UNL     1      25.261  45.340  49.826  1.00  0.00    -0.044 A 
HETATM   15  C   UNL     1      24.832  45.412  51.162  1.00  0.00     0.009 A 
HETATM   16  C   UNL     1      25.696  45.087  52.213  1.00  0.00     0.013 A 
HETATM   17  C   UNL     1      27.009  44.660  51.971  1.00  0.00    -0.026 A 
HETATM   18  C   UNL     1      27.419  44.545  50.632  1.00  0.00     0.013 A 
HETATM   19  C   UNL     1      26.561  44.878  49.576  1.00  0.00     0.009 A 
BRANCH  17  20
HETATM   20  C   UNL     1      27.932  44.369  53.085  1.00  0.00    -0.026 A 
HETATM   21  C   UNL     1      27.942  45.156  54.250  1.00  0.00     0.012 A 
HETATM   22  C   UNL     1      28.836  44.896  55.292  1.00  0.00     0.001 A 
HETATM   23  C   UNL     1      29.737  43.840  55.192  1.00  0.00     0.000 A 
HETATM   24  C   UNL     1      29.743  43.044  54.050  1.00  0.00     0.001 A 
HETATM   25  C   UNL     1      28.851  43.308  53.008  1.00  0.00     0.012 A 
ENDBRANCH  17  20
ENDBRANCH   8  14
BRANCH  12  26
HETATM   26  N   UNL     1      20.826  44.324  48.392  1.00  0.00    -0.282 NA
HETATM   27  H   UNL     1      20.063  44.392  49.062  1.00  0.00     0.126 HD
HETATM   28  H   UNL     1      20.512  44.383  47.427  1.00  0.00     0.126 HD
ENDBRANCH  12  26
TORSDOF 3
ENDMDL
MODEL 5
REMARK VINA RESULT:      -8.2     11.599     12.918
REMARK  3 active torsions:
REMARK  status: ('A' for Active; 'I' for Inactive)
REMARK    1  A    between atoms: C_8  and  C_9 
REMARK    2  A    between atoms: C_12  and  C_13 
REMARK    3  A    between atoms: C_24  and  N_25 
ROOT
HETATM    1  C   UNL     1      30.021  53.321  39.624  1.00  0.00     0.073 C 
HETATM    2  C   UNL     1      29.034  52.523  40.391  1.00  0.00     0.062 A 
HETATM    3  N   UNL     1      27.997  53.125  40.997  1.00  0.00    -0.177 NA
HETATM    4  N   UNL     1      27.330  52.118  41.597  1.00  0.00    -0.256 N 
HETATM    5  H   UNL     1      26.488  52.330  42.120  1.00  0.00     0.191 HD
HETATM    6  C   UNL     1      27.906  50.907  41.384  1.00  0.00     0.175 A 
HETATM    7  C   UNL     1      29.020  51.127  40.616  1.00  0.00     0.034 A 
HETATM    8  C   UNL     1      29.883  49.981  40.206  1.00  0.00     0.104 A 
HETATM    9  C   UNL     1      29.225  48.667  40.613  1.00  0.00     0.067 A 
HETATM   10  C   UNL     1      29.776  47.403  39.974  1.00  0.00     0.020 C 
HETATM   11  N   UNL     1      30.234  46.353  39.444  1.00  0.00    -0.096 N 
HETATM   12  C   UNL     1      28.097  48.594  41.372  1.00  0.00     0.139 A 
HETATM   13  O   UNL     1      27.443  49.750  41.842  1.00  0.00    -0.279 OA
ENDROOT
BRANCH   8  14
HETATM   14  C   UNL     1      31.227  50.223  40.878  1.00  0.00    -0.044 A 
HETATM   15  C   UNL     1      31.378  50.228  42.275  1.00  0.00     0.009 A 
HETATM   16  C   UNL     1      32.611  50.527  42.865  1.00  0.00     0.013 A 
HETATM   17  C   UNL     1      33.740  50.814  42.085  1.00  0.00    -0.026 A 
HETATM   18  C   UNL     1      33.596  50.763  40.689  1.00  0.00     0.013 A 
HETATM   19  C   UNL     1      32.362  50.473  40.093  1.00  0.00     0.009 A 
BRANCH  17  20
HETATM   20  C   UNL     1      35.024  51.182  42.713  1.00  0.00    -0.026 A 
HETATM   21  C   UNL     1      35.088  52.143  43.736  1.00  0.00     0.012 A 
HETATM   22  C   UNL     1      36.309  52.510  44.310  1.00  0.00     0.001 A 
HETATM   23  C   UNL     1      37.491  51.918  43.874  1.00  0.00     0.000 A 
HETATM   24  C   UNL     1      37.452  50.960  42.865  1.00  0.00     0.001 A 
HETATM   25  C   UNL     1      36.231  50.597  42.291  1.00  0.00     0.012 A 
ENDBRANCH  17  20
ENDBRANCH   8  14
BRANCH  12  26
HETATM   26  N   UNL     1      27.454  47.434  41.737  1.00  0.00    -0.282 NA
HETATM   27  H   UNL     1      27.411  47.251  42.737  1.00  0.00     0.126 HD
HETATM   28  H   UNL     1      26.554  47.332  41.276  1.00  0.00     0.126 HD
ENDBRANCH  12  26
TORSDOF 3
ENDMDL
MODEL 6
REMARK VINA RESULT:      -8.0     11.841     14.326
REMARK  3 active torsions:
REMARK  status: ('A' for Active; 'I' for Inactive)
REMARK    1  A    between atoms: C_8  and  C_9 
REMARK    2  A    between atoms: C_12  and  C_13 
REMARK    3  A    between atoms: C_24  and  N_25 
ROOT
HETATM    1  C   UNL     1      31.183  48.072  42.620  1.00  0.00     0.073 C 
HETATM    2  C   UNL     1      31.053  48.261  41.155  1.00  0.00     0.062 A 
HETATM    3  N   UNL     1      31.055  47.201  40.329  1.00  0.00    -0.177 NA
HETATM    4  N   UNL     1      30.936  47.737  39.097  1.00  0.00    -0.256 N 
HETATM    5  H   UNL     1      30.906  47.118  38.294  1.00  0.00     0.191 HD
HETATM    6  C   UNL     1      30.851  49.091  39.120  1.00  0.00     0.175 A 
HETATM    7  C   UNL     1      30.934  49.472  40.434  1.00  0.00     0.034 A 
HETATM    8  C   UNL     1      30.874  50.917  40.799  1.00  0.00     0.104 A 
HETATM    9  C   UNL     1      30.543  51.749  39.563  1.00  0.00     0.067 A 
HETATM   10  C   UNL     1      30.098  53.181  39.805  1.00  0.00     0.020 C 
HETATM   11  N   UNL     1      29.727  54.371  40.007  1.00  0.00    -0.096 N 
HETATM   12  C   UNL     1      30.475  51.232  38.305  1.00  0.00     0.139 A 
HETATM   13  O   UNL     1      30.706  49.866  38.051  1.00  0.00    -0.279 OA
ENDROOT
BRANCH   8  14
HETATM   14  C   UNL     1      32.232  51.242  41.406  1.00  0.00    -0.044 A 
HETATM   15  C   UNL     1      33.406  51.292  40.636  1.00  0.00     0.009 A 
HETATM   16  C   UNL     1      34.650  51.519  41.234  1.00  0.00     0.013 A 
HETATM   17  C   UNL     1      34.766  51.722  42.616  1.00  0.00    -0.026 A 
HETATM   18  C   UNL     1      33.585  51.717  43.376  1.00  0.00     0.013 A 
HETATM   19  C   UNL     1      32.338  51.481  42.784  1.00  0.00     0.009 A 
BRANCH  17  20
HETATM   20  C   UNL     1      36.087  51.907  43.249  1.00  0.00    -0.026 A 
HETATM   21  C   UNL     1      37.177  51.082  42.919  1.00  0.00     0.012 A 
HETATM   22  C   UNL     1      38.419  51.242  43.540  1.00  0.00     0.001 A 
HETATM   23  C   UNL     1      38.597  52.233  44.501  1.00  0.00     0.000 A 
HETATM   24  C   UNL     1      37.534  53.065  44.841  1.00  0.00     0.001 A 
HETATM   25  C   UNL     1      36.292  52.902  44.221  1.00  0.00     0.012 A 
ENDBRANCH  17  20
ENDBRANCH   8  14
BRANCH  12  26
HETATM   26  N   UNL     1      30.153  51.937  37.169  1.00  0.00    -0.282 NA
HETATM   27  H   UNL     1      29.226  52.357  37.159  1.00  0.00     0.126 HD
HETATM   28  H   UNL     1      30.887  52.587  36.900  1.00  0.00     0.126 HD
ENDBRANCH  12  26
TORSDOF 3
ENDMDL
MODEL 7
REMARK VINA RESULT:      -7.7      5.810     10.475
REMARK  3 active torsions:
REMARK  status: ('A' for Active; 'I' for Inactive)
REMARK    1  A    between atoms: C_8  and  C_9 
REMARK    2  A    between atoms: C_12  and  C_13 
REMARK    3  A    between atoms: C_24  and  N_25 
ROOT
HETATM    1  C   UNL     1      20.189  45.950  46.608  1.00  0.00     0.073 C 
HETATM    2  C   UNL     1      21.148  45.692  47.709  1.00  0.00     0.062 A 
HETATM    3  N   UNL     1      21.158  44.505  48.339  1.00  0.00    -0.177 NA
HETATM    4  N   UNL     1      22.126  44.629  49.270  1.00  0.00    -0.256 N 
HETATM    5  H   UNL     1      22.327  43.841  49.876  1.00  0.00     0.191 HD
HETATM    6  C   UNL     1      22.728  45.845  49.243  1.00  0.00     0.175 A 
HETATM    7  C   UNL     1      22.116  46.569  48.252  1.00  0.00     0.034 A 
HETATM    8  C   UNL     1      22.554  47.966  47.968  1.00  0.00     0.104 A 
HETATM    9  C   UNL     1      23.800  48.293  48.785  1.00  0.00     0.067 A 
HETATM   10  C   UNL     1      24.583  49.528  48.368  1.00  0.00     0.020 C 
HETATM   11  N   UNL     1      25.233  50.552  48.022  1.00  0.00    -0.096 N 
HETATM   12  C   UNL     1      24.315  47.465  49.735  1.00  0.00     0.139 A 
HETATM   13  O   UNL     1      23.724  46.223  50.035  1.00  0.00    -0.279 OA
ENDROOT
BRANCH   8  14
HETATM   14  C   UNL     1      21.357  48.844  48.305  1.00  0.00    -0.044 A 
HETATM   15  C   UNL     1      20.527  48.591  49.410  1.00  0.00     0.009 A 
HETATM   16  C   UNL     1      19.391  49.371  49.651  1.00  0.00     0.013 A 
HETATM   17  C   UNL     1      19.052  50.442  48.811  1.00  0.00    -0.026 A 
HETATM   18  C   UNL     1      19.910  50.721  47.735  1.00  0.00     0.013 A 
HETATM   19  C   UNL     1      21.043  49.937  47.484  1.00  0.00     0.009 A 
BRANCH  17  20
HETATM   20  C   UNL     1      17.824  51.227  49.039  1.00  0.00    -0.026 A 
HETATM   21  C   UNL     1      16.584  50.809  48.525  1.00  0.00     0.012 A 
HETATM   22  C   UNL     1      15.427  51.569  48.719  1.00  0.00     0.001 A 
HETATM   23  C   UNL     1      15.486  52.761  49.435  1.00  0.00     0.000 A 
HETATM   24  C   UNL     1      16.702  53.194  49.958  1.00  0.00     0.001 A 
HETATM   25  C   UNL     1      17.858  52.434  49.760  1.00  0.00     0.012 A 
ENDBRANCH  17  20
ENDBRANCH   8  14
BRANCH  12  26
HETATM   26  N   UNL     1      25.451  47.706  50.474  1.00  0.00    -0.282 NA
HETATM   27  H   UNL     1      25.306  47.841  51.471  1.00  0.00     0.126 HD
HETATM   28  H   UNL     1      26.192  47.042  50.265  1.00  0.00     0.126 HD
ENDBRANCH  12  26
TORSDOF 3
ENDMDL
MODEL 8
REMARK VINA RESULT:      -7.6     16.988     19.503
REMARK  3 active torsions:
REMARK  status: ('A' for Active; 'I' for Inactive)
REMARK    1  A    between atoms: C_8  and  C_9 
REMARK    2  A    between atoms: C_12  and  C_13 
REMARK    3  A    between atoms: C_24  and  N_25 
ROOT
HETATM    1  C   UNL     1      41.743  47.217  66.437  1.00  0.00     0.073 C 
HETATM    2  C   UNL     1      40.967  46.487  65.405  1.00  0.00     0.062 A 
HETATM    3  N   UNL     1      41.525  46.186  64.221  1.00  0.00    -0.177 NA
HETATM    4  N   UNL     1      40.548  45.549  63.543  1.00  0.00    -0.256 N 
HETATM    5  H   UNL     1      40.741  45.212  62.606  1.00  0.00     0.191 HD
HETATM    6  C   UNL     1      39.402  45.432  64.261  1.00  0.00     0.175 A 
HETATM    7  C   UNL     1      39.628  46.038  65.471  1.00  0.00     0.034 A 
HETATM    8  C   UNL     1      38.547  46.081  66.497  1.00  0.00     0.104 A 
HETATM    9  C   UNL     1      37.361  45.240  66.036  1.00  0.00     0.067 A 
HETATM   10  C   UNL     1      36.327  44.883  67.092  1.00  0.00     0.020 C 
HETATM   11  N   UNL     1      35.470  44.586  67.968  1.00  0.00    -0.096 N 
HETATM   12  C   UNL     1      37.275  44.676  64.800  1.00  0.00     0.139 A 
HETATM   13  O   UNL     1      38.295  44.831  63.841  1.00  0.00    -0.279 OA
ENDROOT
BRANCH   8  14
HETATM   14  C   UNL     1      38.214  47.556  66.677  1.00  0.00    -0.044 A 
HETATM   15  C   UNL     1      37.939  48.401  65.589  1.00  0.00     0.009 A 
HETATM   16  C   UNL     1      37.710  49.768  65.779  1.00  0.00     0.013 A 
HETATM   17  C   UNL     1      37.729  50.338  67.060  1.00  0.00    -0.026 A 
HETATM   18  C   UNL     1      37.959  49.481  68.149  1.00  0.00     0.013 A 
HETATM   19  C   UNL     1      38.197  48.113  67.963  1.00  0.00     0.009 A 
BRANCH  17  20
HETATM   20  C   UNL     1      37.541  51.789  67.250  1.00  0.00    -0.026 A 
HETATM   21  C   UNL     1      37.846  52.705  66.228  1.00  0.00     0.012 A 
HETATM   22  C   UNL     1      37.693  54.081  66.420  1.00  0.00     0.001 A 
HETATM   23  C   UNL     1      37.226  54.568  67.637  1.00  0.00     0.000 A 
HETATM   24  C   UNL     1      36.913  53.681  68.662  1.00  0.00     0.001 A 
HETATM   25  C   UNL     1      37.070  52.305  68.469  1.00  0.00     0.012 A 
ENDBRANCH  17  20
ENDBRANCH   8  14
BRANCH  12  26
HETATM   26  N   UNL     1      36.240  43.888  64.352  1.00  0.00    -0.282 NA
HETATM   27  H   UNL     1      35.334  44.345  64.288  1.00  0.00     0.126 HD
HETATM   28  H   UNL     1      36.486  43.374  63.510  1.00  0.00     0.126 HD
ENDBRANCH  12  26
TORSDOF 3
ENDMDL
MODEL 9
REMARK VINA RESULT:      -7.6     11.420     12.395
REMARK  3 active torsions:
REMARK  status: ('A' for Active; 'I' for Inactive)
REMARK    1  A    between atoms: C_8  and  C_9 
REMARK    2  A    between atoms: C_12  and  C_13 
REMARK    3  A    between atoms: C_24  and  N_25 
ROOT
HETATM    1  C   UNL     1      27.238  50.577  38.336  1.00  0.00     0.073 C 
HETATM    2  C   UNL     1      26.462  49.501  38.998  1.00  0.00     0.062 A 
HETATM    3  N   UNL     1      25.212  49.732  39.432  1.00  0.00    -0.177 NA
HETATM    4  N   UNL     1      24.827  48.561  39.982  1.00  0.00    -0.256 N 
HETATM    5  H   UNL     1      23.896  48.488  40.377  1.00  0.00     0.191 HD
HETATM    6  C   UNL     1      25.786  47.604  39.902  1.00  0.00     0.175 A 
HETATM    7  C   UNL     1      26.867  48.175  39.281  1.00  0.00     0.034 A 
HETATM    8  C   UNL     1      28.101  47.373  39.043  1.00  0.00     0.104 A 
HETATM    9  C   UNL     1      27.851  45.915  39.416  1.00  0.00     0.067 A 
HETATM   10  C   UNL     1      28.865  44.900  38.914  1.00  0.00     0.020 C 
HETATM   11  N   UNL     1      29.706  44.057  38.497  1.00  0.00    -0.096 N 
HETATM   12  C   UNL     1      26.711  45.479  40.019  1.00  0.00     0.139 A 
HETATM   13  O   UNL     1      25.661  46.358  40.345  1.00  0.00    -0.279 OA
ENDROOT
BRANCH   8  14
HETATM   14  C   UNL     1      29.187  48.038  39.878  1.00  0.00    -0.044 A 
HETATM   15  C   UNL     1      29.115  48.114  41.279  1.00  0.00     0.009 A 
HETATM   16  C   UNL     1      30.090  48.797  42.014  1.00  0.00     0.013 A 
HETATM   17  C   UNL     1      31.181  49.411  41.381  1.00  0.00    -0.026 A 
HETATM   18  C   UNL     1      31.273  49.293  39.984  1.00  0.00     0.013 A 
HETATM   19  C   UNL     1      30.295  48.619  39.243  1.00  0.00     0.009 A 
BRANCH  17  20
HETATM   20  C   UNL     1      32.177  50.176  42.155  1.00  0.00    -0.026 A 
HETATM   21  C   UNL     1      31.818  50.870  43.324  1.00  0.00     0.012 A 
HETATM   22  C   UNL     1      32.759  51.616  44.041  1.00  0.00     0.001 A 
HETATM   23  C   UNL     1      34.079  51.679  43.605  1.00  0.00     0.000 A 
HETATM   24  C   UNL     1      34.459  50.997  42.452  1.00  0.00     0.001 A 
HETATM   25  C   UNL     1      33.517  50.254  41.736  1.00  0.00     0.012 A 
ENDBRANCH  17  20
ENDBRANCH   8  14
BRANCH  12  26
HETATM   26  N   UNL     1      26.432  44.172  40.346  1.00  0.00    -0.282 NA
HETATM   27  H   UNL     1      25.452  43.963  40.524  1.00  0.00     0.126 HD
HETATM   28  H   UNL     1      26.868  43.514  39.706  1.00  0.00     0.126 HD
ENDBRANCH  12  26
TORSDOF 3
ENDMDL
MODEL 10
REMARK VINA RESULT:      -7.6      8.140     12.473
REMARK  3 active torsions:
REMARK  status: ('A' for Active; 'I' for Inactive)
REMARK    1  A    between atoms: C_8  and  C_9 
REMARK    2  A    between atoms: C_12  and  C_13 
REMARK    3  A    between atoms: C_24  and  N_25 
ROOT
HETATM    1  C   UNL     1      17.197  47.377  44.187  1.00  0.00     0.073 C 
HETATM    2  C   UNL     1      17.406  46.344  45.230  1.00  0.00     0.062 A 
HETATM    3  N   UNL     1      16.733  45.182  45.181  1.00  0.00    -0.177 NA
HETATM    4  N   UNL     1      17.153  44.506  46.270  1.00  0.00    -0.256 N 
HETATM    5  H   UNL     1      16.783  43.578  46.445  1.00  0.00     0.191 HD
HETATM    6  C   UNL     1      18.068  45.198  46.996  1.00  0.00     0.175 A 
HETATM    7  C   UNL     1      18.253  46.399  46.361  1.00  0.00     0.034 A 
HETATM    8  C   UNL     1      19.209  47.400  46.919  1.00  0.00     0.104 A 
HETATM    9  C   UNL     1      19.978  46.786  48.084  1.00  0.00     0.067 A 
HETATM   10  C   UNL     1      21.225  47.524  48.541  1.00  0.00     0.020 C 
HETATM   11  N   UNL     1      22.261  48.137  48.920  1.00  0.00    -0.096 N 
HETATM   12  C   UNL     1      19.698  45.561  48.608  1.00  0.00     0.139 A 
HETATM   13  O   UNL     1      18.659  44.757  48.100  1.00  0.00    -0.279 OA
ENDROOT
BRANCH   8  14
HETATM   14  C   UNL     1      18.358  48.599  47.314  1.00  0.00    -0.044 A 
HETATM   15  C   UNL     1      17.286  48.495  48.216  1.00  0.00     0.009 A 
HETATM   16  C   UNL     1      16.477  49.599  48.502  1.00  0.00     0.013 A 
HETATM   17  C   UNL     1      16.718  50.850  47.916  1.00  0.00    -0.026 A 
HETATM   18  C   UNL     1      17.819  50.961  47.051  1.00  0.00     0.013 A 
HETATM   19  C   UNL     1      18.627  49.856  46.754  1.00  0.00     0.009 A 
BRANCH  17  20
HETATM   20  C   UNL     1      15.829  51.998  48.180  1.00  0.00    -0.026 A 
HETATM   21  C   UNL     1      15.508  52.386  49.493  1.00  0.00     0.012 A 
HETATM   22  C   UNL     1      14.643  53.457  49.740  1.00  0.00     0.001 A 
HETATM   23  C   UNL     1      14.086  54.163  48.678  1.00  0.00     0.000 A 
HETATM   24  C   UNL     1      14.393  53.801  47.369  1.00  0.00     0.001 A 
HETATM   25  C   UNL     1      15.255  52.728  47.125  1.00  0.00     0.012 A 
ENDBRANCH  17  20
ENDBRANCH   8  14
BRANCH  12  26
HETATM   26  N   UNL     1      20.383  44.957  49.638  1.00  0.00    -0.282 NA
HETATM   27  H   UNL     1      20.021  44.056  49.938  1.00  0.00     0.126 HD
HETATM   28  H   UNL     1      21.387  44.949  49.477  1.00  0.00     0.126 HD
ENDBRANCH  12  26
TORSDOF 3
ENDMDL
