MODEL 1
REMARK VINA RESULT:      -8.6      0.000      0.000
REMARK  4 active torsions:
REMARK  status: ('A' for Active; 'I' for Inactive)
REMARK    1  A    between atoms: C_5  and  C_6 
REMARK    2  A    between atoms: C_6  and  N_7 
REMARK    3  A    between atoms: C_6  and  C_18 
REMARK    4  A    between atoms: N_7  and  C_8 
ROOT
HETATM    1  C   UNL     1      25.900  46.182  51.103  1.00  0.00     0.290 C 
ENDROOT
BRANCH   1   2
HETATM    2  C   UNL     1      25.914  47.423  50.221  1.00  0.00     0.021 A 
HETATM    3  C   UNL     1      27.090  48.117  49.887  1.00  0.00     0.055 A 
HETATM    4  C   UNL     1      27.041  49.236  49.056  1.00  0.00     0.117 A 
HETATM    5  C   UNL     1      25.837  49.697  48.539  1.00  0.00     0.045 A 
HETATM    6  F   UNL     1      28.180  49.869  48.751  1.00  0.00    -0.206 F 
HETATM    7  C   UNL     1      24.661  49.021  48.852  1.00  0.00     0.046 A 
HETATM    8  C   UNL     1      24.709  47.897  49.678  1.00  0.00     0.125 A 
HETATM    9  F   UNL     1      23.562  47.254  49.938  1.00  0.00    -0.205 F 
ENDBRANCH   1   2
BRANCH   1  10
HETATM   10  N   UNL     1      25.342  46.449  52.456  1.00  0.00     0.101 NA
HETATM   11  H   UNL     1      24.437  45.972  52.484  1.00  0.00     0.317 HD
BRANCH  10  12
HETATM   12  C   UNL     1      26.122  46.112  53.651  1.00  0.00     0.225 C 
HETATM   13  C   UNL     1      27.226  45.060  53.407  1.00  0.00     0.069 C 
HETATM   14  C   UNL     1      28.062  44.882  54.661  1.00  0.00     0.190 C 
HETATM   15  N   UNL     1      28.686  46.205  55.009  1.00  0.00    -0.067 N 
HETATM   16  C   UNL     1      29.285  43.994  54.555  1.00  0.00     0.035 C 
HETATM   17  H   UNL     1      29.181  46.548  54.172  1.00  0.00     0.280 HD
HETATM   18  C   UNL     1      27.665  47.231  55.372  1.00  0.00     0.237 C 
HETATM   19  C   UNL     1      29.753  45.893  56.025  1.00  0.00     0.235 C 
HETATM   20  C   UNL     1      26.748  47.433  54.168  1.00  0.00     0.063 C 
HETATM   21  C   UNL     1      30.123  44.434  55.753  1.00  0.00     0.030 C 
ENDBRANCH  10  12
ENDBRANCH   1  10
BRANCH   1  22
HETATM   22  C   UNL     1      25.427  44.858  50.498  1.00  0.00    -0.018 A 
HETATM   23  C   UNL     1      26.162  44.122  49.561  1.00  0.00     0.029 A 
HETATM   24  C   UNL     1      25.644  42.926  49.082  1.00  0.00     0.116 A 
HETATM   25  N   UNL     1      24.467  42.403  49.480  1.00  0.00    -0.273 NA
HETATM   26  C   UNL     1      23.799  43.076  50.435  1.00  0.00     0.116 A 
HETATM   27  C   UNL     1      24.234  44.280  50.967  1.00  0.00     0.029 A 
ENDBRANCH   1  22
TORSDOF 4
ENDMDL
MODEL 2
REMARK VINA RESULT:      -8.5      4.027      7.473
REMARK  4 active torsions:
REMARK  status: ('A' for Active; 'I' for Inactive)
REMARK    1  A    between atoms: C_5  and  C_6 
REMARK    2  A    between atoms: C_6  and  N_7 
REMARK    3  A    between atoms: C_6  and  C_18 
REMARK    4  A    between atoms: N_7  and  C_8 
ROOT
HETATM    1  C   UNL     1      28.983  44.671  54.300  1.00  0.00     0.290 C 
ENDROOT
BRANCH   1   2
HETATM    2  C   UNL     1      29.761  44.632  55.608  1.00  0.00     0.021 A 
HETATM    3  C   UNL     1      30.692  43.626  55.920  1.00  0.00     0.055 A 
HETATM    4  C   UNL     1      31.391  43.656  57.127  1.00  0.00     0.117 A 
HETATM    5  C   UNL     1      31.188  44.673  58.051  1.00  0.00     0.045 A 
HETATM    6  F   UNL     1      32.276  42.688  57.390  1.00  0.00    -0.206 F 
HETATM    7  C   UNL     1      30.275  45.682  57.760  1.00  0.00     0.046 A 
HETATM    8  C   UNL     1      29.580  45.658  56.550  1.00  0.00     0.125 A 
HETATM    9  F   UNL     1      28.728  46.659  56.289  1.00  0.00    -0.205 F 
ENDBRANCH   1   2
BRANCH   1  10
HETATM   10  N   UNL     1      29.536  43.741  53.279  1.00  0.00     0.101 NA
HETATM   11  H   UNL     1      30.336  43.282  53.722  1.00  0.00     0.317 HD
BRANCH  10  12
HETATM   12  C   UNL     1      28.667  42.738  52.654  1.00  0.00     0.225 C 
HETATM   13  C   UNL     1      28.192  43.113  51.233  1.00  0.00     0.069 C 
HETATM   14  C   UNL     1      27.419  41.960  50.621  1.00  0.00     0.190 C 
HETATM   15  N   UNL     1      28.324  40.761  50.557  1.00  0.00    -0.067 N 
HETATM   16  C   UNL     1      27.004  42.098  49.171  1.00  0.00     0.035 C 
HETATM   17  H   UNL     1      29.186  41.045  50.068  1.00  0.00     0.280 HD
HETATM   18  C   UNL     1      28.720  40.280  51.913  1.00  0.00     0.237 C 
HETATM   19  C   UNL     1      27.634  39.782  49.644  1.00  0.00     0.235 C 
HETATM   20  C   UNL     1      29.467  41.411  52.616  1.00  0.00     0.063 C 
HETATM   21  C   UNL     1      26.740  40.652  48.758  1.00  0.00     0.030 C 
ENDBRANCH  10  12
ENDBRANCH   1  10
BRANCH   1  22
HETATM   22  C   UNL     1      27.454  44.677  54.357  1.00  0.00    -0.018 A 
HETATM   23  C   UNL     1      26.696  43.733  55.061  1.00  0.00     0.029 A 
HETATM   24  C   UNL     1      25.311  43.835  55.055  1.00  0.00     0.116 A 
HETATM   25  N   UNL     1      24.632  44.813  54.422  1.00  0.00    -0.273 NA
HETATM   26  C   UNL     1      25.366  45.760  53.809  1.00  0.00     0.116 A 
HETATM   27  C   UNL     1      26.751  45.737  53.757  1.00  0.00     0.029 A 
ENDBRANCH   1  22
TORSDOF 4
ENDMDL
MODEL 3
REMARK VINA RESULT:      -8.3      3.185      5.423
REMARK  4 active torsions:
REMARK  status: ('A' for Active; 'I' for Inactive)
REMARK    1  A    between atoms: C_5  and  C_6 
REMARK    2  A    between atoms: C_6  and  N_7 
REMARK    3  A    between atoms: C_6  and  C_18 
REMARK    4  A    between atoms: N_7  and  C_8 
ROOT
HETATM    1  C   UNL     1      27.284  43.195  52.002  1.00  0.00     0.290 C 
ENDROOT
BRANCH   1   2
HETATM    2  C   UNL     1      27.232  41.885  51.226  1.00  0.00     0.021 A 
HETATM    3  C   UNL     1      28.356  41.067  51.019  1.00  0.00     0.055 A 
HETATM    4  C   UNL     1      28.240  39.867  50.318  1.00  0.00     0.117 A 
HETATM    5  C   UNL     1      27.019  39.447  49.806  1.00  0.00     0.045 A 
HETATM    6  F   UNL     1      29.328  39.107  50.146  1.00  0.00    -0.206 F 
HETATM    7  C   UNL     1      25.892  40.240  50.004  1.00  0.00     0.046 A 
HETATM    8  C   UNL     1      26.005  41.437  50.711  1.00  0.00     0.125 A 
HETATM    9  F   UNL     1      24.895  42.163  50.908  1.00  0.00    -0.205 F 
ENDBRANCH   1   2
BRANCH   1  10
HETATM   10  N   UNL     1      28.629  43.462  52.580  1.00  0.00     0.101 NA
HETATM   11  H   UNL     1      28.984  44.288  52.092  1.00  0.00     0.317 HD
BRANCH  10  12
HETATM   12  C   UNL     1      28.784  43.632  54.028  1.00  0.00     0.225 C 
HETATM   13  C   UNL     1      30.182  43.251  54.562  1.00  0.00     0.069 C 
HETATM   14  C   UNL     1      30.287  43.590  56.037  1.00  0.00     0.190 C 
HETATM   15  N   UNL     1      30.063  45.067  56.203  1.00  0.00    -0.067 N 
HETATM   16  C   UNL     1      31.643  43.419  56.690  1.00  0.00     0.035 C 
HETATM   17  H   UNL     1      30.716  45.556  55.572  1.00  0.00     0.280 HD
HETATM   18  C   UNL     1      28.681  45.475  55.814  1.00  0.00     0.237 C 
HETATM   19  C   UNL     1      30.517  45.390  57.602  1.00  0.00     0.235 C 
HETATM   20  C   UNL     1      28.480  45.119  54.342  1.00  0.00     0.063 C 
HETATM   21  C   UNL     1      31.526  44.291  57.938  1.00  0.00     0.030 C 
ENDBRANCH  10  12
ENDBRANCH   1  10
BRANCH   1  22
HETATM   22  C   UNL     1      26.624  44.434  51.393  1.00  0.00    -0.018 A 
HETATM   23  C   UNL     1      25.590  45.149  52.009  1.00  0.00     0.029 A 
HETATM   24  C   UNL     1      25.067  46.267  51.373  1.00  0.00     0.116 A 
HETATM   25  N   UNL     1      25.509  46.734  50.188  1.00  0.00    -0.273 NA
HETATM   26  C   UNL     1      26.553  46.088  49.635  1.00  0.00     0.116 A 
HETATM   27  C   UNL     1      27.135  44.961  50.193  1.00  0.00     0.029 A 
ENDBRANCH   1  22
TORSDOF 4
ENDMDL
MODEL 4
REMARK VINA RESULT:      -8.0      3.541      6.555
REMARK  4 active torsions:
REMARK  status: ('A' for Active; 'I' for Inactive)
REMARK    1  A    between atoms: C_5  and  C_6 
REMARK    2  A    between atoms: C_6  and  N_7 
REMARK    3  A    between atoms: C_6  and  C_18 
REMARK    4  A    between atoms: N_7  and  C_8 
ROOT
HETATM    1  C   UNL     1      27.283  43.210  53.880  1.00  0.00     0.290 C 
ENDROOT
BRANCH   1   2
HETATM    2  C   UNL     1      26.732  44.062  52.745  1.00  0.00     0.021 A 
HETATM    3  C   UNL     1      27.470  44.379  51.591  1.00  0.00     0.055 A 
HETATM    4  C   UNL     1      26.902  45.147  50.575  1.00  0.00     0.117 A 
HETATM    5  C   UNL     1      25.601  45.621  50.672  1.00  0.00     0.045 A 
HETATM    6  F   UNL     1      27.629  45.423  49.486  1.00  0.00    -0.206 F 
HETATM    7  C   UNL     1      24.850  45.314  51.804  1.00  0.00     0.046 A 
HETATM    8  C   UNL     1      25.413  44.540  52.818  1.00  0.00     0.125 A 
HETATM    9  F   UNL     1      24.654  44.241  53.882  1.00  0.00    -0.205 F 
ENDBRANCH   1   2
BRANCH   1  10
HETATM   10  N   UNL     1      27.286  41.758  53.554  1.00  0.00     0.101 NA
HETATM   11  H   UNL     1      26.327  41.436  53.707  1.00  0.00     0.317 HD
BRANCH  10  12
HETATM   12  C   UNL     1      27.764  41.301  52.245  1.00  0.00     0.225 C 
HETATM   13  C   UNL     1      28.765  40.127  52.314  1.00  0.00     0.069 C 
HETATM   14  C   UNL     1      29.093  39.639  50.916  1.00  0.00     0.190 C 
HETATM   15  N   UNL     1      27.818  39.185  50.260  1.00  0.00    -0.067 N 
HETATM   16  C   UNL     1      29.947  38.394  50.801  1.00  0.00     0.035 C 
HETATM   17  H   UNL     1      27.367  38.504  50.890  1.00  0.00     0.280 HD
HETATM   18  C   UNL     1      26.857  40.308  50.058  1.00  0.00     0.237 C 
HETATM   19  C   UNL     1      28.245  38.405  49.044  1.00  0.00     0.235 C 
HETATM   20  C   UNL     1      26.512  40.888  51.428  1.00  0.00     0.063 C 
HETATM   21  C   UNL     1      29.655  37.916  49.381  1.00  0.00     0.030 C 
ENDBRANCH  10  12
ENDBRANCH   1  10
BRANCH   1  22
HETATM   22  C   UNL     1      28.552  43.677  54.598  1.00  0.00    -0.018 A 
HETATM   23  C   UNL     1      29.728  42.921  54.676  1.00  0.00     0.029 A 
HETATM   24  C   UNL     1      30.826  43.443  55.345  1.00  0.00     0.116 A 
HETATM   25  N   UNL     1      30.847  44.663  55.919  1.00  0.00    -0.273 NA
HETATM   26  C   UNL     1      29.740  45.416  55.778  1.00  0.00     0.116 A 
HETATM   27  C   UNL     1      28.595  44.976  55.134  1.00  0.00     0.029 A 
ENDBRANCH   1  22
TORSDOF 4
ENDMDL
MODEL 5
REMARK VINA RESULT:      -7.9      1.861      2.648
REMARK  4 active torsions:
REMARK  status: ('A' for Active; 'I' for Inactive)
REMARK    1  A    between atoms: C_5  and  C_6 
REMARK    2  A    between atoms: C_6  and  N_7 
REMARK    3  A    between atoms: C_6  and  C_18 
REMARK    4  A    between atoms: N_7  and  C_8 
ROOT
HETATM    1  C   UNL     1      26.413  43.710  51.474  1.00  0.00     0.290 C 
ENDROOT
BRANCH   1   2
HETATM    2  C   UNL     1      25.804  44.970  50.873  1.00  0.00     0.021 A 
HETATM    3  C   UNL     1      26.526  46.161  50.684  1.00  0.00     0.055 A 
HETATM    4  C   UNL     1      25.919  47.276  50.109  1.00  0.00     0.117 A 
HETATM    5  C   UNL     1      24.589  47.245  49.709  1.00  0.00     0.045 A 
HETATM    6  F   UNL     1      26.637  48.391  49.936  1.00  0.00    -0.206 F 
HETATM    7  C   UNL     1      23.856  46.074  49.882  1.00  0.00     0.046 A 
HETATM    8  C   UNL     1      24.465  44.955  50.451  1.00  0.00     0.125 A 
HETATM    9  F   UNL     1      23.738  43.836  50.578  1.00  0.00    -0.205 F 
ENDBRANCH   1   2
BRANCH   1  10
HETATM   10  N   UNL     1      25.911  43.431  52.846  1.00  0.00     0.101 NA
HETATM   11  H   UNL     1      25.575  42.464  52.829  1.00  0.00     0.317 HD
BRANCH  10  12
HETATM   12  C   UNL     1      26.787  43.636  54.004  1.00  0.00     0.225 C 
HETATM   13  C   UNL     1      28.234  43.138  53.795  1.00  0.00     0.069 C 
HETATM   14  C   UNL     1      29.092  43.516  54.988  1.00  0.00     0.190 C 
HETATM   15  N   UNL     1      29.083  45.014  55.124  1.00  0.00    -0.067 N 
HETATM   16  C   UNL     1      30.577  43.235  54.887  1.00  0.00     0.035 C 
HETATM   17  H   UNL     1      29.359  45.413  54.215  1.00  0.00     0.280 HD
HETATM   18  C   UNL     1      27.725  45.541  55.446  1.00  0.00     0.237 C 
HETATM   19  C   UNL     1      30.202  45.340  56.078  1.00  0.00     0.235 C 
HETATM   20  C   UNL     1      26.784  45.156  54.307  1.00  0.00     0.063 C 
HETATM   21  C   UNL     1      31.166  44.158  55.951  1.00  0.00     0.030 C 
ENDBRANCH  10  12
ENDBRANCH   1  10
BRANCH   1  22
HETATM   22  C   UNL     1      26.524  42.460  50.597  1.00  0.00    -0.018 A 
HETATM   23  C   UNL     1      26.236  41.165  51.045  1.00  0.00     0.029 A 
HETATM   24  C   UNL     1      26.360  40.100  50.164  1.00  0.00     0.116 A 
HETATM   25  N   UNL     1      26.726  40.231  48.872  1.00  0.00    -0.273 NA
HETATM   26  C   UNL     1      26.928  41.485  48.426  1.00  0.00     0.116 A 
HETATM   27  C   UNL     1      26.834  42.607  49.234  1.00  0.00     0.029 A 
ENDBRANCH   1  22
TORSDOF 4
ENDMDL
MODEL 6
REMARK VINA RESULT:      -7.9      2.755      5.101
REMARK  4 active torsions:
REMARK  status: ('A' for Active; 'I' for Inactive)
REMARK    1  A    between atoms: C_5  and  C_6 
REMARK    2  A    between atoms: C_6  and  N_7 
REMARK    3  A    between atoms: C_6  and  C_18 
REMARK    4  A    between atoms: N_7  and  C_8 
ROOT
HETATM    1  C   UNL     1      25.586  43.313  51.572  1.00  0.00     0.290 C 
ENDROOT
BRANCH   1   2
HETATM    2  C   UNL     1      25.762  42.171  50.581  1.00  0.00     0.021 A 
HETATM    3  C   UNL     1      26.838  41.267  50.630  1.00  0.00     0.055 A 
HETATM    4  C   UNL     1      26.934  40.227  49.707  1.00  0.00     0.117 A 
HETATM    5  C   UNL     1      25.977  40.054  48.716  1.00  0.00     0.045 A 
HETATM    6  F   UNL     1      27.967  39.380  49.787  1.00  0.00    -0.206 F 
HETATM    7  C   UNL     1      24.900  40.934  48.652  1.00  0.00     0.046 A 
HETATM    8  C   UNL     1      24.799  41.971  49.579  1.00  0.00     0.125 A 
HETATM    9  F   UNL     1      23.735  42.783  49.506  1.00  0.00    -0.205 F 
ENDBRANCH   1   2
BRANCH   1  10
HETATM   10  N   UNL     1      26.203  43.022  52.894  1.00  0.00     0.101 NA
HETATM   11  H   UNL     1      26.286  42.004  52.946  1.00  0.00     0.317 HD
BRANCH  10  12
HETATM   12  C   UNL     1      27.478  43.647  53.261  1.00  0.00     0.225 C 
HETATM   13  C   UNL     1      27.389  44.592  54.480  1.00  0.00     0.069 C 
HETATM   14  C   UNL     1      28.774  45.078  54.864  1.00  0.00     0.190 C 
HETATM   15  N   UNL     1      29.619  43.883  55.207  1.00  0.00    -0.067 N 
HETATM   16  C   UNL     1      28.891  45.899  56.132  1.00  0.00     0.035 C 
HETATM   17  H   UNL     1      29.112  43.333  55.917  1.00  0.00     0.280 HD
HETATM   18  C   UNL     1      29.839  42.992  54.030  1.00  0.00     0.237 C 
HETATM   19  C   UNL     1      30.837  44.434  55.901  1.00  0.00     0.235 C 
HETATM   20  C   UNL     1      28.476  42.496  53.550  1.00  0.00     0.063 C 
HETATM   21  C   UNL     1      30.373  45.772  56.478  1.00  0.00     0.030 C 
ENDBRANCH  10  12
ENDBRANCH   1  10
BRANCH   1  22
HETATM   22  C   UNL     1      25.823  44.746  51.089  1.00  0.00    -0.018 A 
HETATM   23  C   UNL     1      26.712  45.085  50.062  1.00  0.00     0.029 A 
HETATM   24  C   UNL     1      26.846  46.417  49.694  1.00  0.00     0.116 A 
HETATM   25  N   UNL     1      26.149  47.426  50.255  1.00  0.00    -0.273 NA
HETATM   26  C   UNL     1      25.242  47.087  51.190  1.00  0.00     0.116 A 
HETATM   27  C   UNL     1      25.044  45.786  51.625  1.00  0.00     0.029 A 
ENDBRANCH   1  22
TORSDOF 4
ENDMDL
MODEL 7
REMARK VINA RESULT:      -7.9     11.200     12.563
REMARK  4 active torsions:
REMARK  status: ('A' for Active; 'I' for Inactive)
REMARK    1  A    between atoms: C_5  and  C_6 
REMARK    2  A    between atoms: C_6  and  N_7 
REMARK    3  A    between atoms: C_6  and  C_18 
REMARK    4  A    between atoms: N_7  and  C_8 
ROOT
HETATM    1  C   UNL     1      30.386  49.221  40.978  1.00  0.00     0.290 C 
ENDROOT
BRANCH   1   2
HETATM    2  C   UNL     1      29.757  50.520  40.491  1.00  0.00     0.021 A 
HETATM    3  C   UNL     1      28.891  51.299  41.278  1.00  0.00     0.055 A 
HETATM    4  C   UNL     1      28.364  52.491  40.785  1.00  0.00     0.117 A 
HETATM    5  C   UNL     1      28.674  52.942  39.508  1.00  0.00     0.045 A 
HETATM    6  F   UNL     1      27.549  53.213  41.563  1.00  0.00    -0.206 F 
HETATM    7  C   UNL     1      29.534  52.189  38.713  1.00  0.00     0.046 A 
HETATM    8  C   UNL     1      30.068  50.999  39.209  1.00  0.00     0.125 A 
HETATM    9  F   UNL     1      30.914  50.312  38.428  1.00  0.00    -0.205 F 
ENDBRANCH   1   2
BRANCH   1  10
HETATM   10  N   UNL     1      30.820  49.294  42.399  1.00  0.00     0.101 NA
HETATM   11  H   UNL     1      30.582  48.388  42.811  1.00  0.00     0.317 HD
BRANCH  10  12
HETATM   12  C   UNL     1      32.206  49.643  42.725  1.00  0.00     0.225 C 
HETATM   13  C   UNL     1      33.163  49.625  41.512  1.00  0.00     0.069 C 
HETATM   14  C   UNL     1      34.533  50.130  41.922  1.00  0.00     0.190 C 
HETATM   15  N   UNL     1      34.389  51.535  42.436  1.00  0.00    -0.067 N 
HETATM   16  C   UNL     1      35.557  50.319  40.822  1.00  0.00     0.035 C 
HETATM   17  H   UNL     1      33.894  52.083  41.716  1.00  0.00     0.280 HD
HETATM   18  C   UNL     1      33.569  51.598  43.681  1.00  0.00     0.237 C 
HETATM   19  C   UNL     1      35.787  52.091  42.493  1.00  0.00     0.235 C 
HETATM   20  C   UNL     1      32.177  51.057  43.360  1.00  0.00     0.063 C 
HETATM   21  C   UNL     1      36.565  51.272  41.462  1.00  0.00     0.030 C 
ENDBRANCH  10  12
ENDBRANCH   1  10
BRANCH   1  22
HETATM   22  C   UNL     1      29.708  47.898  40.614  1.00  0.00    -0.018 A 
HETATM   23  C   UNL     1      28.422  47.537  41.035  1.00  0.00     0.029 A 
HETATM   24  C   UNL     1      27.897  46.315  40.639  1.00  0.00     0.116 A 
HETATM   25  N   UNL     1      28.545  45.440  39.843  1.00  0.00    -0.273 NA
HETATM   26  C   UNL     1      29.750  45.822  39.380  1.00  0.00     0.116 A 
HETATM   27  C   UNL     1      30.356  47.020  39.726  1.00  0.00     0.029 A 
ENDBRANCH   1  22
TORSDOF 4
ENDMDL
MODEL 8
REMARK VINA RESULT:      -7.8      3.498      7.179
REMARK  4 active torsions:
REMARK  status: ('A' for Active; 'I' for Inactive)
REMARK    1  A    between atoms: C_5  and  C_6 
REMARK    2  A    between atoms: C_6  and  N_7 
REMARK    3  A    between atoms: C_6  and  C_18 
REMARK    4  A    between atoms: N_7  and  C_8 
ROOT
HETATM    1  C   UNL     1      27.608  43.148  52.140  1.00  0.00     0.290 C 
ENDROOT
BRANCH   1   2
HETATM    2  C   UNL     1      28.406  43.639  53.340  1.00  0.00     0.021 A 
HETATM    3  C   UNL     1      27.987  44.698  54.163  1.00  0.00     0.055 A 
HETATM    4  C   UNL     1      28.751  45.088  55.262  1.00  0.00     0.117 A 
HETATM    5  C   UNL     1      29.943  44.448  55.574  1.00  0.00     0.045 A 
HETATM    6  F   UNL     1      28.319  46.095  56.030  1.00  0.00    -0.206 F 
HETATM    7  C   UNL     1      30.375  43.392  54.775  1.00  0.00     0.046 A 
HETATM    8  C   UNL     1      29.608  42.996  53.680  1.00  0.00     0.125 A 
HETATM    9  F   UNL     1      30.038  41.959  52.948  1.00  0.00    -0.205 F 
ENDBRANCH   1   2
BRANCH   1  10
HETATM   10  N   UNL     1      26.947  41.838  52.391  1.00  0.00     0.101 NA
HETATM   11  H   UNL     1      25.985  42.058  52.662  1.00  0.00     0.317 HD
BRANCH  10  12
HETATM   12  C   UNL     1      26.950  40.804  51.351  1.00  0.00     0.225 C 
HETATM   13  C   UNL     1      25.939  41.054  50.210  1.00  0.00     0.069 C 
HETATM   14  C   UNL     1      26.113  40.011  49.122  1.00  0.00     0.190 C 
HETATM   15  N   UNL     1      27.516  40.109  48.590  1.00  0.00    -0.067 N 
HETATM   16  C   UNL     1      25.301  40.192  47.857  1.00  0.00     0.035 C 
HETATM   17  H   UNL     1      27.680  41.090  48.316  1.00  0.00     0.280 HD
HETATM   18  C   UNL     1      28.535  39.760  49.622  1.00  0.00     0.237 C 
HETATM   19  C   UNL     1      27.518  39.315  47.310  1.00  0.00     0.235 C 
HETATM   20  C   UNL     1      28.391  40.742  50.782  1.00  0.00     0.063 C 
HETATM   21  C   UNL     1      26.061  39.337  46.845  1.00  0.00     0.030 C 
ENDBRANCH  10  12
ENDBRANCH   1  10
BRANCH   1  22
HETATM   22  C   UNL     1      26.721  44.146  51.392  1.00  0.00    -0.018 A 
HETATM   23  C   UNL     1      25.409  44.457  51.767  1.00  0.00     0.029 A 
HETATM   24  C   UNL     1      24.693  45.386  51.023  1.00  0.00     0.116 A 
HETATM   25  N   UNL     1      25.193  46.038  49.954  1.00  0.00    -0.273 NA
HETATM   26  C   UNL     1      26.479  45.792  49.642  1.00  0.00     0.116 A 
HETATM   27  C   UNL     1      27.268  44.877  50.322  1.00  0.00     0.029 A 
ENDBRANCH   1  22
TORSDOF 4
ENDMDL
MODEL 9
REMARK VINA RESULT:      -7.8      3.438      5.305
REMARK  4 active torsions:
REMARK  status: ('A' for Active; 'I' for Inactive)
REMARK    1  A    between atoms: C_5  and  C_6 
REMARK    2  A    between atoms: C_6  and  N_7 
REMARK    3  A    between atoms: C_6  and  C_18 
REMARK    4  A    between atoms: N_7  and  C_8 
ROOT
HETATM    1  C   UNL     1      26.798  42.736  51.195  1.00  0.00     0.290 C 
ENDROOT
BRANCH   1   2
HETATM    2  C   UNL     1      27.444  41.631  50.370  1.00  0.00     0.021 A 
HETATM    3  C   UNL     1      27.455  41.625  48.964  1.00  0.00     0.055 A 
HETATM    4  C   UNL     1      28.082  40.595  48.264  1.00  0.00     0.117 A 
HETATM    5  C   UNL     1      28.709  39.549  48.930  1.00  0.00     0.045 A 
HETATM    6  F   UNL     1      28.081  40.624  46.926  1.00  0.00    -0.206 F 
HETATM    7  C   UNL     1      28.715  39.538  50.322  1.00  0.00     0.046 A 
HETATM    8  C   UNL     1      28.094  40.572  51.024  1.00  0.00     0.125 A 
HETATM    9  F   UNL     1      28.142  40.545  52.363  1.00  0.00    -0.205 F 
ENDBRANCH   1   2
BRANCH   1  10
HETATM   10  N   UNL     1      27.794  43.699  51.738  1.00  0.00     0.101 NA
HETATM   11  H   UNL     1      27.504  44.621  51.402  1.00  0.00     0.317 HD
BRANCH  10  12
HETATM   12  C   UNL     1      28.052  43.751  53.181  1.00  0.00     0.225 C 
HETATM   13  C   UNL     1      29.502  43.396  53.576  1.00  0.00     0.069 C 
HETATM   14  C   UNL     1      29.704  43.611  55.064  1.00  0.00     0.190 C 
HETATM   15  N   UNL     1      29.430  45.056  55.377  1.00  0.00    -0.067 N 
HETATM   16  C   UNL     1      31.112  43.452  55.599  1.00  0.00     0.035 C 
HETATM   17  H   UNL     1      30.012  45.629  54.747  1.00  0.00     0.280 HD
HETATM   18  C   UNL     1      28.007  45.426  55.126  1.00  0.00     0.237 C 
HETATM   19  C   UNL     1      29.976  45.280  56.763  1.00  0.00     0.235 C 
HETATM   20  C   UNL     1      27.709  45.189  53.647  1.00  0.00     0.063 C 
HETATM   21  C   UNL     1      31.054  44.207  56.925  1.00  0.00     0.030 C 
ENDBRANCH  10  12
ENDBRANCH   1  10
BRANCH   1  22
HETATM   22  C   UNL     1      25.531  43.406  50.658  1.00  0.00    -0.018 A 
HETATM   23  C   UNL     1      24.266  42.807  50.673  1.00  0.00     0.029 A 
HETATM   24  C   UNL     1      23.179  43.507  50.168  1.00  0.00     0.116 A 
HETATM   25  N   UNL     1      23.255  44.759  49.672  1.00  0.00    -0.273 NA
HETATM   26  C   UNL     1      24.458  45.359  49.728  1.00  0.00     0.116 A 
HETATM   27  C   UNL     1      25.600  44.737  50.208  1.00  0.00     0.029 A 
ENDBRANCH   1  22
TORSDOF 4
ENDMDL
MODEL 10
REMARK VINA RESULT:      -7.8      1.671      2.230
REMARK  4 active torsions:
REMARK  status: ('A' for Active; 'I' for Inactive)
REMARK    1  A    between atoms: C_5  and  C_6 
REMARK    2  A    between atoms: C_6  and  N_7 
REMARK    3  A    between atoms: C_6  and  C_18 
REMARK    4  A    between atoms: N_7  and  C_8 
ROOT
HETATM    1  C   UNL     1      24.965  46.696  50.480  1.00  0.00     0.290 C 
ENDROOT
BRANCH   1   2
HETATM    2  C   UNL     1      25.349  47.895  49.623  1.00  0.00     0.021 A 
HETATM    3  C   UNL     1      24.410  48.804  49.106  1.00  0.00     0.055 A 
HETATM    4  C   UNL     1      24.824  49.897  48.345  1.00  0.00     0.117 A 
HETATM    5  C   UNL     1      26.168  50.117  48.074  1.00  0.00     0.045 A 
HETATM    6  F   UNL     1      23.905  50.748  47.876  1.00  0.00    -0.206 F 
HETATM    7  C   UNL     1      27.116  49.231  48.581  1.00  0.00     0.046 A 
HETATM    8  C   UNL     1      26.703  48.142  49.348  1.00  0.00     0.125 A 
HETATM    9  F   UNL     1      27.644  47.325  49.843  1.00  0.00    -0.205 F 
ENDBRANCH   1   2
BRANCH   1  10
HETATM   10  N   UNL     1      24.705  47.067  51.897  1.00  0.00     0.101 NA
HETATM   11  H   UNL     1      23.696  46.966  52.032  1.00  0.00     0.317 HD
BRANCH  10  12
HETATM   12  C   UNL     1      25.425  46.386  52.978  1.00  0.00     0.225 C 
HETATM   13  C   UNL     1      26.534  45.427  52.490  1.00  0.00     0.069 C 
HETATM   14  C   UNL     1      27.307  44.880  53.675  1.00  0.00     0.190 C 
HETATM   15  N   UNL     1      27.921  46.035  54.417  1.00  0.00    -0.067 N 
HETATM   16  C   UNL     1      28.529  44.037  53.373  1.00  0.00     0.035 C 
HETATM   17  H   UNL     1      28.458  46.594  53.738  1.00  0.00     0.280 HD
HETATM   18  C   UNL     1      26.890  46.932  55.015  1.00  0.00     0.237 C 
HETATM   19  C   UNL     1      28.937  45.424  55.347  1.00  0.00     0.235 C 
HETATM   20  C   UNL     1      26.033  47.490  53.880  1.00  0.00     0.063 C 
HETATM   21  C   UNL     1      29.311  44.097  54.683  1.00  0.00     0.030 C 
ENDBRANCH  10  12
ENDBRANCH   1  10
BRANCH   1  22
HETATM   22  C   UNL     1      23.962  45.685  49.919  1.00  0.00    -0.018 A 
HETATM   23  C   UNL     1      23.744  44.416  50.469  1.00  0.00     0.029 A 
HETATM   24  C   UNL     1      22.802  43.579  49.886  1.00  0.00     0.116 A 
HETATM   25  N   UNL     1      22.051  43.918  48.819  1.00  0.00    -0.273 NA
HETATM   26  C   UNL     1      22.211  45.166  48.340  1.00  0.00     0.116 A 
HETATM   27  C   UNL     1      23.131  46.068  48.851  1.00  0.00     0.029 A 
ENDBRANCH   1  22
TORSDOF 4
ENDMDL
