MODEL 1
REMARK VINA RESULT:      -9.5      0.000      0.000
REMARK  8 active torsions:
REMARK  status: ('A' for Active; 'I' for Inactive)
REMARK    1  A    between atoms: O_2  and  C_3 
REMARK    2  A    between atoms: C_6  and  C_7 
REMARK    3  A    between atoms: C_11  and  S_12 
REMARK    4  A    between atoms: S_12  and  C_13 
REMARK    5  A    between atoms: C_13  and  C_14 
REMARK       I    between atoms: C_14  and  N_15 
REMARK    6  A    between atoms: N_15  and  C_16 
REMARK    7  A    between atoms: C_17  and  C_18 
REMARK       I    between atoms: C_18  and  N_19 
REMARK    8  A    between atoms: N_19  and  C_20 
ROOT
HETATM    1  C   UNL     1      24.825  45.664  50.194  1.00  0.00     0.231 C 
HETATM    2  N   UNL     1      24.792  47.006  50.510  1.00  0.00    -0.326 N 
HETATM    3  O   UNL     1      25.275  45.230  49.129  1.00  0.00    -0.272 OA
HETATM    4  H   UNL     1      24.752  47.213  51.505  1.00  0.00     0.169 HD
ENDROOT
BRANCH   1   5
HETATM    5  C   UNL     1      24.180  44.722  51.205  1.00  0.00     0.185 C 
BRANCH   5   6
HETATM    6  S   UNL     1      24.764  42.995  51.117  1.00  0.00    -0.081 SA
BRANCH   6   7
HETATM    7  C   UNL     1      26.378  43.193  51.668  1.00  0.00     0.185 A 
HETATM    8  N   UNL     1      27.482  42.967  50.915  1.00  0.00    -0.253 N 
HETATM    9  N   UNL     1      28.602  43.204  51.629  1.00  0.00    -0.152 NA
HETATM   10  H   UNL     1      27.549  42.654  49.954  1.00  0.00     0.191 HD
HETATM   11  C   UNL     1      28.101  43.582  52.821  1.00  0.00     0.182 A 
HETATM   12  N   UNL     1      26.724  43.610  52.854  1.00  0.00    -0.201 NA
BRANCH  11  13
HETATM   13  C   UNL     1      28.884  43.945  53.997  1.00  0.00     0.014 A 
HETATM   14  C   UNL     1      28.626  45.116  54.716  1.00  0.00     0.018 A 
HETATM   15  C   UNL     1      29.388  45.429  55.848  1.00  0.00     0.037 A 
HETATM   16  C   UNL     1      30.413  44.583  56.281  1.00  0.00     0.068 A 
HETATM   17  C   UNL     1      30.686  43.423  55.560  1.00  0.00     0.037 A 
HETATM   18  C   UNL     1      29.926  43.108  54.428  1.00  0.00     0.018 A 
BRANCH  16  19
HETATM   19  O   UNL     1      31.071  44.999  57.405  1.00  0.00    -0.356 OA
HETATM   20  C   UNL     1      30.434  46.011  58.177  1.00  0.00     0.210 C 
ENDBRANCH  16  19
ENDBRANCH  11  13
ENDBRANCH   6   7
ENDBRANCH   5   6
ENDBRANCH   1   5
BRANCH   2  21
HETATM   21  C   UNL     1      25.297  48.023  49.677  1.00  0.00     0.050 A 
HETATM   22  C   UNL     1      24.496  48.842  48.864  1.00  0.00     0.058 A 
HETATM   23  C   UNL     1      25.085  49.878  48.120  1.00  0.00     0.019 A 
HETATM   24  C   UNL     1      26.460  50.096  48.177  1.00  0.00     0.001 A 
HETATM   25  C   UNL     1      27.251  49.307  49.010  1.00  0.00     0.002 A 
HETATM   26  C   UNL     1      26.669  48.290  49.771  1.00  0.00     0.030 A 
BRANCH  22  27
HETATM   27  C   UNL     1      23.019  48.872  48.940  1.00  0.00     0.254 C 
HETATM   28  N   UNL     1      22.433  50.115  48.957  1.00  0.00    -0.352 N 
HETATM   29  H   UNL     1      23.034  50.929  48.806  1.00  0.00     0.163 HD
HETATM   30  O   UNL     1      22.409  47.809  49.025  1.00  0.00    -0.268 OA
BRANCH  28  31
HETATM   31  C   UNL     1      21.018  50.303  48.986  1.00  0.00     0.084 A 
HETATM   32  C   UNL     1      20.395  51.202  50.017  1.00  0.00     0.027 A 
HETATM   33  C   UNL     1      20.414  51.618  48.574  1.00  0.00     0.027 A 
ENDBRANCH  28  31
ENDBRANCH  22  27
ENDBRANCH   2  21
TORSDOF 8
ENDMDL
MODEL 2
REMARK VINA RESULT:      -9.1      2.402     10.010
REMARK  8 active torsions:
REMARK  status: ('A' for Active; 'I' for Inactive)
REMARK    1  A    between atoms: O_2  and  C_3 
REMARK    2  A    between atoms: C_6  and  C_7 
REMARK    3  A    between atoms: C_11  and  S_12 
REMARK    4  A    between atoms: S_12  and  C_13 
REMARK    5  A    between atoms: C_13  and  C_14 
REMARK       I    between atoms: C_14  and  N_15 
REMARK    6  A    between atoms: N_15  and  C_16 
REMARK    7  A    between atoms: C_17  and  C_18 
REMARK       I    between atoms: C_18  and  N_19 
REMARK    8  A    between atoms: N_19  and  C_20 
ROOT
HETATM    1  C   UNL     1      26.787  45.454  50.751  1.00  0.00     0.231 C 
HETATM    2  N   UNL     1      26.602  44.881  51.992  1.00  0.00    -0.326 N 
HETATM    3  O   UNL     1      27.624  45.051  49.938  1.00  0.00    -0.272 OA
HETATM    4  H   UNL     1      25.686  45.039  52.407  1.00  0.00     0.169 HD
ENDROOT
BRANCH   1   5
HETATM    5  C   UNL     1      25.952  46.695  50.456  1.00  0.00     0.185 C 
BRANCH   5   6
HETATM    6  S   UNL     1      26.863  48.048  49.635  1.00  0.00    -0.081 SA
BRANCH   6   7
HETATM    7  C   UNL     1      25.553  48.926  48.956  1.00  0.00     0.185 A 
HETATM    8  N   UNL     1      25.650  49.746  47.882  1.00  0.00    -0.253 N 
HETATM    9  N   UNL     1      24.452  50.296  47.593  1.00  0.00    -0.152 NA
HETATM   10  H   UNL     1      26.463  49.978  47.324  1.00  0.00     0.191 HD
HETATM   11  C   UNL     1      23.659  49.756  48.539  1.00  0.00     0.182 A 
HETATM   12  N   UNL     1      24.319  48.881  49.374  1.00  0.00    -0.201 NA
BRANCH  11  13
HETATM   13  C   UNL     1      22.236  50.023  48.711  1.00  0.00     0.014 A 
HETATM   14  C   UNL     1      21.696  51.294  48.492  1.00  0.00     0.018 A 
HETATM   15  C   UNL     1      20.322  51.513  48.655  1.00  0.00     0.037 A 
HETATM   16  C   UNL     1      19.469  50.473  49.034  1.00  0.00     0.068 A 
HETATM   17  C   UNL     1      20.003  49.208  49.269  1.00  0.00     0.037 A 
HETATM   18  C   UNL     1      21.375  48.987  49.108  1.00  0.00     0.018 A 
BRANCH  16  19
HETATM   19  O   UNL     1      18.151  50.818  49.146  1.00  0.00    -0.356 OA
HETATM   20  C   UNL     1      17.871  52.071  49.760  1.00  0.00     0.210 C 
ENDBRANCH  16  19
ENDBRANCH  11  13
ENDBRANCH   6   7
ENDBRANCH   5   6
ENDBRANCH   1   5
BRANCH   2  21
HETATM   21  C   UNL     1      27.315  43.760  52.455  1.00  0.00     0.050 A 
HETATM   22  C   UNL     1      28.162  43.775  53.577  1.00  0.00     0.058 A 
HETATM   23  C   UNL     1      28.777  42.587  54.005  1.00  0.00     0.019 A 
HETATM   24  C   UNL     1      28.560  41.393  53.320  1.00  0.00     0.001 A 
HETATM   25  C   UNL     1      27.694  41.369  52.230  1.00  0.00     0.002 A 
HETATM   26  C   UNL     1      27.059  42.542  51.813  1.00  0.00     0.030 A 
BRANCH  22  27
HETATM   27  C   UNL     1      28.243  44.912  54.521  1.00  0.00     0.254 C 
HETATM   28  N   UNL     1      29.362  44.964  55.317  1.00  0.00    -0.352 N 
HETATM   29  H   UNL     1      30.110  44.292  55.136  1.00  0.00     0.163 HD
HETATM   30  O   UNL     1      27.309  45.707  54.572  1.00  0.00    -0.268 OA
BRANCH  28  31
HETATM   31  C   UNL     1      29.601  46.023  56.245  1.00  0.00     0.084 A 
HETATM   32  C   UNL     1      28.864  46.063  57.554  1.00  0.00     0.027 A 
HETATM   33  C   UNL     1      30.334  45.758  57.532  1.00  0.00     0.027 A 
ENDBRANCH  28  31
ENDBRANCH  22  27
ENDBRANCH   2  21
TORSDOF 8
ENDMDL
MODEL 3
REMARK VINA RESULT:      -8.8      2.048      4.107
REMARK  8 active torsions:
REMARK  status: ('A' for Active; 'I' for Inactive)
REMARK    1  A    between atoms: O_2  and  C_3 
REMARK    2  A    between atoms: C_6  and  C_7 
REMARK    3  A    between atoms: C_11  and  S_12 
REMARK    4  A    between atoms: S_12  and  C_13 
REMARK    5  A    between atoms: C_13  and  C_14 
REMARK       I    between atoms: C_14  and  N_15 
REMARK    6  A    between atoms: N_15  and  C_16 
REMARK    7  A    between atoms: C_17  and  C_18 
REMARK       I    between atoms: C_18  and  N_19 
REMARK    8  A    between atoms: N_19  and  C_20 
ROOT
HETATM    1  C   UNL     1      22.185  46.601  47.697  1.00  0.00     0.231 C 
HETATM    2  N   UNL     1      22.139  47.253  48.912  1.00  0.00    -0.326 N 
HETATM    3  O   UNL     1      21.811  47.116  46.640  1.00  0.00    -0.272 OA
HETATM    4  H   UNL     1      22.784  46.899  49.615  1.00  0.00     0.169 HD
ENDROOT
BRANCH   1   5
HETATM    5  C   UNL     1      22.644  45.148  47.735  1.00  0.00     0.185 C 
BRANCH   5   6
HETATM    6  S   UNL     1      22.617  44.383  49.392  1.00  0.00    -0.081 SA
BRANCH   6   7
HETATM    7  C   UNL     1      24.269  44.546  49.827  1.00  0.00     0.185 A 
HETATM    8  N   UNL     1      25.271  44.820  48.957  1.00  0.00    -0.253 N 
HETATM    9  N   UNL     1      26.456  44.880  49.599  1.00  0.00    -0.152 NA
HETATM   10  H   UNL     1      25.229  44.964  47.955  1.00  0.00     0.191 HD
HETATM   11  C   UNL     1      26.098  44.635  50.874  1.00  0.00     0.182 A 
HETATM   12  N   UNL     1      24.742  44.456  51.039  1.00  0.00    -0.201 NA
BRANCH  11  13
HETATM   13  C   UNL     1      27.005  44.563  52.015  1.00  0.00     0.014 A 
HETATM   14  C   UNL     1      26.785  45.311  53.175  1.00  0.00     0.018 A 
HETATM   15  C   UNL     1      27.668  45.208  54.257  1.00  0.00     0.037 A 
HETATM   16  C   UNL     1      28.778  44.360  54.200  1.00  0.00     0.068 A 
HETATM   17  C   UNL     1      29.012  43.624  53.041  1.00  0.00     0.037 A 
HETATM   18  C   UNL     1      28.131  43.725  51.958  1.00  0.00     0.018 A 
BRANCH  16  19
HETATM   19  O   UNL     1      29.552  44.344  55.327  1.00  0.00    -0.356 OA
HETATM   20  C   UNL     1      30.604  43.385  55.363  1.00  0.00     0.210 C 
ENDBRANCH  16  19
ENDBRANCH  11  13
ENDBRANCH   6   7
ENDBRANCH   5   6
ENDBRANCH   1   5
BRANCH   2  21
HETATM   21  C   UNL     1      21.700  48.579  49.077  1.00  0.00     0.050 A 
HETATM   22  C   UNL     1      22.512  49.708  48.876  1.00  0.00     0.058 A 
HETATM   23  C   UNL     1      21.964  50.995  48.997  1.00  0.00     0.019 A 
HETATM   24  C   UNL     1      20.619  51.163  49.322  1.00  0.00     0.001 A 
HETATM   25  C   UNL     1      19.804  50.046  49.488  1.00  0.00     0.002 A 
HETATM   26  C   UNL     1      20.337  48.762  49.345  1.00  0.00     0.030 A 
BRANCH  22  27
HETATM   27  C   UNL     1      23.861  49.643  48.270  1.00  0.00     0.254 C 
HETATM   28  N   UNL     1      24.843  49.053  49.030  1.00  0.00    -0.352 N 
HETATM   29  H   UNL     1      24.565  48.602  49.905  1.00  0.00     0.163 HD
HETATM   30  O   UNL     1      24.038  50.146  47.164  1.00  0.00    -0.268 OA
BRANCH  28  31
HETATM   31  C   UNL     1      26.182  48.880  48.564  1.00  0.00     0.084 A 
HETATM   32  C   UNL     1      27.209  49.950  48.799  1.00  0.00     0.027 A 
HETATM   33  C   UNL     1      27.305  48.646  49.538  1.00  0.00     0.027 A 
ENDBRANCH  28  31
ENDBRANCH  22  27
ENDBRANCH   2  21
TORSDOF 8
ENDMDL
MODEL 4
REMARK VINA RESULT:      -8.6      2.778     10.283
REMARK  8 active torsions:
REMARK  status: ('A' for Active; 'I' for Inactive)
REMARK    1  A    between atoms: O_2  and  C_3 
REMARK    2  A    between atoms: C_6  and  C_7 
REMARK    3  A    between atoms: C_11  and  S_12 
REMARK    4  A    between atoms: S_12  and  C_13 
REMARK    5  A    between atoms: C_13  and  C_14 
REMARK       I    between atoms: C_14  and  N_15 
REMARK    6  A    between atoms: N_15  and  C_16 
REMARK    7  A    between atoms: C_17  and  C_18 
REMARK       I    between atoms: C_18  and  N_19 
REMARK    8  A    between atoms: N_19  and  C_20 
ROOT
HETATM    1  C   UNL     1      25.865  44.079  51.351  1.00  0.00     0.231 C 
HETATM    2  N   UNL     1      26.201  43.116  52.279  1.00  0.00    -0.326 N 
HETATM    3  O   UNL     1      26.656  44.938  50.950  1.00  0.00    -0.272 OA
HETATM    4  H   UNL     1      25.624  42.278  52.258  1.00  0.00     0.169 HD
ENDROOT
BRANCH   1   5
HETATM    5  C   UNL     1      24.409  44.092  50.898  1.00  0.00     0.185 C 
BRANCH   5   6
HETATM    6  S   UNL     1      24.159  44.554  49.149  1.00  0.00    -0.081 SA
BRANCH   6   7
HETATM    7  C   UNL     1      23.827  46.229  49.324  1.00  0.00     0.185 A 
HETATM    8  N   UNL     1      24.622  47.107  49.982  1.00  0.00    -0.253 N 
HETATM    9  N   UNL     1      24.089  48.347  49.952  1.00  0.00    -0.152 NA
HETATM   10  H   UNL     1      25.498  46.943  50.464  1.00  0.00     0.191 HD
HETATM   11  C   UNL     1      22.960  48.151  49.245  1.00  0.00     0.182 A 
HETATM   12  N   UNL     1      22.796  46.850  48.822  1.00  0.00    -0.201 NA
BRANCH  11  13
HETATM   13  C   UNL     1      21.971  49.172  48.919  1.00  0.00     0.014 A 
HETATM   14  C   UNL     1      21.864  50.352  49.660  1.00  0.00     0.018 A 
HETATM   15  C   UNL     1      20.911  51.318  49.312  1.00  0.00     0.037 A 
HETATM   16  C   UNL     1      20.057  51.124  48.223  1.00  0.00     0.068 A 
HETATM   17  C   UNL     1      20.148  49.943  47.490  1.00  0.00     0.037 A 
HETATM   18  C   UNL     1      21.098  48.976  47.836  1.00  0.00     0.018 A 
BRANCH  16  19
HETATM   19  O   UNL     1      19.182  52.148  47.984  1.00  0.00    -0.356 OA
HETATM   20  C   UNL     1      18.238  52.431  49.011  1.00  0.00     0.210 C 
ENDBRANCH  16  19
ENDBRANCH  11  13
ENDBRANCH   6   7
ENDBRANCH   5   6
ENDBRANCH   1   5
BRANCH   2  21
HETATM   21  C   UNL     1      27.483  42.981  52.843  1.00  0.00     0.050 A 
HETATM   22  C   UNL     1      28.421  42.015  52.441  1.00  0.00     0.058 A 
HETATM   23  C   UNL     1      29.703  42.003  53.015  1.00  0.00     0.019 A 
HETATM   24  C   UNL     1      30.050  42.939  53.988  1.00  0.00     0.001 A 
HETATM   25  C   UNL     1      29.134  43.918  54.363  1.00  0.00     0.002 A 
HETATM   26  C   UNL     1      27.865  43.952  53.779  1.00  0.00     0.030 A 
BRANCH  22  27
HETATM   27  C   UNL     1      28.251  41.164  51.242  1.00  0.00     0.254 C 
HETATM   28  N   UNL     1      28.805  39.908  51.303  1.00  0.00    -0.352 N 
HETATM   29  H   UNL     1      29.198  39.600  52.195  1.00  0.00     0.163 HD
HETATM   30  O   UNL     1      27.673  41.629  50.263  1.00  0.00    -0.268 OA
BRANCH  28  31
HETATM   31  C   UNL     1      28.687  38.959  50.242  1.00  0.00     0.084 A 
HETATM   32  C   UNL     1      29.840  38.720  49.308  1.00  0.00     0.027 A 
HETATM   33  C   UNL     1      29.443  37.659  50.293  1.00  0.00     0.027 A 
ENDBRANCH  28  31
ENDBRANCH  22  27
ENDBRANCH   2  21
TORSDOF 8
ENDMDL
MODEL 5
REMARK VINA RESULT:      -8.4      2.740      3.446
REMARK  8 active torsions:
REMARK  status: ('A' for Active; 'I' for Inactive)
REMARK    1  A    between atoms: O_2  and  C_3 
REMARK    2  A    between atoms: C_6  and  C_7 
REMARK    3  A    between atoms: C_11  and  S_12 
REMARK    4  A    between atoms: S_12  and  C_13 
REMARK    5  A    between atoms: C_13  and  C_14 
REMARK       I    between atoms: C_14  and  N_15 
REMARK    6  A    between atoms: N_15  and  C_16 
REMARK    7  A    between atoms: C_17  and  C_18 
REMARK       I    between atoms: C_18  and  N_19 
REMARK    8  A    between atoms: N_19  and  C_20 
ROOT
HETATM    1  C   UNL     1      22.081  46.335  48.102  1.00  0.00     0.231 C 
HETATM    2  N   UNL     1      22.488  47.220  49.079  1.00  0.00    -0.326 N 
HETATM    3  O   UNL     1      22.204  46.558  46.894  1.00  0.00    -0.272 OA
HETATM    4  H   UNL     1      22.676  46.801  49.987  1.00  0.00     0.169 HD
ENDROOT
BRANCH   1   5
HETATM    5  C   UNL     1      21.373  45.077  48.592  1.00  0.00     0.185 C 
BRANCH   5   6
HETATM    6  S   UNL     1      22.403  43.569  48.579  1.00  0.00    -0.081 SA
BRANCH   6   7
HETATM    7  C   UNL     1      23.842  44.182  49.288  1.00  0.00     0.185 A 
HETATM    8  N   UNL     1      25.044  44.234  48.665  1.00  0.00    -0.253 N 
HETATM    9  N   UNL     1      25.981  44.760  49.482  1.00  0.00    -0.152 NA
HETATM   10  H   UNL     1      25.296  43.937  47.730  1.00  0.00     0.191 HD
HETATM   11  C   UNL     1      25.271  45.014  50.597  1.00  0.00     0.182 A 
HETATM   12  N   UNL     1      23.937  44.689  50.485  1.00  0.00    -0.201 NA
BRANCH  11  13
HETATM   13  C   UNL     1      25.799  45.582  51.833  1.00  0.00     0.014 A 
HETATM   14  C   UNL     1      25.466  46.875  52.246  1.00  0.00     0.018 A 
HETATM   15  C   UNL     1      25.981  47.385  53.445  1.00  0.00     0.037 A 
HETATM   16  C   UNL     1      26.830  46.617  54.246  1.00  0.00     0.068 A 
HETATM   17  C   UNL     1      27.179  45.334  53.832  1.00  0.00     0.037 A 
HETATM   18  C   UNL     1      26.666  44.822  52.635  1.00  0.00     0.018 A 
BRANCH  16  19
HETATM   19  O   UNL     1      27.252  47.229  55.394  1.00  0.00    -0.356 OA
HETATM   20  C   UNL     1      26.529  48.386  55.801  1.00  0.00     0.210 C 
ENDBRANCH  16  19
ENDBRANCH  11  13
ENDBRANCH   6   7
ENDBRANCH   5   6
ENDBRANCH   1   5
BRANCH   2  21
HETATM   21  C   UNL     1      23.116  48.451  48.814  1.00  0.00     0.050 A 
HETATM   22  C   UNL     1      22.428  49.665  48.647  1.00  0.00     0.058 A 
HETATM   23  C   UNL     1      23.147  50.856  48.455  1.00  0.00     0.019 A 
HETATM   24  C   UNL     1      24.540  50.842  48.421  1.00  0.00     0.001 A 
HETATM   25  C   UNL     1      25.225  49.646  48.621  1.00  0.00     0.002 A 
HETATM   26  C   UNL     1      24.517  48.461  48.837  1.00  0.00     0.030 A 
BRANCH  22  27
HETATM   27  C   UNL     1      20.985  49.829  48.934  1.00  0.00     0.254 C 
HETATM   28  N   UNL     1      20.386  50.955  48.420  1.00  0.00    -0.352 N 
HETATM   29  H   UNL     1      20.934  51.543  47.789  1.00  0.00     0.163 HD
HETATM   30  O   UNL     1      20.421  48.993  49.634  1.00  0.00    -0.268 OA
BRANCH  28  31
HETATM   31  C   UNL     1      18.994  51.229  48.578  1.00  0.00     0.084 A 
HETATM   32  C   UNL     1      18.499  51.957  49.796  1.00  0.00     0.027 A 
HETATM   33  C   UNL     1      18.475  52.636  48.457  1.00  0.00     0.027 A 
ENDBRANCH  28  31
ENDBRANCH  22  27
ENDBRANCH   2  21
TORSDOF 8
ENDMDL
MODEL 6
REMARK VINA RESULT:      -8.3      2.655     10.127
REMARK  8 active torsions:
REMARK  status: ('A' for Active; 'I' for Inactive)
REMARK    1  A    between atoms: O_2  and  C_3 
REMARK    2  A    between atoms: C_6  and  C_7 
REMARK    3  A    between atoms: C_11  and  S_12 
REMARK    4  A    between atoms: S_12  and  C_13 
REMARK    5  A    between atoms: C_13  and  C_14 
REMARK       I    between atoms: C_14  and  N_15 
REMARK    6  A    between atoms: N_15  and  C_16 
REMARK    7  A    between atoms: C_17  and  C_18 
REMARK       I    between atoms: C_18  and  N_19 
REMARK    8  A    between atoms: N_19  and  C_20 
ROOT
HETATM    1  C   UNL     1      25.694  45.221  52.005  1.00  0.00     0.231 C 
HETATM    2  N   UNL     1      26.977  44.769  51.779  1.00  0.00    -0.326 N 
HETATM    3  O   UNL     1      25.037  44.923  53.007  1.00  0.00    -0.272 OA
HETATM    4  H   UNL     1      27.531  45.343  51.149  1.00  0.00     0.169 HD
ENDROOT
BRANCH   1   5
HETATM    5  C   UNL     1      25.072  46.053  50.889  1.00  0.00     0.185 C 
BRANCH   5   6
HETATM    6  S   UNL     1      26.161  47.352  50.210  1.00  0.00    -0.081 SA
BRANCH   6   7
HETATM    7  C   UNL     1      24.991  48.384  49.494  1.00  0.00     0.185 A 
HETATM    8  N   UNL     1      25.246  49.256  48.489  1.00  0.00    -0.253 N 
HETATM    9  N   UNL     1      24.126  49.928  48.147  1.00  0.00    -0.152 NA
HETATM   10  H   UNL     1      26.119  49.448  48.012  1.00  0.00     0.191 HD
HETATM   11  C   UNL     1      23.216  49.406  48.990  1.00  0.00     0.182 A 
HETATM   12  N   UNL     1      23.727  48.425  49.812  1.00  0.00    -0.201 NA
BRANCH  11  13
HETATM   13  C   UNL     1      21.810  49.789  49.070  1.00  0.00     0.014 A 
HETATM   14  C   UNL     1      20.810  48.852  49.343  1.00  0.00     0.018 A 
HETATM   15  C   UNL     1      19.471  49.256  49.426  1.00  0.00     0.037 A 
HETATM   16  C   UNL     1      19.112  50.593  49.240  1.00  0.00     0.068 A 
HETATM   17  C   UNL     1      20.102  51.529  48.952  1.00  0.00     0.037 A 
HETATM   18  C   UNL     1      21.440  51.128  48.869  1.00  0.00     0.018 A 
BRANCH  16  19
HETATM   19  O   UNL     1      17.775  50.855  49.359  1.00  0.00    -0.356 OA
HETATM   20  C   UNL     1      17.417  52.182  49.729  1.00  0.00     0.210 C 
ENDBRANCH  16  19
ENDBRANCH  11  13
ENDBRANCH   6   7
ENDBRANCH   5   6
ENDBRANCH   1   5
BRANCH   2  21
HETATM   21  C   UNL     1      27.692  43.953  52.676  1.00  0.00     0.050 A 
HETATM   22  C   UNL     1      27.801  42.557  52.552  1.00  0.00     0.058 A 
HETATM   23  C   UNL     1      28.596  41.835  53.457  1.00  0.00     0.019 A 
HETATM   24  C   UNL     1      29.273  42.491  54.483  1.00  0.00     0.001 A 
HETATM   25  C   UNL     1      29.194  43.878  54.587  1.00  0.00     0.002 A 
HETATM   26  C   UNL     1      28.425  44.606  53.675  1.00  0.00     0.030 A 
BRANCH  22  27
HETATM   27  C   UNL     1      27.353  41.807  51.357  1.00  0.00     0.254 C 
HETATM   28  N   UNL     1      28.297  41.021  50.740  1.00  0.00    -0.352 N 
HETATM   29  H   UNL     1      29.204  40.915  51.199  1.00  0.00     0.163 HD
HETATM   30  O   UNL     1      26.199  41.956  50.963  1.00  0.00    -0.268 OA
BRANCH  28  31
HETATM   31  C   UNL     1      28.003  40.209  49.604  1.00  0.00     0.084 A 
HETATM   32  C   UNL     1      28.829  40.328  48.354  1.00  0.00     0.027 A 
HETATM   33  C   UNL     1      28.929  39.094  49.203  1.00  0.00     0.027 A 
ENDBRANCH  28  31
ENDBRANCH  22  27
ENDBRANCH   2  21
TORSDOF 8
ENDMDL
MODEL 7
REMARK VINA RESULT:      -8.2      2.709      4.347
REMARK  8 active torsions:
REMARK  status: ('A' for Active; 'I' for Inactive)
REMARK    1  A    between atoms: O_2  and  C_3 
REMARK    2  A    between atoms: C_6  and  C_7 
REMARK    3  A    between atoms: C_11  and  S_12 
REMARK    4  A    between atoms: S_12  and  C_13 
REMARK    5  A    between atoms: C_13  and  C_14 
REMARK       I    between atoms: C_14  and  N_15 
REMARK    6  A    between atoms: N_15  and  C_16 
REMARK    7  A    between atoms: C_17  and  C_18 
REMARK       I    between atoms: C_18  and  N_19 
REMARK    8  A    between atoms: N_19  and  C_20 
ROOT
HETATM    1  C   UNL     1      23.439  48.706  49.047  1.00  0.00     0.231 C 
HETATM    2  N   UNL     1      22.167  48.910  49.539  1.00  0.00    -0.326 N 
HETATM    3  O   UNL     1      23.815  49.126  47.949  1.00  0.00    -0.272 OA
HETATM    4  H   UNL     1      22.082  48.853  50.551  1.00  0.00     0.169 HD
ENDROOT
BRANCH   1   5
HETATM    5  C   UNL     1      24.355  47.836  49.901  1.00  0.00     0.185 C 
BRANCH   5   6
HETATM    6  S   UNL     1      24.206  46.042  49.595  1.00  0.00    -0.081 SA
BRANCH   6   7
HETATM    7  C   UNL     1      24.850  45.431  51.064  1.00  0.00     0.185 A 
HETATM    8  N   UNL     1      24.305  44.418  51.781  1.00  0.00    -0.253 N 
HETATM    9  N   UNL     1      25.036  44.172  52.888  1.00  0.00    -0.152 NA
HETATM   10  H   UNL     1      23.470  43.876  51.593  1.00  0.00     0.191 HD
HETATM   11  C   UNL     1      26.026  45.077  52.779  1.00  0.00     0.182 A 
HETATM   12  N   UNL     1      25.943  45.847  51.639  1.00  0.00    -0.201 NA
BRANCH  11  13
HETATM   13  C   UNL     1      27.113  45.271  53.733  1.00  0.00     0.014 A 
HETATM   14  C   UNL     1      28.053  44.269  53.987  1.00  0.00     0.018 A 
HETATM   15  C   UNL     1      29.091  44.493  54.900  1.00  0.00     0.037 A 
HETATM   16  C   UNL     1      29.208  45.714  55.569  1.00  0.00     0.068 A 
HETATM   17  C   UNL     1      28.266  46.712  55.332  1.00  0.00     0.037 A 
HETATM   18  C   UNL     1      27.227  46.490  54.420  1.00  0.00     0.018 A 
BRANCH  16  19
HETATM   19  O   UNL     1      30.272  45.806  56.423  1.00  0.00    -0.356 OA
HETATM   20  C   UNL     1      29.967  45.987  57.802  1.00  0.00     0.210 C 
ENDBRANCH  16  19
ENDBRANCH  11  13
ENDBRANCH   6   7
ENDBRANCH   5   6
ENDBRANCH   1   5
BRANCH   2  21
HETATM   21  C   UNL     1      21.173  49.647  48.868  1.00  0.00     0.050 A 
HETATM   22  C   UNL     1      20.243  49.083  47.978  1.00  0.00     0.058 A 
HETATM   23  C   UNL     1      19.242  49.888  47.409  1.00  0.00     0.019 A 
HETATM   24  C   UNL     1      19.167  51.245  47.717  1.00  0.00     0.001 A 
HETATM   25  C   UNL     1      20.066  51.798  48.626  1.00  0.00     0.002 A 
HETATM   26  C   UNL     1      21.049  50.999  49.214  1.00  0.00     0.030 A 
BRANCH  22  27
HETATM   27  C   UNL     1      20.068  47.625  47.798  1.00  0.00     0.254 C 
HETATM   28  N   UNL     1      19.452  47.223  46.637  1.00  0.00    -0.352 N 
HETATM   29  H   UNL     1      19.256  47.933  45.929  1.00  0.00     0.163 HD
HETATM   30  O   UNL     1      20.435  46.869  48.694  1.00  0.00    -0.268 OA
BRANCH  28  31
HETATM   31  C   UNL     1      19.251  45.849  46.304  1.00  0.00     0.084 A 
HETATM   32  C   UNL     1      18.021  45.127  46.779  1.00  0.00     0.027 A 
HETATM   33  C   UNL     1      18.184  45.450  45.321  1.00  0.00     0.027 A 
ENDBRANCH  28  31
ENDBRANCH  22  27
ENDBRANCH   2  21
TORSDOF 8
ENDMDL
MODEL 8
REMARK VINA RESULT:      -7.9      4.739     11.947
REMARK  8 active torsions:
REMARK  status: ('A' for Active; 'I' for Inactive)
REMARK    1  A    between atoms: O_2  and  C_3 
REMARK    2  A    between atoms: C_6  and  C_7 
REMARK    3  A    between atoms: C_11  and  S_12 
REMARK    4  A    between atoms: S_12  and  C_13 
REMARK    5  A    between atoms: C_13  and  C_14 
REMARK       I    between atoms: C_14  and  N_15 
REMARK    6  A    between atoms: N_15  and  C_16 
REMARK    7  A    between atoms: C_17  and  C_18 
REMARK       I    between atoms: C_18  and  N_19 
REMARK    8  A    between atoms: N_19  and  C_20 
ROOT
HETATM    1  C   UNL     1      22.333  50.059  49.186  1.00  0.00     0.231 C 
HETATM    2  N   UNL     1      23.201  49.202  48.544  1.00  0.00    -0.326 N 
HETATM    3  O   UNL     1      22.683  50.830  50.084  1.00  0.00    -0.272 OA
HETATM    4  H   UNL     1      22.904  48.901  47.618  1.00  0.00     0.169 HD
ENDROOT
BRANCH   1   5
HETATM    5  C   UNL     1      20.864  49.943  48.791  1.00  0.00     0.185 C 
BRANCH   5   6
HETATM    6  S   UNL     1      19.735  49.534  50.166  1.00  0.00    -0.081 SA
BRANCH   6   7
HETATM    7  C   UNL     1      18.328  50.378  49.663  1.00  0.00     0.185 A 
HETATM    8  N   UNL     1      17.624  50.101  48.539  1.00  0.00    -0.253 N 
HETATM    9  N   UNL     1      16.576  50.941  48.414  1.00  0.00    -0.152 NA
HETATM   10  H   UNL     1      17.794  49.393  47.835  1.00  0.00     0.191 HD
HETATM   11  C   UNL     1      16.699  51.710  49.513  1.00  0.00     0.182 A 
HETATM   12  N   UNL     1      17.763  51.356  50.314  1.00  0.00    -0.201 NA
BRANCH  11  13
HETATM   13  C   UNL     1      15.823  52.817  49.881  1.00  0.00     0.014 A 
HETATM   14  C   UNL     1      16.266  54.143  49.852  1.00  0.00     0.018 A 
HETATM   15  C   UNL     1      15.395  55.183  50.199  1.00  0.00     0.037 A 
HETATM   16  C   UNL     1      14.076  54.920  50.577  1.00  0.00     0.068 A 
HETATM   17  C   UNL     1      13.633  53.600  50.623  1.00  0.00     0.037 A 
HETATM   18  C   UNL     1      14.501  52.559  50.277  1.00  0.00     0.018 A 
BRANCH  16  19
HETATM   19  O   UNL     1      13.329  56.025  50.880  1.00  0.00    -0.356 OA
HETATM   20  C   UNL     1      12.095  55.794  51.551  1.00  0.00     0.210 C 
ENDBRANCH  16  19
ENDBRANCH  11  13
ENDBRANCH   6   7
ENDBRANCH   5   6
ENDBRANCH   1   5
BRANCH   2  21
HETATM   21  C   UNL     1      24.582  49.136  48.810  1.00  0.00     0.050 A 
HETATM   22  C   UNL     1      25.186  48.127  49.580  1.00  0.00     0.058 A 
HETATM   23  C   UNL     1      26.582  48.105  49.733  1.00  0.00     0.019 A 
HETATM   24  C   UNL     1      27.374  49.082  49.132  1.00  0.00     0.001 A 
HETATM   25  C   UNL     1      26.780  50.062  48.340  1.00  0.00     0.002 A 
HETATM   26  C   UNL     1      25.394  50.076  48.163  1.00  0.00     0.030 A 
BRANCH  22  27
HETATM   27  C   UNL     1      24.476  46.908  50.027  1.00  0.00     0.254 C 
HETATM   28  N   UNL     1      25.040  46.225  51.078  1.00  0.00    -0.352 N 
HETATM   29  H   UNL     1      25.839  46.651  51.552  1.00  0.00     0.163 HD
HETATM   30  O   UNL     1      23.466  46.555  49.423  1.00  0.00    -0.268 OA
BRANCH  28  31
HETATM   31  C   UNL     1      24.449  45.056  51.646  1.00  0.00     0.084 A 
HETATM   32  C   UNL     1      24.743  43.701  51.067  1.00  0.00     0.027 A 
HETATM   33  C   UNL     1      25.288  44.073  52.416  1.00  0.00     0.027 A 
ENDBRANCH  28  31
ENDBRANCH  22  27
ENDBRANCH   2  21
TORSDOF 8
ENDMDL
MODEL 9
REMARK VINA RESULT:      -7.8     12.154     14.792
REMARK  8 active torsions:
REMARK  status: ('A' for Active; 'I' for Inactive)
REMARK    1  A    between atoms: O_2  and  C_3 
REMARK    2  A    between atoms: C_6  and  C_7 
REMARK    3  A    between atoms: C_11  and  S_12 
REMARK    4  A    between atoms: S_12  and  C_13 
REMARK    5  A    between atoms: C_13  and  C_14 
REMARK       I    between atoms: C_14  and  N_15 
REMARK    6  A    between atoms: N_15  and  C_16 
REMARK    7  A    between atoms: C_17  and  C_18 
REMARK       I    between atoms: C_18  and  N_19 
REMARK    8  A    between atoms: N_19  and  C_20 
ROOT
HETATM    1  C   UNL     1      32.589  52.868  39.827  1.00  0.00     0.231 C 
HETATM    2  N   UNL     1      31.882  51.834  39.249  1.00  0.00    -0.326 N 
HETATM    3  O   UNL     1      32.091  53.663  40.628  1.00  0.00    -0.272 OA
HETATM    4  H   UNL     1      32.450  51.058  38.916  1.00  0.00     0.169 HD
ENDROOT
BRANCH   1   5
HETATM    5  C   UNL     1      34.026  53.045  39.349  1.00  0.00     0.185 C 
BRANCH   5   6
HETATM    6  S   UNL     1      35.042  51.529  39.412  1.00  0.00    -0.081 SA
BRANCH   6   7
HETATM    7  C   UNL     1      35.906  51.805  40.870  1.00  0.00     0.185 A 
HETATM    8  N   UNL     1      36.404  50.828  41.666  1.00  0.00    -0.253 N 
HETATM    9  N   UNL     1      37.025  51.360  42.740  1.00  0.00    -0.152 NA
HETATM   10  H   UNL     1      36.356  49.822  41.554  1.00  0.00     0.191 HD
HETATM   11  C   UNL     1      36.870  52.681  42.529  1.00  0.00     0.182 A 
HETATM   12  N   UNL     1      36.204  52.975  41.359  1.00  0.00    -0.201 NA
BRANCH  11  13
HETATM   13  C   UNL     1      37.343  53.745  43.407  1.00  0.00     0.014 A 
HETATM   14  C   UNL     1      37.977  54.884  42.904  1.00  0.00     0.018 A 
HETATM   15  C   UNL     1      38.408  55.893  43.774  1.00  0.00     0.037 A 
HETATM   16  C   UNL     1      38.211  55.784  45.153  1.00  0.00     0.068 A 
HETATM   17  C   UNL     1      37.594  54.644  45.663  1.00  0.00     0.037 A 
HETATM   18  C   UNL     1      37.163  53.634  44.796  1.00  0.00     0.018 A 
BRANCH  16  19
HETATM   19  O   UNL     1      38.667  56.843  45.889  1.00  0.00    -0.356 OA
HETATM   20  C   UNL     1      39.420  57.827  45.188  1.00  0.00     0.210 C 
ENDBRANCH  16  19
ENDBRANCH  11  13
ENDBRANCH   6   7
ENDBRANCH   5   6
ENDBRANCH   1   5
BRANCH   2  21
HETATM   21  C   UNL     1      30.534  51.548  39.533  1.00  0.00     0.050 A 
HETATM   22  C   UNL     1      30.108  50.770  40.623  1.00  0.00     0.058 A 
HETATM   23  C   UNL     1      28.736  50.598  40.866  1.00  0.00     0.019 A 
HETATM   24  C   UNL     1      27.790  51.187  40.028  1.00  0.00     0.001 A 
HETATM   25  C   UNL     1      28.210  51.987  38.968  1.00  0.00     0.002 A 
HETATM   26  C   UNL     1      29.574  52.183  38.735  1.00  0.00     0.030 A 
BRANCH  22  27
HETATM   27  C   UNL     1      31.009  50.333  41.714  1.00  0.00     0.254 C 
HETATM   28  N   UNL     1      31.422  51.308  42.591  1.00  0.00    -0.352 N 
HETATM   29  H   UNL     1      31.002  52.236  42.507  1.00  0.00     0.163 HD
HETATM   30  O   UNL     1      31.365  49.159  41.752  1.00  0.00    -0.268 OA
BRANCH  28  31
HETATM   31  C   UNL     1      32.257  51.032  43.715  1.00  0.00     0.084 A 
HETATM   32  C   UNL     1      33.551  51.773  43.898  1.00  0.00     0.027 A 
HETATM   33  C   UNL     1      32.400  52.037  44.825  1.00  0.00     0.027 A 
ENDBRANCH  28  31
ENDBRANCH  22  27
ENDBRANCH   2  21
TORSDOF 8
ENDMDL
MODEL 10
REMARK VINA RESULT:      -7.7      2.657      3.614
REMARK  8 active torsions:
REMARK  status: ('A' for Active; 'I' for Inactive)
REMARK    1  A    between atoms: O_2  and  C_3 
REMARK    2  A    between atoms: C_6  and  C_7 
REMARK    3  A    between atoms: C_11  and  S_12 
REMARK    4  A    between atoms: S_12  and  C_13 
REMARK    5  A    between atoms: C_13  and  C_14 
REMARK       I    between atoms: C_14  and  N_15 
REMARK    6  A    between atoms: N_15  and  C_16 
REMARK    7  A    between atoms: C_17  and  C_18 
REMARK       I    between atoms: C_18  and  N_19 
REMARK    8  A    between atoms: N_19  and  C_20 
ROOT
HETATM    1  C   UNL     1      22.357  46.117  47.753  1.00  0.00     0.231 C 
HETATM    2  N   UNL     1      22.379  46.919  48.875  1.00  0.00    -0.326 N 
HETATM    3  O   UNL     1      22.146  46.550  46.617  1.00  0.00    -0.272 OA
HETATM    4  H   UNL     1      22.904  46.544  49.662  1.00  0.00     0.169 HD
ENDROOT
BRANCH   1   5
HETATM    5  C   UNL     1      22.520  44.621  47.996  1.00  0.00     0.185 C 
BRANCH   5   6
HETATM    6  S   UNL     1      22.501  44.129  49.755  1.00  0.00    -0.081 SA
BRANCH   6   7
HETATM    7  C   UNL     1      24.184  44.163  50.095  1.00  0.00     0.185 A 
HETATM    8  N   UNL     1      25.160  44.139  49.156  1.00  0.00    -0.253 N 
HETATM    9  N   UNL     1      26.378  44.170  49.735  1.00  0.00    -0.152 NA
HETATM   10  H   UNL     1      25.078  44.095  48.147  1.00  0.00     0.191 HD
HETATM   11  C   UNL     1      26.067  44.218  51.044  1.00  0.00     0.182 A 
HETATM   12  N   UNL     1      24.710  44.245  51.285  1.00  0.00    -0.201 NA
BRANCH  11  13
HETATM   13  C   UNL     1      27.022  44.250  52.146  1.00  0.00     0.014 A 
HETATM   14  C   UNL     1      26.741  44.921  53.340  1.00  0.00     0.018 A 
HETATM   15  C   UNL     1      27.675  44.921  54.384  1.00  0.00     0.037 A 
HETATM   16  C   UNL     1      28.896  44.253  54.255  1.00  0.00     0.068 A 
HETATM   17  C   UNL     1      29.188  43.595  53.062  1.00  0.00     0.037 A 
HETATM   18  C   UNL     1      28.257  43.595  52.018  1.00  0.00     0.018 A 
BRANCH  16  19
HETATM   19  O   UNL     1      29.711  44.321  55.351  1.00  0.00    -0.356 OA
HETATM   20  C   UNL     1      30.664  43.274  55.501  1.00  0.00     0.210 C 
ENDBRANCH  16  19
ENDBRANCH  11  13
ENDBRANCH   6   7
ENDBRANCH   5   6
ENDBRANCH   1   5
BRANCH   2  21
HETATM   21  C   UNL     1      22.200  48.314  48.849  1.00  0.00     0.050 A 
HETATM   22  C   UNL     1      20.946  48.947  48.891  1.00  0.00     0.058 A 
HETATM   23  C   UNL     1      20.871  50.349  48.931  1.00  0.00     0.019 A 
HETATM   24  C   UNL     1      22.033  51.119  48.922  1.00  0.00     0.001 A 
HETATM   25  C   UNL     1      23.277  50.493  48.916  1.00  0.00     0.002 A 
HETATM   26  C   UNL     1      23.360  49.099  48.901  1.00  0.00     0.030 A 
BRANCH  22  27
HETATM   27  C   UNL     1      19.682  48.232  49.174  1.00  0.00     0.254 C 
HETATM   28  N   UNL     1      19.056  47.650  48.097  1.00  0.00    -0.352 N 
HETATM   29  H   UNL     1      19.548  47.649  47.201  1.00  0.00     0.163 HD
HETATM   30  O   UNL     1      19.246  48.233  50.322  1.00  0.00    -0.268 OA
BRANCH  28  31
HETATM   31  C   UNL     1      17.852  46.892  48.220  1.00  0.00     0.084 A 
HETATM   32  C   UNL     1      16.516  47.574  48.133  1.00  0.00     0.027 A 
HETATM   33  C   UNL     1      16.967  46.666  47.025  1.00  0.00     0.027 A 
ENDBRANCH  28  31
ENDBRANCH  22  27
ENDBRANCH   2  21
TORSDOF 8
ENDMDL
