MODEL 1
REMARK VINA RESULT:      -8.0      0.000      0.000
REMARK  6 active torsions:
REMARK  status: ('A' for Active; 'I' for Inactive)
REMARK    1  A    between atoms: C_6  and  C_7 
REMARK    2  A    between atoms: C_7  and  N_8 
REMARK    3  A    between atoms: C_7  and  C_24 
REMARK       I    between atoms: N_8  and  C_9 
REMARK       I    between atoms: C_9  and  N_10 
REMARK    4  A    between atoms: N_10  and  C_11 
REMARK    5  A    between atoms: C_14  and  C_15 
REMARK    6  A    between atoms: C_24  and  O_25 
ROOT
HETATM    1  N   UNL     1      24.188  46.798  49.720  1.00  0.00    -0.331 N 
HETATM    2  C   UNL     1      23.114  47.452  49.200  1.00  0.00     0.321 C 
HETATM    3  N   UNL     1      22.937  48.743  49.607  1.00  0.00    -0.309 N 
HETATM    4  O   UNL     1      22.409  46.828  48.412  1.00  0.00    -0.247 OA
HETATM    5  H   UNL     1      24.237  45.848  49.376  1.00  0.00     0.165 HD
HETATM    6  H   UNL     1      23.604  49.102  50.266  1.00  0.00     0.170 HD
ENDROOT
BRANCH   1   7
HETATM    7  C   UNL     1      25.182  47.200  50.710  1.00  0.00     0.161 C 
BRANCH   7   8
HETATM    8  C   UNL     1      25.474  46.024  51.589  1.00  0.00     0.056 A 
HETATM    9  N   UNL     1      25.782  46.132  52.926  1.00  0.00    -0.277 N 
HETATM   10  C   UNL     1      25.857  47.334  53.724  1.00  0.00     0.179 C 
HETATM   11  N   UNL     1      26.043  44.949  53.511  1.00  0.00    -0.185 NA
HETATM   12  C   UNL     1      25.876  44.060  52.533  1.00  0.00     0.141 A 
HETATM   13  C   UNL     1      25.529  44.667  51.318  1.00  0.00     0.050 A 
ENDBRANCH   7   8
BRANCH   7  14
HETATM   14  C   UNL     1      26.468  47.710  50.022  1.00  0.00     0.198 C 
BRANCH  14  15
HETATM   15  O   UNL     1      26.146  48.841  49.205  1.00  0.00    -0.394 OA
HETATM   16  C   UNL     1      27.304  49.581  48.844  1.00  0.00     0.201 C 
ENDBRANCH  14  15
ENDBRANCH   7  14
ENDBRANCH   1   7
BRANCH   3  17
HETATM   17  C   UNL     1      21.919  49.639  49.220  1.00  0.00     0.036 A 
HETATM   18  C   UNL     1      21.530  49.864  47.904  1.00  0.00     0.030 A 
HETATM   19  C   UNL     1      20.500  50.769  47.608  1.00  0.00     0.010 A 
HETATM   20  C   UNL     1      19.813  51.464  48.618  1.00  0.00    -0.054 A 
HETATM   21  C   UNL     1      20.242  51.254  49.935  1.00  0.00     0.010 A 
HETATM   22  C   UNL     1      21.269  50.348  50.233  1.00  0.00     0.030 A 
BRANCH  20  23
HETATM   23  C   UNL     1      18.706  52.455  48.246  1.00  0.00     0.018 C 
HETATM   24  C   UNL     1      17.892  52.038  46.998  1.00  0.00     0.009 C 
HETATM   25  C   UNL     1      16.940  50.878  47.284  1.00  0.00     0.001 C 
HETATM   26  C   UNL     1      15.976  51.217  48.416  1.00  0.00     0.000 C 
HETATM   27  C   UNL     1      16.712  51.681  49.670  1.00  0.00     0.001 C 
HETATM   28  C   UNL     1      17.700  52.811  49.367  1.00  0.00     0.009 C 
ENDBRANCH  20  23
ENDBRANCH   3  17
TORSDOF 6
ENDMDL
MODEL 2
REMARK VINA RESULT:      -7.9      1.761      2.698
REMARK  6 active torsions:
REMARK  status: ('A' for Active; 'I' for Inactive)
REMARK    1  A    between atoms: C_6  and  C_7 
REMARK    2  A    between atoms: C_7  and  N_8 
REMARK    3  A    between atoms: C_7  and  C_24 
REMARK       I    between atoms: N_8  and  C_9 
REMARK       I    between atoms: C_9  and  N_10 
REMARK    4  A    between atoms: N_10  and  C_11 
REMARK    5  A    between atoms: C_14  and  C_15 
REMARK    6  A    between atoms: C_24  and  O_25 
ROOT
HETATM    1  N   UNL     1      25.635  47.443  50.260  1.00  0.00    -0.331 N 
HETATM    2  C   UNL     1      24.808  48.277  49.573  1.00  0.00     0.321 C 
HETATM    3  N   UNL     1      23.470  48.125  49.801  1.00  0.00    -0.309 N 
HETATM    4  O   UNL     1      25.336  49.089  48.819  1.00  0.00    -0.247 OA
HETATM    5  H   UNL     1      26.602  47.615  50.025  1.00  0.00     0.165 HD
HETATM    6  H   UNL     1      23.203  47.403  50.446  1.00  0.00     0.170 HD
ENDROOT
BRANCH   1   7
HETATM    7  C   UNL     1      25.356  46.340  51.175  1.00  0.00     0.161 C 
BRANCH   7   8
HETATM    8  C   UNL     1      25.773  45.063  50.512  1.00  0.00     0.056 A 
HETATM    9  N   UNL     1      24.904  44.238  49.836  1.00  0.00    -0.277 N 
HETATM   10  C   UNL     1      23.489  44.434  49.612  1.00  0.00     0.179 C 
HETATM   11  N   UNL     1      25.488  43.128  49.351  1.00  0.00    -0.185 NA
HETATM   12  C   UNL     1      26.768  43.255  49.704  1.00  0.00     0.141 A 
HETATM   13  C   UNL     1      27.003  44.431  50.430  1.00  0.00     0.050 A 
ENDBRANCH   7   8
BRANCH   7  14
HETATM   14  C   UNL     1      26.100  46.535  52.515  1.00  0.00     0.198 C 
BRANCH  14  15
HETATM   15  O   UNL     1      25.485  47.607  53.239  1.00  0.00    -0.394 OA
HETATM   16  C   UNL     1      26.091  47.802  54.510  1.00  0.00     0.201 C 
ENDBRANCH  14  15
ENDBRANCH   7  14
ENDBRANCH   1   7
BRANCH   3  17
HETATM   17  C   UNL     1      22.408  48.857  49.230  1.00  0.00     0.036 A 
HETATM   18  C   UNL     1      21.484  48.331  48.334  1.00  0.00     0.030 A 
HETATM   19  C   UNL     1      20.451  49.129  47.821  1.00  0.00     0.010 A 
HETATM   20  C   UNL     1      20.297  50.474  48.200  1.00  0.00    -0.054 A 
HETATM   21  C   UNL     1      21.258  50.998  49.075  1.00  0.00     0.010 A 
HETATM   22  C   UNL     1      22.288  50.201  49.591  1.00  0.00     0.030 A 
BRANCH  20  23
HETATM   23  C   UNL     1      19.165  51.312  47.601  1.00  0.00     0.018 C 
HETATM   24  C   UNL     1      17.852  50.521  47.388  1.00  0.00     0.009 C 
HETATM   25  C   UNL     1      17.124  50.235  48.700  1.00  0.00     0.001 C 
HETATM   26  C   UNL     1      16.811  51.523  49.453  1.00  0.00     0.000 C 
HETATM   27  C   UNL     1      18.059  52.378  49.660  1.00  0.00     0.001 C 
HETATM   28  C   UNL     1      18.810  52.619  48.348  1.00  0.00     0.009 C 
ENDBRANCH  20  23
ENDBRANCH   3  17
TORSDOF 6
ENDMDL
MODEL 3
REMARK VINA RESULT:      -7.9      2.328      9.710
REMARK  6 active torsions:
REMARK  status: ('A' for Active; 'I' for Inactive)
REMARK    1  A    between atoms: C_6  and  C_7 
REMARK    2  A    between atoms: C_7  and  N_8 
REMARK    3  A    between atoms: C_7  and  C_24 
REMARK       I    between atoms: N_8  and  C_9 
REMARK       I    between atoms: C_9  and  N_10 
REMARK    4  A    between atoms: N_10  and  C_11 
REMARK    5  A    between atoms: C_14  and  C_15 
REMARK    6  A    between atoms: C_24  and  O_25 
ROOT
HETATM    1  N   UNL     1      23.714  48.278  49.259  1.00  0.00    -0.331 N 
HETATM    2  C   UNL     1      24.648  47.670  50.039  1.00  0.00     0.321 C 
HETATM    3  N   UNL     1      24.250  46.536  50.688  1.00  0.00    -0.309 N 
HETATM    4  O   UNL     1      25.760  48.188  50.083  1.00  0.00    -0.247 OA
HETATM    5  H   UNL     1      24.087  49.112  48.826  1.00  0.00     0.165 HD
HETATM    6  H   UNL     1      23.297  46.251  50.549  1.00  0.00     0.170 HD
ENDROOT
BRANCH   1   7
HETATM    7  C   UNL     1      22.304  47.981  49.026  1.00  0.00     0.161 C 
BRANCH   7   8
HETATM    8  C   UNL     1      21.566  49.277  48.885  1.00  0.00     0.056 A 
HETATM    9  N   UNL     1      20.253  49.449  49.258  1.00  0.00    -0.277 N 
HETATM   10  C   UNL     1      19.367  48.477  49.856  1.00  0.00     0.179 C 
HETATM   11  N   UNL     1      19.785  50.685  49.008  1.00  0.00    -0.185 NA
HETATM   12  C   UNL     1      20.828  51.328  48.484  1.00  0.00     0.141 A 
HETATM   13  C   UNL     1      21.958  50.505  48.378  1.00  0.00     0.050 A 
ENDBRANCH   7   8
BRANCH   7  14
HETATM   14  C   UNL     1      22.128  47.105  47.766  1.00  0.00     0.198 C 
BRANCH  14  15
HETATM   15  O   UNL     1      22.585  45.778  48.051  1.00  0.00    -0.394 OA
HETATM   16  C   UNL     1      21.570  44.986  48.653  1.00  0.00     0.201 C 
ENDBRANCH  14  15
ENDBRANCH   7  14
ENDBRANCH   1   7
BRANCH   3  17
HETATM   17  C   UNL     1      25.014  45.717  51.544  1.00  0.00     0.036 A 
HETATM   18  C   UNL     1      25.628  46.157  52.711  1.00  0.00     0.030 A 
HETATM   19  C   UNL     1      26.365  45.269  53.509  1.00  0.00     0.010 A 
HETATM   20  C   UNL     1      26.496  43.910  53.178  1.00  0.00    -0.054 A 
HETATM   21  C   UNL     1      25.902  43.491  51.980  1.00  0.00     0.010 A 
HETATM   22  C   UNL     1      25.163  44.376  51.182  1.00  0.00     0.030 A 
BRANCH  20  23
HETATM   23  C   UNL     1      27.324  42.982  54.071  1.00  0.00     0.018 C 
HETATM   24  C   UNL     1      27.887  41.745  53.329  1.00  0.00     0.009 C 
HETATM   25  C   UNL     1      29.045  42.101  52.398  1.00  0.00     0.001 C 
HETATM   26  C   UNL     1      30.177  42.783  53.157  1.00  0.00     0.000 C 
HETATM   27  C   UNL     1      29.685  43.989  53.951  1.00  0.00     0.001 C 
HETATM   28  C   UNL     1      28.492  43.637  54.845  1.00  0.00     0.009 C 
ENDBRANCH  20  23
ENDBRANCH   3  17
TORSDOF 6
ENDMDL
MODEL 4
REMARK VINA RESULT:      -7.3      2.799      4.821
REMARK  6 active torsions:
REMARK  status: ('A' for Active; 'I' for Inactive)
REMARK    1  A    between atoms: C_6  and  C_7 
REMARK    2  A    between atoms: C_7  and  N_8 
REMARK    3  A    between atoms: C_7  and  C_24 
REMARK       I    between atoms: N_8  and  C_9 
REMARK       I    between atoms: C_9  and  N_10 
REMARK    4  A    between atoms: N_10  and  C_11 
REMARK    5  A    between atoms: C_14  and  C_15 
REMARK    6  A    between atoms: C_24  and  O_25 
ROOT
HETATM    1  N   UNL     1      27.420  44.644  50.969  1.00  0.00    -0.331 N 
HETATM    2  C   UNL     1      26.695  45.454  50.150  1.00  0.00     0.321 C 
HETATM    3  N   UNL     1      25.392  45.661  50.503  1.00  0.00    -0.309 N 
HETATM    4  O   UNL     1      27.275  45.926  49.177  1.00  0.00    -0.247 OA
HETATM    5  H   UNL     1      28.366  44.536  50.630  1.00  0.00     0.165 HD
HETATM    6  H   UNL     1      25.071  45.190  51.330  1.00  0.00     0.170 HD
ENDROOT
BRANCH   1   7
HETATM    7  C   UNL     1      27.046  43.878  52.154  1.00  0.00     0.161 C 
BRANCH   7   8
HETATM    8  C   UNL     1      27.727  42.546  52.088  1.00  0.00     0.056 A 
HETATM    9  N   UNL     1      27.231  41.473  51.383  1.00  0.00    -0.277 N 
HETATM   10  C   UNL     1      26.031  41.418  50.580  1.00  0.00     0.179 C 
HETATM   11  N   UNL     1      27.988  40.367  51.493  1.00  0.00    -0.185 NA
HETATM   12  C   UNL     1      29.005  40.745  52.267  1.00  0.00     0.141 A 
HETATM   13  C   UNL     1      28.894  42.083  52.671  1.00  0.00     0.050 A 
ENDBRANCH   7   8
BRANCH   7  14
HETATM   14  C   UNL     1      27.436  44.635  53.443  1.00  0.00     0.198 C 
BRANCH  14  15
HETATM   15  O   UNL     1      26.623  44.167  54.525  1.00  0.00    -0.394 OA
HETATM   16  C   UNL     1      25.242  44.404  54.291  1.00  0.00     0.201 C 
ENDBRANCH  14  15
ENDBRANCH   7  14
ENDBRANCH   1   7
BRANCH   3  17
HETATM   17  C   UNL     1      24.433  46.454  49.840  1.00  0.00     0.036 A 
HETATM   18  C   UNL     1      23.383  45.946  49.083  1.00  0.00     0.030 A 
HETATM   19  C   UNL     1      22.467  46.809  48.463  1.00  0.00     0.010 A 
HETATM   20  C   UNL     1      22.559  48.205  48.595  1.00  0.00    -0.054 A 
HETATM   21  C   UNL     1      23.644  48.701  49.331  1.00  0.00     0.010 A 
HETATM   22  C   UNL     1      24.558  47.840  49.953  1.00  0.00     0.030 A 
BRANCH  20  23
HETATM   23  C   UNL     1      21.546  49.108  47.886  1.00  0.00     0.018 C 
HETATM   24  C   UNL     1      20.076  48.664  48.079  1.00  0.00     0.009 C 
HETATM   25  C   UNL     1      19.557  48.962  49.485  1.00  0.00     0.001 C 
HETATM   26  C   UNL     1      19.677  50.445  49.818  1.00  0.00     0.000 C 
HETATM   27  C   UNL     1      21.096  50.963  49.606  1.00  0.00     0.001 C 
HETATM   28  C   UNL     1      21.628  50.618  48.212  1.00  0.00     0.009 C 
ENDBRANCH  20  23
ENDBRANCH   3  17
TORSDOF 6
ENDMDL
MODEL 5
REMARK VINA RESULT:      -7.2      2.965      5.046
REMARK  6 active torsions:
REMARK  status: ('A' for Active; 'I' for Inactive)
REMARK    1  A    between atoms: C_6  and  C_7 
REMARK    2  A    between atoms: C_7  and  N_8 
REMARK    3  A    between atoms: C_7  and  C_24 
REMARK       I    between atoms: N_8  and  C_9 
REMARK       I    between atoms: C_9  and  N_10 
REMARK    4  A    between atoms: N_10  and  C_11 
REMARK    5  A    between atoms: C_14  and  C_15 
REMARK    6  A    between atoms: C_24  and  O_25 
ROOT
HETATM    1  N   UNL     1      26.473  43.997  52.666  1.00  0.00    -0.331 N 
HETATM    2  C   UNL     1      25.461  44.753  52.161  1.00  0.00     0.321 C 
HETATM    3  N   UNL     1      25.717  45.398  50.984  1.00  0.00    -0.309 N 
HETATM    4  O   UNL     1      24.414  44.783  52.800  1.00  0.00    -0.247 OA
HETATM    5  H   UNL     1      26.204  43.566  53.540  1.00  0.00     0.165 HD
HETATM    6  H   UNL     1      26.634  45.273  50.594  1.00  0.00     0.170 HD
ENDROOT
BRANCH   1   7
HETATM    7  C   UNL     1      27.845  43.787  52.214  1.00  0.00     0.161 C 
BRANCH   7   8
HETATM    8  C   UNL     1      28.729  43.690  53.419  1.00  0.00     0.056 A 
HETATM    9  N   UNL     1      28.820  44.676  54.375  1.00  0.00    -0.277 N 
HETATM   10  C   UNL     1      28.102  45.929  54.428  1.00  0.00     0.179 C 
HETATM   11  N   UNL     1      29.702  44.393  55.350  1.00  0.00    -0.185 NA
HETATM   12  C   UNL     1      30.170  43.188  55.025  1.00  0.00     0.141 A 
HETATM   13  C   UNL     1      29.608  42.705  53.835  1.00  0.00     0.050 A 
ENDBRANCH   7   8
BRANCH   7  14
HETATM   14  C   UNL     1      27.948  42.510  51.349  1.00  0.00     0.198 C 
BRANCH  14  15
HETATM   15  O   UNL     1      27.273  42.730  50.106  1.00  0.00    -0.394 OA
HETATM   16  C   UNL     1      26.278  41.746  49.862  1.00  0.00     0.201 C 
ENDBRANCH  14  15
ENDBRANCH   7  14
ENDBRANCH   1   7
BRANCH   3  17
HETATM   17  C   UNL     1      24.849  46.231  50.249  1.00  0.00     0.036 A 
HETATM   18  C   UNL     1      24.920  47.620  50.233  1.00  0.00     0.030 A 
HETATM   19  C   UNL     1      24.019  48.372  49.465  1.00  0.00     0.010 A 
HETATM   20  C   UNL     1      23.030  47.762  48.674  1.00  0.00    -0.054 A 
HETATM   21  C   UNL     1      22.949  46.364  48.731  1.00  0.00     0.010 A 
HETATM   22  C   UNL     1      23.850  45.611  49.495  1.00  0.00     0.030 A 
BRANCH  20  23
HETATM   23  C   UNL     1      22.058  48.625  47.865  1.00  0.00     0.018 C 
HETATM   24  C   UNL     1      20.591  48.526  48.348  1.00  0.00     0.009 C 
HETATM   25  C   UNL     1      20.359  49.266  49.664  1.00  0.00     0.001 C 
HETATM   26  C   UNL     1      20.748  50.736  49.550  1.00  0.00     0.000 C 
HETATM   27  C   UNL     1      22.173  50.909  49.035  1.00  0.00     0.001 C 
HETATM   28  C   UNL     1      22.413  50.126  47.741  1.00  0.00     0.009 C 
ENDBRANCH  20  23
ENDBRANCH   3  17
TORSDOF 6
ENDMDL
MODEL 6
REMARK VINA RESULT:      -7.0     10.776     13.036
REMARK  6 active torsions:
REMARK  status: ('A' for Active; 'I' for Inactive)
REMARK    1  A    between atoms: C_6  and  C_7 
REMARK    2  A    between atoms: C_7  and  N_8 
REMARK    3  A    between atoms: C_7  and  C_24 
REMARK       I    between atoms: N_8  and  C_9 
REMARK       I    between atoms: C_9  and  N_10 
REMARK    4  A    between atoms: N_10  and  C_11 
REMARK    5  A    between atoms: C_14  and  C_15 
REMARK    6  A    between atoms: C_24  and  O_25 
ROOT
HETATM    1  N   UNL     1      33.243  49.228  40.817  1.00  0.00    -0.331 N 
HETATM    2  C   UNL     1      32.369  48.187  40.767  1.00  0.00     0.321 C 
HETATM    3  N   UNL     1      31.061  48.505  40.534  1.00  0.00    -0.309 N 
HETATM    4  O   UNL     1      32.831  47.062  40.930  1.00  0.00    -0.247 OA
HETATM    5  H   UNL     1      34.183  48.906  41.005  1.00  0.00     0.165 HD
HETATM    6  H   UNL     1      30.849  49.481  40.431  1.00  0.00     0.170 HD
ENDROOT
BRANCH   1   7
HETATM    7  C   UNL     1      33.038  50.671  40.731  1.00  0.00     0.161 C 
BRANCH   7   8
HETATM    8  C   UNL     1      32.935  51.216  42.122  1.00  0.00     0.056 A 
HETATM    9  N   UNL     1      31.772  51.722  42.656  1.00  0.00    -0.277 N 
HETATM   10  C   UNL     1      30.472  51.804  42.031  1.00  0.00     0.179 C 
HETATM   11  N   UNL     1      31.919  52.189  43.909  1.00  0.00    -0.185 NA
HETATM   12  C   UNL     1      33.200  51.956  44.194  1.00  0.00     0.141 A 
HETATM   13  C   UNL     1      33.881  51.360  43.123  1.00  0.00     0.050 A 
ENDBRANCH   7   8
BRANCH   7  14
HETATM   14  C   UNL     1      34.194  51.345  39.958  1.00  0.00     0.198 C 
BRANCH  14  15
HETATM   15  O   UNL     1      33.658  52.041  38.827  1.00  0.00    -0.394 OA
HETATM   16  C   UNL     1      32.476  51.422  38.337  1.00  0.00     0.201 C 
ENDBRANCH  14  15
ENDBRANCH   7  14
ENDBRANCH   1   7
BRANCH   3  17
HETATM   17  C   UNL     1      29.964  47.627  40.427  1.00  0.00     0.036 A 
HETATM   18  C   UNL     1      29.939  46.495  39.620  1.00  0.00     0.030 A 
HETATM   19  C   UNL     1      28.806  45.669  39.581  1.00  0.00     0.010 A 
HETATM   20  C   UNL     1      27.668  45.936  40.361  1.00  0.00    -0.054 A 
HETATM   21  C   UNL     1      27.695  47.100  41.141  1.00  0.00     0.010 A 
HETATM   22  C   UNL     1      28.828  47.925  41.183  1.00  0.00     0.030 A 
BRANCH  20  23
HETATM   23  C   UNL     1      26.448  45.016  40.273  1.00  0.00     0.018 C 
HETATM   24  C   UNL     1      26.805  43.510  40.248  1.00  0.00     0.009 C 
HETATM   25  C   UNL     1      27.260  42.997  41.613  1.00  0.00     0.001 C 
HETATM   26  C   UNL     1      26.197  43.238  42.679  1.00  0.00     0.000 C 
HETATM   27  C   UNL     1      25.763  44.700  42.729  1.00  0.00     0.001 C 
HETATM   28  C   UNL     1      25.355  45.222  41.349  1.00  0.00     0.009 C 
ENDBRANCH  20  23
ENDBRANCH   3  17
TORSDOF 6
ENDMDL
MODEL 7
REMARK VINA RESULT:      -6.9     11.679     14.340
REMARK  6 active torsions:
REMARK  status: ('A' for Active; 'I' for Inactive)
REMARK    1  A    between atoms: C_6  and  C_7 
REMARK    2  A    between atoms: C_7  and  N_8 
REMARK    3  A    between atoms: C_7  and  C_24 
REMARK       I    between atoms: N_8  and  C_9 
REMARK       I    between atoms: C_9  and  N_10 
REMARK    4  A    between atoms: N_10  and  C_11 
REMARK    5  A    between atoms: C_14  and  C_15 
REMARK    6  A    between atoms: C_24  and  O_25 
ROOT
HETATM    1  N   UNL     1      35.256  52.319  44.050  1.00  0.00    -0.331 N 
HETATM    2  C   UNL     1      33.947  51.955  43.983  1.00  0.00     0.321 C 
HETATM    3  N   UNL     1      33.478  51.606  42.749  1.00  0.00    -0.309 N 
HETATM    4  O   UNL     1      33.310  51.968  45.032  1.00  0.00    -0.247 OA
HETATM    5  H   UNL     1      35.516  52.571  44.994  1.00  0.00     0.165 HD
HETATM    6  H   UNL     1      34.133  51.658  41.989  1.00  0.00     0.170 HD
ENDROOT
BRANCH   1   7
HETATM    7  C   UNL     1      36.272  52.476  43.015  1.00  0.00     0.161 C 
BRANCH   7   8
HETATM    8  C   UNL     1      37.114  53.666  43.357  1.00  0.00     0.056 A 
HETATM    9  N   UNL     1      37.539  54.589  42.429  1.00  0.00    -0.277 N 
HETATM   10  C   UNL     1      37.254  54.617  41.013  1.00  0.00     0.179 C 
HETATM   11  N   UNL     1      38.313  55.556  42.954  1.00  0.00    -0.185 NA
HETATM   12  C   UNL     1      38.368  55.260  44.252  1.00  0.00     0.141 A 
HETATM   13  C   UNL     1      37.648  54.096  44.560  1.00  0.00     0.050 A 
ENDBRANCH   7   8
BRANCH   7  14
HETATM   14  C   UNL     1      37.139  51.201  42.898  1.00  0.00     0.198 C 
BRANCH  14  15
HETATM   15  O   UNL     1      36.428  50.221  42.133  1.00  0.00    -0.394 OA
HETATM   16  C   UNL     1      36.323  50.591  40.765  1.00  0.00     0.201 C 
ENDBRANCH  14  15
ENDBRANCH   7  14
ENDBRANCH   1   7
BRANCH   3  17
HETATM   17  C   UNL     1      32.176  51.186  42.406  1.00  0.00     0.036 A 
HETATM   18  C   UNL     1      31.755  49.861  42.396  1.00  0.00     0.030 A 
HETATM   19  C   UNL     1      30.437  49.533  42.049  1.00  0.00     0.010 A 
HETATM   20  C   UNL     1      29.491  50.518  41.720  1.00  0.00    -0.054 A 
HETATM   21  C   UNL     1      29.941  51.845  41.699  1.00  0.00     0.010 A 
HETATM   22  C   UNL     1      31.257  52.175  42.048  1.00  0.00     0.030 A 
BRANCH  20  23
HETATM   23  C   UNL     1      28.066  50.111  41.331  1.00  0.00     0.018 C 
HETATM   24  C   UNL     1      27.336  51.162  40.461  1.00  0.00     0.009 C 
HETATM   25  C   UNL     1      27.859  51.197  39.026  1.00  0.00     0.001 C 
HETATM   26  C   UNL     1      27.741  49.831  38.360  1.00  0.00     0.000 C 
HETATM   27  C   UNL     1      28.403  48.734  39.189  1.00  0.00     0.001 C 
HETATM   28  C   UNL     1      27.911  48.737  40.638  1.00  0.00     0.009 C 
ENDBRANCH  20  23
ENDBRANCH   3  17
TORSDOF 6
ENDMDL
MODEL 8
REMARK VINA RESULT:      -6.8      4.800     10.919
REMARK  6 active torsions:
REMARK  status: ('A' for Active; 'I' for Inactive)
REMARK    1  A    between atoms: C_6  and  C_7 
REMARK    2  A    between atoms: C_7  and  N_8 
REMARK    3  A    between atoms: C_7  and  C_24 
REMARK       I    between atoms: N_8  and  C_9 
REMARK       I    between atoms: C_9  and  N_10 
REMARK    4  A    between atoms: N_10  and  C_11 
REMARK    5  A    between atoms: C_14  and  C_15 
REMARK    6  A    between atoms: C_24  and  O_25 
ROOT
HETATM    1  N   UNL     1      24.878  45.316  50.167  1.00  0.00    -0.331 N 
HETATM    2  C   UNL     1      25.187  44.014  49.920  1.00  0.00     0.321 C 
HETATM    3  N   UNL     1      26.502  43.669  50.046  1.00  0.00    -0.309 N 
HETATM    4  O   UNL     1      24.260  43.270  49.613  1.00  0.00    -0.247 OA
HETATM    5  H   UNL     1      23.890  45.486  50.040  1.00  0.00     0.165 HD
HETATM    6  H   UNL     1      27.137  44.405  50.298  1.00  0.00     0.170 HD
ENDROOT
BRANCH   1   7
HETATM    7  C   UNL     1      25.717  46.466  50.488  1.00  0.00     0.161 C 
BRANCH   7   8
HETATM    8  C   UNL     1      25.169  47.663  49.773  1.00  0.00     0.056 A 
HETATM    9  N   UNL     1      25.958  48.647  49.222  1.00  0.00    -0.277 N 
HETATM   10  C   UNL     1      27.401  48.714  49.195  1.00  0.00     0.179 C 
HETATM   11  N   UNL     1      25.252  49.644  48.661  1.00  0.00    -0.185 NA
HETATM   12  C   UNL     1      23.982  49.282  48.835  1.00  0.00     0.141 A 
HETATM   13  C   UNL     1      23.868  48.065  49.523  1.00  0.00     0.050 A 
ENDBRANCH   7   8
BRANCH   7  14
HETATM   14  C   UNL     1      25.760  46.706  52.014  1.00  0.00     0.198 C 
BRANCH  14  15
HETATM   15  O   UNL     1      26.524  45.663  52.630  1.00  0.00    -0.394 OA
HETATM   16  C   UNL     1      25.794  45.011  53.661  1.00  0.00     0.201 C 
ENDBRANCH  14  15
ENDBRANCH   7  14
ENDBRANCH   1   7
BRANCH   3  17
HETATM   17  C   UNL     1      27.085  42.399  49.857  1.00  0.00     0.036 A 
HETATM   18  C   UNL     1      27.586  41.604  50.881  1.00  0.00     0.030 A 
HETATM   19  C   UNL     1      28.142  40.347  50.604  1.00  0.00     0.010 A 
HETATM   20  C   UNL     1      28.199  39.835  49.297  1.00  0.00    -0.054 A 
HETATM   21  C   UNL     1      27.722  40.663  48.272  1.00  0.00     0.010 A 
HETATM   22  C   UNL     1      27.164  41.919  48.548  1.00  0.00     0.030 A 
BRANCH  20  23
HETATM   23  C   UNL     1      28.830  38.464  49.039  1.00  0.00     0.018 C 
HETATM   24  C   UNL     1      28.319  37.356  49.991  1.00  0.00     0.009 C 
HETATM   25  C   UNL     1      26.897  36.910  49.657  1.00  0.00     0.001 C 
HETATM   26  C   UNL     1      26.793  36.417  48.219  1.00  0.00     0.000 C 
HETATM   27  C   UNL     1      27.323  37.446  47.224  1.00  0.00     0.001 C 
HETATM   28  C   UNL     1      28.730  37.924  47.592  1.00  0.00     0.009 C 
ENDBRANCH  20  23
ENDBRANCH   3  17
TORSDOF 6
ENDMDL
MODEL 9
REMARK VINA RESULT:      -6.7      1.606      2.220
REMARK  6 active torsions:
REMARK  status: ('A' for Active; 'I' for Inactive)
REMARK    1  A    between atoms: C_6  and  C_7 
REMARK    2  A    between atoms: C_7  and  N_8 
REMARK    3  A    between atoms: C_7  and  C_24 
REMARK       I    between atoms: N_8  and  C_9 
REMARK       I    between atoms: C_9  and  N_10 
REMARK    4  A    between atoms: N_10  and  C_11 
REMARK    5  A    between atoms: C_14  and  C_15 
REMARK    6  A    between atoms: C_24  and  O_25 
ROOT
HETATM    1  N   UNL     1      24.669  44.912  49.679  1.00  0.00    -0.331 N 
HETATM    2  C   UNL     1      23.725  45.632  49.013  1.00  0.00     0.321 C 
HETATM    3  N   UNL     1      23.378  46.832  49.566  1.00  0.00    -0.309 N 
HETATM    4  O   UNL     1      23.278  45.144  47.979  1.00  0.00    -0.247 OA
HETATM    5  H   UNL     1      24.857  44.037  49.209  1.00  0.00     0.165 HD
HETATM    6  H   UNL     1      23.836  47.080  50.424  1.00  0.00     0.170 HD
ENDROOT
BRANCH   1   7
HETATM    7  C   UNL     1      25.356  45.151  50.944  1.00  0.00     0.161 C 
BRANCH   7   8
HETATM    8  C   UNL     1      26.241  43.977  51.228  1.00  0.00     0.056 A 
HETATM    9  N   UNL     1      26.488  43.500  52.495  1.00  0.00    -0.277 N 
HETATM   10  C   UNL     1      25.953  43.988  53.746  1.00  0.00     0.179 C 
HETATM   11  N   UNL     1      27.340  42.460  52.518  1.00  0.00    -0.185 NA
HETATM   12  C   UNL     1      27.629  42.249  51.234  1.00  0.00     0.141 A 
HETATM   13  C   UNL     1      26.982  43.162  50.389  1.00  0.00     0.050 A 
ENDBRANCH   7   8
BRANCH   7  14
HETATM   14  C   UNL     1      26.176  46.460  50.884  1.00  0.00     0.198 C 
BRANCH  14  15
HETATM   15  O   UNL     1      26.655  46.652  49.548  1.00  0.00    -0.394 OA
HETATM   16  C   UNL     1      26.814  48.029  49.236  1.00  0.00     0.201 C 
ENDBRANCH  14  15
ENDBRANCH   7  14
ENDBRANCH   1   7
BRANCH   3  17
HETATM   17  C   UNL     1      22.442  47.768  49.081  1.00  0.00     0.036 A 
HETATM   18  C   UNL     1      21.239  47.431  48.469  1.00  0.00     0.030 A 
HETATM   19  C   UNL     1      20.361  48.429  48.023  1.00  0.00     0.010 A 
HETATM   20  C   UNL     1      20.645  49.795  48.189  1.00  0.00    -0.054 A 
HETATM   21  C   UNL     1      21.877  50.117  48.774  1.00  0.00     0.010 A 
HETATM   22  C   UNL     1      22.755  49.121  49.223  1.00  0.00     0.030 A 
BRANCH  20  23
HETATM   23  C   UNL     1      19.664  50.849  47.671  1.00  0.00     0.018 C 
HETATM   24  C   UNL     1      18.227  50.312  47.462  1.00  0.00     0.009 C 
HETATM   25  C   UNL     1      17.492  50.085  48.782  1.00  0.00     0.001 C 
HETATM   26  C   UNL     1      17.429  51.363  49.609  1.00  0.00     0.000 C 
HETATM   27  C   UNL     1      18.811  51.975  49.817  1.00  0.00     0.001 C 
HETATM   28  C   UNL     1      19.562  52.155  48.494  1.00  0.00     0.009 C 
ENDBRANCH  20  23
ENDBRANCH   3  17
TORSDOF 6
ENDMDL
MODEL 10
REMARK VINA RESULT:      -6.6      3.024      4.818
REMARK  6 active torsions:
REMARK  status: ('A' for Active; 'I' for Inactive)
REMARK    1  A    between atoms: C_6  and  C_7 
REMARK    2  A    between atoms: C_7  and  N_8 
REMARK    3  A    between atoms: C_7  and  C_24 
REMARK       I    between atoms: N_8  and  C_9 
REMARK       I    between atoms: C_9  and  N_10 
REMARK    4  A    between atoms: N_10  and  C_11 
REMARK    5  A    between atoms: C_14  and  C_15 
REMARK    6  A    between atoms: C_24  and  O_25 
ROOT
HETATM    1  N   UNL     1      24.097  42.643  49.986  1.00  0.00    -0.331 N 
HETATM    2  C   UNL     1      23.403  43.812  49.931  1.00  0.00     0.321 C 
HETATM    3  N   UNL     1      23.874  44.756  49.063  1.00  0.00    -0.309 N 
HETATM    4  O   UNL     1      22.419  43.911  50.659  1.00  0.00    -0.247 OA
HETATM    5  H   UNL     1      23.688  42.008  50.658  1.00  0.00     0.165 HD
HETATM    6  H   UNL     1      24.701  44.516  48.546  1.00  0.00     0.170 HD
ENDROOT
BRANCH   1   7
HETATM    7  C   UNL     1      25.323  42.212  49.322  1.00  0.00     0.161 C 
BRANCH   7   8
HETATM    8  C   UNL     1      26.370  41.983  50.369  1.00  0.00     0.056 A 
HETATM    9  N   UNL     1      27.211  42.970  50.832  1.00  0.00    -0.277 N 
HETATM   10  C   UNL     1      27.242  44.361  50.445  1.00  0.00     0.179 C 
HETATM   11  N   UNL     1      28.095  42.531  51.745  1.00  0.00    -0.185 NA
HETATM   12  C   UNL     1      27.800  41.240  51.890  1.00  0.00     0.141 A 
HETATM   13  C   UNL     1      26.743  40.842  51.059  1.00  0.00     0.050 A 
ENDBRANCH   7   8
BRANCH   7  14
HETATM   14  C   UNL     1      25.080  40.930  48.495  1.00  0.00     0.198 C 
BRANCH  14  15
HETATM   15  O   UNL     1      24.282  41.255  47.351  1.00  0.00    -0.394 OA
HETATM   16  C   UNL     1      23.102  40.465  47.287  1.00  0.00     0.201 C 
ENDBRANCH  14  15
ENDBRANCH   7  14
ENDBRANCH   1   7
BRANCH   3  17
HETATM   17  C   UNL     1      23.344  46.037  48.810  1.00  0.00     0.036 A 
HETATM   18  C   UNL     1      23.792  47.206  49.416  1.00  0.00     0.030 A 
HETATM   19  C   UNL     1      23.212  48.443  49.097  1.00  0.00     0.010 A 
HETATM   20  C   UNL     1      22.181  48.556  48.150  1.00  0.00    -0.054 A 
HETATM   21  C   UNL     1      21.717  47.364  47.576  1.00  0.00     0.010 A 
HETATM   22  C   UNL     1      22.297  46.128  47.890  1.00  0.00     0.030 A 
BRANCH  20  23
HETATM   23  C   UNL     1      21.567  49.925  47.847  1.00  0.00     0.018 C 
HETATM   24  C   UNL     1      20.027  49.895  47.694  1.00  0.00     0.009 C 
HETATM   25  C   UNL     1      19.311  49.724  49.032  1.00  0.00     0.001 C 
HETATM   26  C   UNL     1      19.692  50.828  50.011  1.00  0.00     0.000 C 
HETATM   27  C   UNL     1      21.205  50.945  50.177  1.00  0.00     0.001 C 
HETATM   28  C   UNL     1      21.920  51.067  48.829  1.00  0.00     0.009 C 
ENDBRANCH  20  23
ENDBRANCH   3  17
TORSDOF 6
ENDMDL
