MODEL 1
REMARK VINA RESULT:      -9.5      0.000      0.000
REMARK  5 active torsions:
REMARK  status: ('A' for Active; 'I' for Inactive)
REMARK    1  A    between atoms: C_7  and  C_8 
REMARK    2  A    between atoms: C_8  and  O_9 
REMARK    3  A    between atoms: N_12  and  C_13 
REMARK    4  A    between atoms: C_13  and  C_14 
REMARK    5  A    between atoms: C_14  and  C_15 
ROOT
HETATM    1  C   UNL     1      26.084  43.569  52.376  1.00  0.00     0.199 A 
HETATM    2  C   UNL     1      26.739  43.853  53.758  1.00  0.00     0.269 A 
HETATM    3  O   UNL     1      26.852  43.052  54.679  1.00  0.00    -0.269 OA
HETATM    4  N   UNL     1      27.047  45.227  53.805  1.00  0.00    -0.314 N 
HETATM    5  C   UNL     1      26.656  45.862  52.613  1.00  0.00     0.047 A 
HETATM    6  C   UNL     1      26.100  44.929  51.730  1.00  0.00     0.017 A 
HETATM    7  C   UNL     1      26.743  47.203  52.278  1.00  0.00     0.030 A 
HETATM    8  C   UNL     1      26.254  47.606  51.031  1.00  0.00     0.002 A 
HETATM    9  C   UNL     1      25.684  46.676  50.148  1.00  0.00     0.001 A 
HETATM   10  C   UNL     1      25.600  45.328  50.496  1.00  0.00     0.013 A 
ENDROOT
BRANCH   1  11
HETATM   11  C   UNL     1      26.843  42.623  51.474  1.00  0.00     0.025 A 
HETATM   12  C   UNL     1      28.197  42.293  51.578  1.00  0.00     0.016 A 
HETATM   13  C   UNL     1      29.246  42.730  52.540  1.00  0.00     0.069 C 
HETATM   14  N   UNL     1      28.499  41.400  50.584  1.00  0.00    -0.359 N 
HETATM   15  H   UNL     1      29.410  40.993  50.426  1.00  0.00     0.166 HD
HETATM   16  C   UNL     1      27.386  41.102  49.844  1.00  0.00     0.043 A 
HETATM   17  C   UNL     1      26.329  41.850  50.365  1.00  0.00     0.003 A 
HETATM   18  C   UNL     1      27.247  40.224  48.762  1.00  0.00     0.030 A 
HETATM   19  C   UNL     1      25.061  41.698  49.758  1.00  0.00     0.014 A 
HETATM   20  C   UNL     1      24.903  40.823  48.675  1.00  0.00     0.001 A 
HETATM   21  C   UNL     1      25.983  40.097  48.184  1.00  0.00     0.002 A 
ENDBRANCH   1  11
BRANCH   1  22
HETATM   22  O   UNL     1      24.735  43.163  52.608  1.00  0.00    -0.371 OA
HETATM   23  H   UNL     1      24.331  43.931  53.051  1.00  0.00     0.212 HD
ENDBRANCH   1  22
BRANCH   4  24
HETATM   24  C   UNL     1      27.338  45.920  55.045  1.00  0.00     0.137 C 
BRANCH  24  25
HETATM   25  C   UNL     1      28.767  46.464  55.141  1.00  0.00     0.058 C 
BRANCH  25  26
HETATM   26  C   UNL     1      29.607  45.570  56.024  1.00  0.00    -0.057 A 
HETATM   27  C   UNL     1      29.859  45.933  57.356  1.00  0.00     0.007 A 
HETATM   28  C   UNL     1      30.694  45.152  58.157  1.00  0.00     0.001 A 
HETATM   29  C   UNL     1      31.282  44.000  57.637  1.00  0.00     0.000 A 
HETATM   30  C   UNL     1      31.032  43.627  56.317  1.00  0.00     0.001 A 
HETATM   31  C   UNL     1      30.200  44.409  55.513  1.00  0.00     0.007 A 
ENDBRANCH  25  26
ENDBRANCH  24  25
ENDBRANCH   4  24
TORSDOF 5
ENDMDL
MODEL 2
REMARK VINA RESULT:      -9.4      2.691      5.120
REMARK  5 active torsions:
REMARK  status: ('A' for Active; 'I' for Inactive)
REMARK    1  A    between atoms: C_7  and  C_8 
REMARK    2  A    between atoms: C_8  and  O_9 
REMARK    3  A    between atoms: N_12  and  C_13 
REMARK    4  A    between atoms: C_13  and  C_14 
REMARK    5  A    between atoms: C_14  and  C_15 
ROOT
HETATM    1  C   UNL     1      25.811  46.425  50.767  1.00  0.00     0.199 A 
HETATM    2  C   UNL     1      25.718  46.598  52.310  1.00  0.00     0.269 A 
HETATM    3  O   UNL     1      25.484  47.644  52.904  1.00  0.00    -0.269 OA
HETATM    4  N   UNL     1      26.086  45.371  52.896  1.00  0.00    -0.314 N 
HETATM    5  C   UNL     1      26.417  44.430  51.904  1.00  0.00     0.047 A 
HETATM    6  C   UNL     1      26.255  44.993  50.633  1.00  0.00     0.017 A 
HETATM    7  C   UNL     1      26.866  43.129  52.060  1.00  0.00     0.030 A 
HETATM    8  C   UNL     1      27.162  42.389  50.911  1.00  0.00     0.002 A 
HETATM    9  C   UNL     1      27.014  42.954  49.635  1.00  0.00     0.001 A 
HETATM   10  C   UNL     1      26.561  44.265  49.488  1.00  0.00     0.013 A 
ENDROOT
BRANCH   1  11
HETATM   11  C   UNL     1      24.512  46.578  50.011  1.00  0.00     0.025 A 
HETATM   12  C   UNL     1      23.499  45.619  49.910  1.00  0.00     0.016 A 
HETATM   13  C   UNL     1      23.383  44.247  50.476  1.00  0.00     0.069 C 
HETATM   14  N   UNL     1      22.487  46.142  49.149  1.00  0.00    -0.359 N 
HETATM   15  H   UNL     1      21.629  45.663  48.916  1.00  0.00     0.166 HD
HETATM   16  C   UNL     1      22.779  47.425  48.768  1.00  0.00     0.043 A 
HETATM   17  C   UNL     1      24.039  47.734  49.282  1.00  0.00     0.003 A 
HETATM   18  C   UNL     1      22.014  48.323  48.013  1.00  0.00     0.030 A 
HETATM   19  C   UNL     1      24.551  49.025  49.020  1.00  0.00     0.014 A 
HETATM   20  C   UNL     1      23.799  49.938  48.268  1.00  0.00     0.001 A 
HETATM   21  C   UNL     1      22.548  49.589  47.772  1.00  0.00     0.002 A 
ENDBRANCH   1  11
BRANCH   1  22
HETATM   22  O   UNL     1      26.842  47.293  50.293  1.00  0.00    -0.371 OA
HETATM   23  H   UNL     1      26.368  47.941  49.740  1.00  0.00     0.212 HD
ENDBRANCH   1  22
BRANCH   4  24
HETATM   24  C   UNL     1      26.454  45.252  54.293  1.00  0.00     0.137 C 
BRANCH  24  25
HETATM   25  C   UNL     1      27.685  46.073  54.691  1.00  0.00     0.058 C 
BRANCH  25  26
HETATM   26  C   UNL     1      28.797  45.157  55.149  1.00  0.00    -0.057 A 
HETATM   27  C   UNL     1      29.599  45.516  56.242  1.00  0.00     0.007 A 
HETATM   28  C   UNL     1      30.675  44.714  56.626  1.00  0.00     0.001 A 
HETATM   29  C   UNL     1      30.956  43.543  55.924  1.00  0.00     0.000 A 
HETATM   30  C   UNL     1      30.160  43.173  54.841  1.00  0.00     0.001 A 
HETATM   31  C   UNL     1      29.086  43.977  54.453  1.00  0.00     0.007 A 
ENDBRANCH  25  26
ENDBRANCH  24  25
ENDBRANCH   4  24
TORSDOF 5
ENDMDL
MODEL 3
REMARK VINA RESULT:      -9.1      2.069      4.864
REMARK  5 active torsions:
REMARK  status: ('A' for Active; 'I' for Inactive)
REMARK    1  A    between atoms: C_7  and  C_8 
REMARK    2  A    between atoms: C_8  and  O_9 
REMARK    3  A    between atoms: N_12  and  C_13 
REMARK    4  A    between atoms: C_13  and  C_14 
REMARK    5  A    between atoms: C_14  and  C_15 
ROOT
HETATM    1  C   UNL     1      26.717  44.582  50.648  1.00  0.00     0.199 A 
HETATM    2  C   UNL     1      26.987  44.548  52.179  1.00  0.00     0.269 A 
HETATM    3  O   UNL     1      27.148  45.523  52.904  1.00  0.00    -0.269 OA
HETATM    4  N   UNL     1      27.149  43.198  52.550  1.00  0.00    -0.314 N 
HETATM    5  C   UNL     1      27.023  42.360  51.428  1.00  0.00     0.047 A 
HETATM    6  C   UNL     1      26.751  43.121  50.285  1.00  0.00     0.017 A 
HETATM    7  C   UNL     1      27.156  40.983  51.357  1.00  0.00     0.030 A 
HETATM    8  C   UNL     1      27.016  40.368  50.108  1.00  0.00     0.002 A 
HETATM    9  C   UNL     1      26.756  41.130  48.958  1.00  0.00     0.001 A 
HETATM   10  C   UNL     1      26.626  42.516  49.040  1.00  0.00     0.013 A 
ENDROOT
BRANCH   1  11
HETATM   11  C   UNL     1      25.371  45.128  50.232  1.00  0.00     0.025 A 
HETATM   12  C   UNL     1      24.156  44.437  50.261  1.00  0.00     0.016 A 
HETATM   13  C   UNL     1      23.823  43.049  50.684  1.00  0.00     0.069 C 
HETATM   14  N   UNL     1      23.172  45.279  49.816  1.00  0.00    -0.359 N 
HETATM   15  H   UNL     1      22.194  45.039  49.735  1.00  0.00     0.166 HD
HETATM   16  C   UNL     1      23.686  46.515  49.522  1.00  0.00     0.043 A 
HETATM   17  C   UNL     1      25.059  46.461  49.764  1.00  0.00     0.003 A 
HETATM   18  C   UNL     1      23.029  47.665  49.067  1.00  0.00     0.030 A 
HETATM   19  C   UNL     1      25.808  47.637  49.535  1.00  0.00     0.014 A 
HETATM   20  C   UNL     1      25.168  48.798  49.081  1.00  0.00     0.001 A 
HETATM   21  C   UNL     1      23.797  48.810  48.850  1.00  0.00     0.002 A 
ENDBRANCH   1  11
BRANCH   1  22
HETATM   22  O   UNL     1      27.812  45.257  50.027  1.00  0.00    -0.371 OA
HETATM   23  H   UNL     1      28.592  44.737  50.296  1.00  0.00     0.212 HD
ENDBRANCH   1  22
BRANCH   4  24
HETATM   24  C   UNL     1      27.753  42.800  53.807  1.00  0.00     0.137 C 
BRANCH  24  25
HETATM   25  C   UNL     1      29.284  42.811  53.799  1.00  0.00     0.058 C 
BRANCH  25  26
HETATM   26  C   UNL     1      29.805  43.636  54.955  1.00  0.00    -0.057 A 
HETATM   27  C   UNL     1      30.844  43.143  55.758  1.00  0.00     0.007 A 
HETATM   28  C   UNL     1      31.281  43.862  56.871  1.00  0.00     0.001 A 
HETATM   29  C   UNL     1      30.687  45.082  57.189  1.00  0.00     0.000 A 
HETATM   30  C   UNL     1      29.659  45.584  56.394  1.00  0.00     0.001 A 
HETATM   31  C   UNL     1      29.218  44.864  55.282  1.00  0.00     0.007 A 
ENDBRANCH  25  26
ENDBRANCH  24  25
ENDBRANCH   4  24
TORSDOF 5
ENDMDL
MODEL 4
REMARK VINA RESULT:      -9.1     12.374     15.414
REMARK  5 active torsions:
REMARK  status: ('A' for Active; 'I' for Inactive)
REMARK    1  A    between atoms: C_7  and  C_8 
REMARK    2  A    between atoms: C_8  and  O_9 
REMARK    3  A    between atoms: N_12  and  C_13 
REMARK    4  A    between atoms: C_13  and  C_14 
REMARK    5  A    between atoms: C_14  and  C_15 
ROOT
HETATM    1  C   UNL     1      32.583  50.494  41.302  1.00  0.00     0.199 A 
HETATM    2  C   UNL     1      31.809  49.287  41.903  1.00  0.00     0.269 A 
HETATM    3  O   UNL     1      32.264  48.167  42.103  1.00  0.00    -0.269 OA
HETATM    4  N   UNL     1      30.461  49.676  42.045  1.00  0.00    -0.314 N 
HETATM    5  C   UNL     1      30.279  50.995  41.592  1.00  0.00     0.047 A 
HETATM    6  C   UNL     1      31.499  51.530  41.160  1.00  0.00     0.017 A 
HETATM    7  C   UNL     1      29.108  51.732  41.520  1.00  0.00     0.030 A 
HETATM    8  C   UNL     1      29.173  53.028  40.999  1.00  0.00     0.002 A 
HETATM    9  C   UNL     1      30.392  53.562  40.553  1.00  0.00     0.001 A 
HETATM   10  C   UNL     1      31.565  52.812  40.628  1.00  0.00     0.013 A 
ENDROOT
BRANCH   1  11
HETATM   11  C   UNL     1      33.667  51.079  42.177  1.00  0.00     0.025 A 
HETATM   12  C   UNL     1      33.496  51.604  43.461  1.00  0.00     0.016 A 
HETATM   13  C   UNL     1      32.284  51.739  44.317  1.00  0.00     0.069 C 
HETATM   14  N   UNL     1      34.717  52.023  43.920  1.00  0.00    -0.359 N 
HETATM   15  H   UNL     1      34.885  52.443  44.823  1.00  0.00     0.166 HD
HETATM   16  C   UNL     1      35.696  51.767  42.997  1.00  0.00     0.043 A 
HETATM   17  C   UNL     1      35.081  51.182  41.890  1.00  0.00     0.003 A 
HETATM   18  C   UNL     1      37.073  52.010  43.073  1.00  0.00     0.030 A 
HETATM   19  C   UNL     1      35.906  50.819  40.801  1.00  0.00     0.014 A 
HETATM   20  C   UNL     1      37.286  51.053  40.860  1.00  0.00     0.001 A 
HETATM   21  C   UNL     1      37.861  51.641  41.982  1.00  0.00     0.002 A 
ENDBRANCH   1  11
BRANCH   1  22
HETATM   22  O   UNL     1      33.052  50.110  40.008  1.00  0.00    -0.371 OA
HETATM   23  H   UNL     1      32.270  50.212  39.435  1.00  0.00     0.212 HD
ENDBRANCH   1  22
BRANCH   4  24
HETATM   24  C   UNL     1      29.389  48.720  42.238  1.00  0.00     0.137 C 
BRANCH  24  25
HETATM   25  C   UNL     1      29.078  47.867  41.005  1.00  0.00     0.058 C 
BRANCH  25  26
HETATM   26  C   UNL     1      28.148  48.613  40.075  1.00  0.00    -0.057 A 
HETATM   27  C   UNL     1      28.657  49.249  38.933  1.00  0.00     0.007 A 
HETATM   28  C   UNL     1      27.819  50.003  38.109  1.00  0.00     0.001 A 
HETATM   29  C   UNL     1      26.465  50.125  38.417  1.00  0.00     0.000 A 
HETATM   30  C   UNL     1      25.948  49.491  39.546  1.00  0.00     0.001 A 
HETATM   31  C   UNL     1      26.786  48.740  40.373  1.00  0.00     0.007 A 
ENDBRANCH  25  26
ENDBRANCH  24  25
ENDBRANCH   4  24
TORSDOF 5
ENDMDL
MODEL 5
REMARK VINA RESULT:      -9.0     12.872     15.853
REMARK  5 active torsions:
REMARK  status: ('A' for Active; 'I' for Inactive)
REMARK    1  A    between atoms: C_7  and  C_8 
REMARK    2  A    between atoms: C_8  and  O_9 
REMARK    3  A    between atoms: N_12  and  C_13 
REMARK    4  A    between atoms: C_13  and  C_14 
REMARK    5  A    between atoms: C_14  and  C_15 
ROOT
HETATM    1  C   UNL     1      31.821  51.444  41.707  1.00  0.00     0.199 A 
HETATM    2  C   UNL     1      31.508  52.420  40.536  1.00  0.00     0.269 A 
HETATM    3  O   UNL     1      31.441  53.641  40.615  1.00  0.00    -0.269 OA
HETATM    4  N   UNL     1      31.183  51.638  39.410  1.00  0.00    -0.314 N 
HETATM    5  C   UNL     1      31.242  50.269  39.727  1.00  0.00     0.047 A 
HETATM    6  C   UNL     1      31.629  50.098  41.061  1.00  0.00     0.017 A 
HETATM    7  C   UNL     1      30.954  49.180  38.919  1.00  0.00     0.030 A 
HETATM    8  C   UNL     1      31.056  47.900  39.473  1.00  0.00     0.002 A 
HETATM    9  C   UNL     1      31.432  47.726  40.814  1.00  0.00     0.001 A 
HETATM   10  C   UNL     1      31.718  48.828  41.619  1.00  0.00     0.013 A 
ENDROOT
BRANCH   1  11
HETATM   11  C   UNL     1      33.232  51.500  42.247  1.00  0.00     0.025 A 
HETATM   12  C   UNL     1      33.597  51.702  43.581  1.00  0.00     0.016 A 
HETATM   13  C   UNL     1      32.776  51.906  44.806  1.00  0.00     0.069 C 
HETATM   14  N   UNL     1      34.964  51.676  43.661  1.00  0.00    -0.359 N 
HETATM   15  H   UNL     1      35.499  51.795  44.509  1.00  0.00     0.166 HD
HETATM   16  C   UNL     1      35.518  51.433  42.431  1.00  0.00     0.043 A 
HETATM   17  C   UNL     1      34.469  51.321  41.518  1.00  0.00     0.003 A 
HETATM   18  C   UNL     1      36.866  51.302  42.074  1.00  0.00     0.030 A 
HETATM   19  C   UNL     1      34.802  51.059  40.170  1.00  0.00     0.014 A 
HETATM   20  C   UNL     1      36.145  50.924  39.794  1.00  0.00     0.001 A 
HETATM   21  C   UNL     1      37.162  51.044  40.736  1.00  0.00     0.002 A 
ENDBRANCH   1  11
BRANCH   1  22
HETATM   22  O   UNL     1      30.827  51.640  42.714  1.00  0.00    -0.371 OA
HETATM   23  H   UNL     1      30.030  51.219  42.342  1.00  0.00     0.212 HD
ENDBRANCH   1  22
BRANCH   4  24
HETATM   24  C   UNL     1      30.505  52.182  38.250  1.00  0.00     0.137 C 
BRANCH  24  25
HETATM   25  C   UNL     1      29.078  52.665  38.527  1.00  0.00     0.058 C 
BRANCH  25  26
HETATM   26  C   UNL     1      28.241  51.531  39.075  1.00  0.00    -0.057 A 
HETATM   27  C   UNL     1      28.005  51.433  40.455  1.00  0.00     0.007 A 
HETATM   28  C   UNL     1      27.297  50.350  40.978  1.00  0.00     0.001 A 
HETATM   29  C   UNL     1      26.815  49.357  40.127  1.00  0.00     0.000 A 
HETATM   30  C   UNL     1      27.038  49.448  38.754  1.00  0.00     0.001 A 
HETATM   31  C   UNL     1      27.749  50.529  38.230  1.00  0.00     0.007 A 
ENDBRANCH  25  26
ENDBRANCH  24  25
ENDBRANCH   4  24
TORSDOF 5
ENDMDL
MODEL 6
REMARK VINA RESULT:      -9.0      1.451      2.505
REMARK  5 active torsions:
REMARK  status: ('A' for Active; 'I' for Inactive)
REMARK    1  A    between atoms: C_7  and  C_8 
REMARK    2  A    between atoms: C_8  and  O_9 
REMARK    3  A    between atoms: N_12  and  C_13 
REMARK    4  A    between atoms: C_13  and  C_14 
REMARK    5  A    between atoms: C_14  and  C_15 
ROOT
HETATM    1  C   UNL     1      24.626  44.333  51.579  1.00  0.00     0.199 A 
HETATM    2  C   UNL     1      25.088  44.446  53.060  1.00  0.00     0.269 A 
HETATM    3  O   UNL     1      24.723  43.729  53.985  1.00  0.00    -0.269 OA
HETATM    4  N   UNL     1      25.889  45.600  53.167  1.00  0.00    -0.314 N 
HETATM    5  C   UNL     1      25.987  46.250  51.924  1.00  0.00     0.047 A 
HETATM    6  C   UNL     1      25.277  45.537  50.950  1.00  0.00     0.017 A 
HETATM    7  C   UNL     1      26.641  47.431  51.613  1.00  0.00     0.030 A 
HETATM    8  C   UNL     1      26.570  47.899  50.297  1.00  0.00     0.002 A 
HETATM    9  C   UNL     1      25.848  47.195  49.322  1.00  0.00     0.001 A 
HETATM   10  C   UNL     1      25.192  46.007  49.645  1.00  0.00     0.013 A 
ENDROOT
BRANCH   1  11
HETATM   11  C   UNL     1      25.106  43.109  50.834  1.00  0.00     0.025 A 
HETATM   12  C   UNL     1      24.476  42.513  49.738  1.00  0.00     0.016 A 
HETATM   13  C   UNL     1      23.231  42.868  49.004  1.00  0.00     0.069 C 
HETATM   14  N   UNL     1      25.227  41.435  49.346  1.00  0.00    -0.359 N 
HETATM   15  H   UNL     1      25.004  40.822  48.575  1.00  0.00     0.166 HD
HETATM   16  C   UNL     1      26.347  41.314  50.125  1.00  0.00     0.043 A 
HETATM   17  C   UNL     1      26.307  42.339  51.072  1.00  0.00     0.003 A 
HETATM   18  C   UNL     1      27.384  40.376  50.050  1.00  0.00     0.030 A 
HETATM   19  C   UNL     1      27.378  42.421  51.990  1.00  0.00     0.014 A 
HETATM   20  C   UNL     1      28.425  41.492  51.930  1.00  0.00     0.001 A 
HETATM   21  C   UNL     1      28.427  40.484  50.972  1.00  0.00     0.002 A 
ENDBRANCH   1  11
BRANCH   1  22
HETATM   22  O   UNL     1      23.207  44.486  51.553  1.00  0.00    -0.371 OA
HETATM   23  H   UNL     1      23.002  44.931  52.396  1.00  0.00     0.212 HD
ENDBRANCH   1  22
BRANCH   4  24
HETATM   24  C   UNL     1      26.204  46.217  54.441  1.00  0.00     0.137 C 
BRANCH  24  25
HETATM   25  C   UNL     1      27.608  46.825  54.514  1.00  0.00     0.058 C 
BRANCH  25  26
HETATM   26  C   UNL     1      28.601  45.790  54.993  1.00  0.00    -0.057 A 
HETATM   27  C   UNL     1      29.487  46.095  56.037  1.00  0.00     0.007 A 
HETATM   28  C   UNL     1      30.456  45.172  56.435  1.00  0.00     0.001 A 
HETATM   29  C   UNL     1      30.546  43.936  55.798  1.00  0.00     0.000 A 
HETATM   30  C   UNL     1      29.665  43.621  54.765  1.00  0.00     0.001 A 
HETATM   31  C   UNL     1      28.698  44.544  54.362  1.00  0.00     0.007 A 
ENDBRANCH  25  26
ENDBRANCH  24  25
ENDBRANCH   4  24
TORSDOF 5
ENDMDL
MODEL 7
REMARK VINA RESULT:      -8.9      3.871      8.253
REMARK  5 active torsions:
REMARK  status: ('A' for Active; 'I' for Inactive)
REMARK    1  A    between atoms: C_7  and  C_8 
REMARK    2  A    between atoms: C_8  and  O_9 
REMARK    3  A    between atoms: N_12  and  C_13 
REMARK    4  A    between atoms: C_13  and  C_14 
REMARK    5  A    between atoms: C_14  and  C_15 
ROOT
HETATM    1  C   UNL     1      25.739  45.638  49.893  1.00  0.00     0.199 A 
HETATM    2  C   UNL     1      24.215  45.947  49.896  1.00  0.00     0.269 A 
HETATM    3  O   UNL     1      23.314  45.125  50.019  1.00  0.00    -0.269 OA
HETATM    4  N   UNL     1      24.059  47.314  49.593  1.00  0.00    -0.314 N 
HETATM    5  C   UNL     1      25.312  47.919  49.385  1.00  0.00     0.047 A 
HETATM    6  C   UNL     1      26.336  46.982  49.567  1.00  0.00     0.017 A 
HETATM    7  C   UNL     1      25.593  49.228  49.029  1.00  0.00     0.030 A 
HETATM    8  C   UNL     1      26.931  49.591  48.848  1.00  0.00     0.002 A 
HETATM    9  C   UNL     1      27.959  48.651  49.016  1.00  0.00     0.001 A 
HETATM   10  C   UNL     1      27.666  47.335  49.374  1.00  0.00     0.013 A 
ENDROOT
BRANCH   1  11
HETATM   11  C   UNL     1      26.318  45.185  51.213  1.00  0.00     0.025 A 
HETATM   12  C   UNL     1      26.963  43.969  51.456  1.00  0.00     0.016 A 
HETATM   13  C   UNL     1      27.269  42.820  50.560  1.00  0.00     0.069 C 
HETATM   14  N   UNL     1      27.349  43.943  52.771  1.00  0.00    -0.359 N 
HETATM   15  H   UNL     1      27.838  43.180  53.218  1.00  0.00     0.166 HD
HETATM   16  C   UNL     1      27.010  45.112  53.400  1.00  0.00     0.043 A 
HETATM   17  C   UNL     1      26.359  45.914  52.462  1.00  0.00     0.003 A 
HETATM   18  C   UNL     1      27.240  45.507  54.723  1.00  0.00     0.030 A 
HETATM   19  C   UNL     1      25.919  47.188  52.887  1.00  0.00     0.014 A 
HETATM   20  C   UNL     1      26.141  47.601  54.207  1.00  0.00     0.001 A 
HETATM   21  C   UNL     1      26.793  46.771  55.112  1.00  0.00     0.002 A 
ENDBRANCH   1  11
BRANCH   1  22
HETATM   22  O   UNL     1      25.997  44.726  48.824  1.00  0.00    -0.371 OA
HETATM   23  H   UNL     1      26.959  44.574  48.872  1.00  0.00     0.212 HD
ENDBRANCH   1  22
BRANCH   4  24
HETATM   24  C   UNL     1      22.795  47.881  49.166  1.00  0.00     0.137 C 
BRANCH  24  25
HETATM   25  C   UNL     1      22.592  49.343  49.574  1.00  0.00     0.058 C 
BRANCH  25  26
HETATM   26  C   UNL     1      21.434  49.942  48.807  1.00  0.00    -0.057 A 
HETATM   27  C   UNL     1      20.947  51.213  49.148  1.00  0.00     0.007 A 
HETATM   28  C   UNL     1      19.832  51.743  48.497  1.00  0.00     0.001 A 
HETATM   29  C   UNL     1      19.197  51.010  47.496  1.00  0.00     0.000 A 
HETATM   30  C   UNL     1      19.677  49.749  47.145  1.00  0.00     0.001 A 
HETATM   31  C   UNL     1      20.790  49.216  47.799  1.00  0.00     0.007 A 
ENDBRANCH  25  26
ENDBRANCH  24  25
ENDBRANCH   4  24
TORSDOF 5
ENDMDL
MODEL 8
REMARK VINA RESULT:      -8.7     15.681     17.422
REMARK  5 active torsions:
REMARK  status: ('A' for Active; 'I' for Inactive)
REMARK    1  A    between atoms: C_7  and  C_8 
REMARK    2  A    between atoms: C_8  and  O_9 
REMARK    3  A    between atoms: N_12  and  C_13 
REMARK    4  A    between atoms: C_13  and  C_14 
REMARK    5  A    between atoms: C_14  and  C_15 
ROOT
HETATM    1  C   UNL     1      38.874  44.545  63.821  1.00  0.00     0.199 A 
HETATM    2  C   UNL     1      37.609  45.352  64.232  1.00  0.00     0.269 A 
HETATM    3  O   UNL     1      36.449  45.051  63.977  1.00  0.00    -0.269 OA
HETATM    4  N   UNL     1      38.048  46.554  64.824  1.00  0.00    -0.314 N 
HETATM    5  C   UNL     1      39.453  46.616  64.831  1.00  0.00     0.047 A 
HETATM    6  C   UNL     1      39.990  45.452  64.269  1.00  0.00     0.017 A 
HETATM    7  C   UNL     1      40.271  47.639  65.281  1.00  0.00     0.030 A 
HETATM    8  C   UNL     1      41.656  47.483  65.154  1.00  0.00     0.002 A 
HETATM    9  C   UNL     1      42.197  46.323  64.579  1.00  0.00     0.001 A 
HETATM   10  C   UNL     1      41.364  45.299  64.129  1.00  0.00     0.013 A 
ENDROOT
BRANCH   1  11
HETATM   11  C   UNL     1      39.056  43.215  64.514  1.00  0.00     0.025 A 
HETATM   12  C   UNL     1      39.082  43.002  65.896  1.00  0.00     0.016 A 
HETATM   13  C   UNL     1      38.945  43.944  67.040  1.00  0.00     0.069 C 
HETATM   14  N   UNL     1      39.257  41.662  66.120  1.00  0.00    -0.359 N 
HETATM   15  H   UNL     1      39.311  41.227  67.030  1.00  0.00     0.166 HD
HETATM   16  C   UNL     1      39.316  40.975  64.936  1.00  0.00     0.043 A 
HETATM   17  C   UNL     1      39.199  41.910  63.907  1.00  0.00     0.003 A 
HETATM   18  C   UNL     1      39.459  39.599  64.714  1.00  0.00     0.030 A 
HETATM   19  C   UNL     1      39.226  41.426  62.580  1.00  0.00     0.014 A 
HETATM   20  C   UNL     1      39.367  40.053  62.337  1.00  0.00     0.001 A 
HETATM   21  C   UNL     1      39.482  39.153  63.392  1.00  0.00     0.002 A 
ENDBRANCH   1  11
BRANCH   1  22
HETATM   22  O   UNL     1      38.882  44.442  62.397  1.00  0.00    -0.371 OA
HETATM   23  H   UNL     1      38.765  45.361  62.094  1.00  0.00     0.212 HD
ENDBRANCH   1  22
BRANCH   4  24
HETATM   24  C   UNL     1      37.176  47.698  65.007  1.00  0.00     0.137 C 
BRANCH  24  25
HETATM   25  C   UNL     1      36.785  47.962  66.465  1.00  0.00     0.058 C 
BRANCH  25  26
HETATM   26  C   UNL     1      37.102  49.393  66.838  1.00  0.00    -0.057 A 
HETATM   27  C   UNL     1      37.713  50.244  65.905  1.00  0.00     0.007 A 
HETATM   28  C   UNL     1      38.078  51.543  66.264  1.00  0.00     0.001 A 
HETATM   29  C   UNL     1      37.831  52.004  67.555  1.00  0.00     0.000 A 
HETATM   30  C   UNL     1      37.218  51.168  68.488  1.00  0.00     0.001 A 
HETATM   31  C   UNL     1      36.857  49.867  68.132  1.00  0.00     0.007 A 
ENDBRANCH  25  26
ENDBRANCH  24  25
ENDBRANCH   4  24
TORSDOF 5
ENDMDL
MODEL 9
REMARK VINA RESULT:      -8.7      2.411      4.248
REMARK  5 active torsions:
REMARK  status: ('A' for Active; 'I' for Inactive)
REMARK    1  A    between atoms: C_7  and  C_8 
REMARK    2  A    between atoms: C_8  and  O_9 
REMARK    3  A    between atoms: N_12  and  C_13 
REMARK    4  A    between atoms: C_13  and  C_14 
REMARK    5  A    between atoms: C_14  and  C_15 
ROOT
HETATM    1  C   UNL     1      26.705  40.107  50.064  1.00  0.00     0.199 A 
HETATM    2  C   UNL     1      27.834  40.866  50.819  1.00  0.00     0.269 A 
HETATM    3  O   UNL     1      28.712  40.354  51.504  1.00  0.00    -0.269 OA
HETATM    4  N   UNL     1      27.581  42.246  50.684  1.00  0.00    -0.314 N 
HETATM    5  C   UNL     1      26.409  42.461  49.936  1.00  0.00     0.047 A 
HETATM    6  C   UNL     1      25.864  41.237  49.531  1.00  0.00     0.017 A 
HETATM    7  C   UNL     1      25.795  43.660  49.616  1.00  0.00     0.030 A 
HETATM    8  C   UNL     1      24.607  43.619  48.879  1.00  0.00     0.002 A 
HETATM    9  C   UNL     1      24.050  42.393  48.483  1.00  0.00     0.001 A 
HETATM   10  C   UNL     1      24.676  41.191  48.811  1.00  0.00     0.013 A 
ENDROOT
BRANCH   1  11
HETATM   11  C   UNL     1      27.152  39.271  48.888  1.00  0.00     0.025 A 
HETATM   12  C   UNL     1      27.218  37.875  48.847  1.00  0.00     0.016 A 
HETATM   13  C   UNL     1      26.891  36.843  49.870  1.00  0.00     0.069 C 
HETATM   14  N   UNL     1      27.660  37.502  47.605  1.00  0.00    -0.359 N 
HETATM   15  H   UNL     1      27.800  36.549  47.300  1.00  0.00     0.166 HD
HETATM   16  C   UNL     1      27.859  38.600  46.811  1.00  0.00     0.043 A 
HETATM   17  C   UNL     1      27.557  39.727  47.577  1.00  0.00     0.003 A 
HETATM   18  C   UNL     1      28.278  38.667  45.476  1.00  0.00     0.030 A 
HETATM   19  C   UNL     1      27.683  40.990  46.956  1.00  0.00     0.014 A 
HETATM   20  C   UNL     1      28.100  41.077  45.621  1.00  0.00     0.001 A 
HETATM   21  C   UNL     1      28.393  39.929  44.892  1.00  0.00     0.002 A 
ENDBRANCH   1  11
BRANCH   1  22
HETATM   22  O   UNL     1      25.958  39.366  51.029  1.00  0.00    -0.371 OA
HETATM   23  H   UNL     1      26.622  38.787  51.447  1.00  0.00     0.212 HD
ENDBRANCH   1  22
BRANCH   4  24
HETATM   24  C   UNL     1      28.205  43.241  51.533  1.00  0.00     0.137 C 
BRANCH  24  25
HETATM   25  C   UNL     1      27.577  43.365  52.924  1.00  0.00     0.058 C 
BRANCH  25  26
HETATM   26  C   UNL     1      28.626  43.763  53.937  1.00  0.00    -0.057 A 
HETATM   27  C   UNL     1      29.714  42.914  54.194  1.00  0.00     0.007 A 
HETATM   28  C   UNL     1      30.647  43.238  55.180  1.00  0.00     0.001 A 
HETATM   29  C   UNL     1      30.505  44.413  55.915  1.00  0.00     0.000 A 
HETATM   30  C   UNL     1      29.432  45.267  55.663  1.00  0.00     0.001 A 
HETATM   31  C   UNL     1      28.495  44.943  54.679  1.00  0.00     0.007 A 
ENDBRANCH  25  26
ENDBRANCH  24  25
ENDBRANCH   4  24
TORSDOF 5
ENDMDL
MODEL 10
REMARK VINA RESULT:      -8.6     12.156     15.041
REMARK  5 active torsions:
REMARK  status: ('A' for Active; 'I' for Inactive)
REMARK    1  A    between atoms: C_7  and  C_8 
REMARK    2  A    between atoms: C_8  and  O_9 
REMARK    3  A    between atoms: N_12  and  C_13 
REMARK    4  A    between atoms: C_13  and  C_14 
REMARK    5  A    between atoms: C_14  and  C_15 
ROOT
HETATM    1  C   UNL     1      32.457  50.467  41.274  1.00  0.00     0.199 A 
HETATM    2  C   UNL     1      31.633  49.313  41.912  1.00  0.00     0.269 A 
HETATM    3  O   UNL     1      32.042  48.183  42.151  1.00  0.00    -0.269 OA
HETATM    4  N   UNL     1      30.302  49.761  42.035  1.00  0.00    -0.314 N 
HETATM    5  C   UNL     1      30.175  51.070  41.537  1.00  0.00     0.047 A 
HETATM    6  C   UNL     1      31.417  51.540  41.093  1.00  0.00     0.017 A 
HETATM    7  C   UNL     1      29.035  51.851  41.437  1.00  0.00     0.030 A 
HETATM    8  C   UNL     1      29.154  53.126  40.873  1.00  0.00     0.002 A 
HETATM    9  C   UNL     1      30.395  53.595  40.415  1.00  0.00     0.001 A 
HETATM   10  C   UNL     1      31.536  52.801  40.519  1.00  0.00     0.013 A 
ENDROOT
BRANCH   1  11
HETATM   11  C   UNL     1      33.562  51.036  42.133  1.00  0.00     0.025 A 
HETATM   12  C   UNL     1      33.416  51.562  43.421  1.00  0.00     0.016 A 
HETATM   13  C   UNL     1      32.220  51.714  44.293  1.00  0.00     0.069 C 
HETATM   14  N   UNL     1      34.649  51.965  43.862  1.00  0.00    -0.359 N 
HETATM   15  H   UNL     1      34.837  52.382  44.763  1.00  0.00     0.166 HD
HETATM   16  C   UNL     1      35.612  51.696  42.925  1.00  0.00     0.043 A 
HETATM   17  C   UNL     1      34.973  51.119  41.826  1.00  0.00     0.003 A 
HETATM   18  C   UNL     1      36.993  51.920  42.981  1.00  0.00     0.030 A 
HETATM   19  C   UNL     1      35.777  50.746  40.726  1.00  0.00     0.014 A 
HETATM   20  C   UNL     1      37.161  50.961  40.764  1.00  0.00     0.001 A 
HETATM   21  C   UNL     1      37.760  51.540  41.878  1.00  0.00     0.002 A 
ENDBRANCH   1  11
BRANCH   1  22
HETATM   22  O   UNL     1      32.914  50.022  39.996  1.00  0.00    -0.371 OA
HETATM   23  H   UNL     1      33.872  49.896  40.119  1.00  0.00     0.212 HD
ENDBRANCH   1  22
BRANCH   4  24
HETATM   24  C   UNL     1      29.191  48.857  42.256  1.00  0.00     0.137 C 
BRANCH  24  25
HETATM   25  C   UNL     1      28.295  48.651  41.030  1.00  0.00     0.058 C 
BRANCH  25  26
HETATM   26  C   UNL     1      28.467  47.250  40.488  1.00  0.00    -0.057 A 
HETATM   27  C   UNL     1      29.550  46.948  39.649  1.00  0.00     0.007 A 
HETATM   28  C   UNL     1      29.676  45.678  39.084  1.00  0.00     0.001 A 
HETATM   29  C   UNL     1      28.725  44.697  39.355  1.00  0.00     0.000 A 
HETATM   30  C   UNL     1      27.648  44.984  40.194  1.00  0.00     0.001 A 
HETATM   31  C   UNL     1      27.519  46.256  40.757  1.00  0.00     0.007 A 
ENDBRANCH  25  26
ENDBRANCH  24  25
ENDBRANCH   4  24
TORSDOF 5
ENDMDL
