MODEL 1
REMARK VINA RESULT:     -10.8      0.000      0.000
REMARK  8 active torsions:
REMARK  status: ('A' for Active; 'I' for Inactive)
REMARK    1  A    between atoms: C_6  and  S_7 
REMARK    2  A    between atoms: S_7  and  C_8 
REMARK    3  A    between atoms: C_8  and  C_9 
REMARK       I    between atoms: C_9  and  N_10 
REMARK    4  A    between atoms: N_10  and  C_11 
REMARK    5  A    between atoms: C_24  and  C_25 
REMARK    6  A    between atoms: C_25  and  C_26 
REMARK       I    between atoms: C_26  and  N_27 
REMARK    7  A    between atoms: N_27  and  C_28 
REMARK    8  A    between atoms: C_28  and  C_29 
ROOT
HETATM    1  C   UNL     1      27.429  48.934  49.297  1.00  0.00     0.001 A 
HETATM    2  C   UNL     1      27.040  47.677  49.761  1.00  0.00     0.018 A 
HETATM    3  C   UNL     1      25.714  47.273  49.604  1.00  0.00     0.039 A 
HETATM    4  C   UNL     1      24.773  48.102  48.983  1.00  0.00     0.073 A 
HETATM    5  N   UNL     1      23.458  47.688  48.738  1.00  0.00    -0.223 NA
HETATM    6  C   UNL     1      23.098  46.519  49.152  1.00  0.00     0.178 C 
HETATM    7  N   UNL     1      23.914  45.688  49.905  1.00  0.00    -0.241 N 
HETATM    8  C   UNL     1      25.228  45.978  50.093  1.00  0.00     0.147 A 
HETATM    9  N   UNL     1      25.963  45.083  50.685  1.00  0.00    -0.256 NA
HETATM   10  C   UNL     1      23.664  44.473  50.498  1.00  0.00     0.257 A 
HETATM   11  O   UNL     1      22.625  43.842  50.606  1.00  0.00    -0.270 OA
HETATM   12  C   UNL     1      24.999  43.999  51.040  1.00  0.00     0.211 A 
HETATM   13  C   UNL     1      25.173  49.359  48.530  1.00  0.00     0.032 A 
HETATM   14  C   UNL     1      26.495  49.776  48.688  1.00  0.00     0.002 A 
ENDROOT
BRANCH  12  15
HETATM   15  C   UNL     1      25.409  42.642  50.469  1.00  0.00     0.140 C 
BRANCH  15  16
HETATM   16  C   UNL     1      26.881  42.584  50.097  1.00  0.00     0.220 C 
HETATM   17  N   UNL     1      27.812  42.297  51.042  1.00  0.00    -0.357 N 
HETATM   18  H   UNL     1      28.759  42.241  50.683  1.00  0.00     0.162 HD
HETATM   19  O   UNL     1      27.269  42.799  48.946  1.00  0.00    -0.274 OA
BRANCH  17  20
HETATM   20  C   UNL     1      27.597  41.857  52.405  1.00  0.00     0.161 C 
BRANCH  20  21
HETATM   21  C   UNL     1      28.270  42.782  53.387  1.00  0.00    -0.038 A 
HETATM   22  C   UNL     1      27.585  43.906  53.880  1.00  0.00     0.048 A 
HETATM   23  C   UNL     1      28.235  44.718  54.788  1.00  0.00     0.105 A 
HETATM   24  C   UNL     1      29.513  44.452  55.216  1.00  0.00     0.105 A 
HETATM   25  O   UNL     1      27.721  45.841  55.357  1.00  0.00    -0.323 OA
HETATM   26  O   UNL     1      29.963  45.371  56.111  1.00  0.00    -0.323 OA
HETATM   27  C   UNL     1      30.217  43.360  54.759  1.00  0.00     0.040 A 
HETATM   28  C   UNL     1      28.825  46.255  56.188  1.00  0.00     0.352 A 
HETATM   29  C   UNL     1      29.589  42.522  53.831  1.00  0.00     0.012 A 
ENDBRANCH  20  21
ENDBRANCH  17  20
ENDBRANCH  15  16
ENDBRANCH  12  15
BRANCH   6  30
HETATM   30  S   UNL     1      21.544  45.936  48.623  1.00  0.00    -0.082 SA
BRANCH  30  31
HETATM   31  C   UNL     1      21.403  46.917  47.091  1.00  0.00     0.185 C 
BRANCH  31  32
HETATM   32  C   UNL     1      20.328  48.001  47.187  1.00  0.00     0.232 C 
HETATM   33  N   UNL     1      20.522  48.865  48.258  1.00  0.00    -0.324 N 
HETATM   34  H   UNL     1      21.345  48.697  48.842  1.00  0.00     0.169 HD
HETATM   35  O   UNL     1      19.409  48.029  46.377  1.00  0.00    -0.272 OA
BRANCH  33  36
HETATM   36  C   UNL     1      19.710  49.944  48.695  1.00  0.00     0.073 A 
HETATM   37  C   UNL     1      18.619  49.874  49.567  1.00  0.00     0.143 A 
HETATM   38  F   UNL     1      18.175  48.719  50.075  1.00  0.00    -0.204 F 
HETATM   39  C   UNL     1      17.901  51.021  49.921  1.00  0.00     0.044 A 
HETATM   40  C   UNL     1      18.258  52.266  49.409  1.00  0.00     0.003 A 
HETATM   41  C   UNL     1      19.336  52.360  48.537  1.00  0.00     0.002 A 
HETATM   42  C   UNL     1      20.052  51.210  48.184  1.00  0.00     0.033 A 
ENDBRANCH  33  36
ENDBRANCH  31  32
ENDBRANCH  30  31
ENDBRANCH   6  30
TORSDOF 8
ENDMDL
MODEL 2
REMARK VINA RESULT:     -10.3      2.792      9.805
REMARK  8 active torsions:
REMARK  status: ('A' for Active; 'I' for Inactive)
REMARK    1  A    between atoms: C_6  and  S_7 
REMARK    2  A    between atoms: S_7  and  C_8 
REMARK    3  A    between atoms: C_8  and  C_9 
REMARK       I    between atoms: C_9  and  N_10 
REMARK    4  A    between atoms: N_10  and  C_11 
REMARK    5  A    between atoms: C_24  and  C_25 
REMARK    6  A    between atoms: C_25  and  C_26 
REMARK       I    between atoms: C_26  and  N_27 
REMARK    7  A    between atoms: N_27  and  C_28 
REMARK    8  A    between atoms: C_28  and  C_29 
ROOT
HETATM    1  C   UNL     1      22.139  50.515  48.087  1.00  0.00     0.001 A 
HETATM    2  C   UNL     1      21.456  49.386  47.632  1.00  0.00     0.018 A 
HETATM    3  C   UNL     1      21.908  48.120  48.005  1.00  0.00     0.039 A 
HETATM    4  C   UNL     1      23.025  47.966  48.833  1.00  0.00     0.073 A 
HETATM    5  N   UNL     1      23.449  46.712  49.290  1.00  0.00    -0.223 NA
HETATM    6  C   UNL     1      22.810  45.665  48.884  1.00  0.00     0.178 C 
HETATM    7  N   UNL     1      21.787  45.707  47.949  1.00  0.00    -0.241 N 
HETATM    8  C   UNL     1      21.258  46.890  47.542  1.00  0.00     0.147 A 
HETATM    9  N   UNL     1      20.207  46.846  46.776  1.00  0.00    -0.256 NA
HETATM   10  C   UNL     1      21.074  44.698  47.345  1.00  0.00     0.257 A 
HETATM   11  O   UNL     1      21.218  43.487  47.394  1.00  0.00    -0.270 OA
HETATM   12  C   UNL     1      19.988  45.387  46.543  1.00  0.00     0.211 A 
HETATM   13  C   UNL     1      23.702  49.101  49.276  1.00  0.00     0.032 A 
HETATM   14  C   UNL     1      23.263  50.372  48.902  1.00  0.00     0.002 A 
ENDROOT
BRANCH  12  15
HETATM   15  C   UNL     1      18.587  44.934  46.952  1.00  0.00     0.140 C 
BRANCH  15  16
HETATM   16  C   UNL     1      17.504  45.899  46.502  1.00  0.00     0.220 C 
HETATM   17  N   UNL     1      16.837  46.650  47.414  1.00  0.00    -0.357 N 
HETATM   18  H   UNL     1      16.164  47.291  47.008  1.00  0.00     0.162 HD
HETATM   19  O   UNL     1      17.197  46.022  45.313  1.00  0.00    -0.274 OA
BRANCH  17  20
HETATM   20  C   UNL     1      17.119  46.800  48.827  1.00  0.00     0.161 C 
BRANCH  20  21
HETATM   21  C   UNL     1      17.722  48.151  49.120  1.00  0.00    -0.038 A 
HETATM   22  C   UNL     1      17.519  49.222  48.234  1.00  0.00     0.048 A 
HETATM   23  C   UNL     1      18.078  50.444  48.549  1.00  0.00     0.105 A 
HETATM   24  C   UNL     1      18.812  50.633  49.695  1.00  0.00     0.105 A 
HETATM   25  O   UNL     1      17.982  51.576  47.802  1.00  0.00    -0.323 OA
HETATM   26  O   UNL     1      19.268  51.908  49.816  1.00  0.00    -0.323 OA
HETATM   27  C   UNL     1      19.032  49.610  50.591  1.00  0.00     0.040 A 
HETATM   28  C   UNL     1      18.746  52.498  48.607  1.00  0.00     0.352 A 
HETATM   29  C   UNL     1      18.485  48.356  50.295  1.00  0.00     0.012 A 
ENDBRANCH  20  21
ENDBRANCH  17  20
ENDBRANCH  15  16
ENDBRANCH  12  15
BRANCH   6  30
HETATM   30  S   UNL     1      23.200  44.152  49.655  1.00  0.00    -0.082 SA
BRANCH  30  31
HETATM   31  C   UNL     1      25.008  44.374  49.771  1.00  0.00     0.185 C 
BRANCH  31  32
HETATM   32  C   UNL     1      25.539  44.118  51.183  1.00  0.00     0.232 C 
HETATM   33  N   UNL     1      26.917  44.268  51.281  1.00  0.00    -0.324 N 
HETATM   34  H   UNL     1      27.412  44.539  50.428  1.00  0.00     0.169 HD
HETATM   35  O   UNL     1      24.768  43.798  52.080  1.00  0.00    -0.272 OA
BRANCH  33  36
HETATM   36  C   UNL     1      27.761  44.060  52.402  1.00  0.00     0.073 A 
HETATM   37  C   UNL     1      27.670  44.687  53.649  1.00  0.00     0.143 A 
HETATM   38  F   UNL     1      26.759  45.628  53.918  1.00  0.00    -0.204 F 
HETATM   39  C   UNL     1      28.571  44.387  54.676  1.00  0.00     0.044 A 
HETATM   40  C   UNL     1      29.584  43.453  54.480  1.00  0.00     0.003 A 
HETATM   41  C   UNL     1      29.696  42.819  53.248  1.00  0.00     0.002 A 
HETATM   42  C   UNL     1      28.795  43.122  52.221  1.00  0.00     0.033 A 
ENDBRANCH  33  36
ENDBRANCH  31  32
ENDBRANCH  30  31
ENDBRANCH   6  30
TORSDOF 8
ENDMDL
MODEL 3
REMARK VINA RESULT:     -10.0      3.068     10.106
REMARK  8 active torsions:
REMARK  status: ('A' for Active; 'I' for Inactive)
REMARK    1  A    between atoms: C_6  and  S_7 
REMARK    2  A    between atoms: S_7  and  C_8 
REMARK    3  A    between atoms: C_8  and  C_9 
REMARK       I    between atoms: C_9  and  N_10 
REMARK    4  A    between atoms: N_10  and  C_11 
REMARK    5  A    between atoms: C_24  and  C_25 
REMARK    6  A    between atoms: C_25  and  C_26 
REMARK       I    between atoms: C_26  and  N_27 
REMARK    7  A    between atoms: N_27  and  C_28 
REMARK    8  A    between atoms: C_28  and  C_29 
ROOT
HETATM    1  C   UNL     1      26.491  47.214  54.446  1.00  0.00     0.001 A 
HETATM    2  C   UNL     1      25.944  47.514  53.198  1.00  0.00     0.018 A 
HETATM    3  C   UNL     1      25.376  46.490  52.439  1.00  0.00     0.039 A 
HETATM    4  C   UNL     1      25.337  45.174  52.913  1.00  0.00     0.073 A 
HETATM    5  N   UNL     1      24.699  44.145  52.210  1.00  0.00    -0.223 NA
HETATM    6  C   UNL     1      24.177  44.421  51.061  1.00  0.00     0.178 C 
HETATM    7  N   UNL     1      24.294  45.657  50.445  1.00  0.00    -0.241 N 
HETATM    8  C   UNL     1      24.808  46.726  51.108  1.00  0.00     0.147 A 
HETATM    9  N   UNL     1      24.752  47.884  50.517  1.00  0.00    -0.256 NA
HETATM   10  C   UNL     1      23.888  46.089  49.204  1.00  0.00     0.257 A 
HETATM   11  O   UNL     1      23.404  45.472  48.268  1.00  0.00    -0.270 OA
HETATM   12  C   UNL     1      24.159  47.581  49.180  1.00  0.00     0.211 A 
HETATM   13  C   UNL     1      25.893  44.886  54.159  1.00  0.00     0.032 A 
HETATM   14  C   UNL     1      26.472  45.901  54.923  1.00  0.00     0.002 A 
ENDROOT
BRANCH  12  15
HETATM   15  C   UNL     1      22.897  48.396  48.903  1.00  0.00     0.140 C 
BRANCH  15  16
HETATM   16  C   UNL     1      23.200  49.762  48.310  1.00  0.00     0.220 C 
HETATM   17  N   UNL     1      22.467  50.843  48.677  1.00  0.00    -0.357 N 
HETATM   18  H   UNL     1      22.776  51.713  48.257  1.00  0.00     0.162 HD
HETATM   19  O   UNL     1      24.101  49.926  47.483  1.00  0.00    -0.274 OA
BRANCH  17  20
HETATM   20  C   UNL     1      21.478  50.937  49.731  1.00  0.00     0.161 C 
BRANCH  20  21
HETATM   21  C   UNL     1      20.083  51.006  49.162  1.00  0.00    -0.038 A 
HETATM   22  C   UNL     1      19.227  49.895  49.254  1.00  0.00     0.048 A 
HETATM   23  C   UNL     1      17.955  50.007  48.731  1.00  0.00     0.105 A 
HETATM   24  C   UNL     1      17.513  51.166  48.138  1.00  0.00     0.105 A 
HETATM   25  O   UNL     1      17.008  49.032  48.733  1.00  0.00    -0.323 OA
HETATM   26  O   UNL     1      16.231  51.066  47.695  1.00  0.00    -0.323 OA
HETATM   27  C   UNL     1      18.320  52.277  48.031  1.00  0.00     0.040 A 
HETATM   28  C   UNL     1      15.921  49.707  48.067  1.00  0.00     0.352 A 
HETATM   29  C   UNL     1      19.618  52.192  48.543  1.00  0.00     0.012 A 
ENDBRANCH  20  21
ENDBRANCH  17  20
ENDBRANCH  15  16
ENDBRANCH  12  15
BRANCH   6  30
HETATM   30  S   UNL     1      23.184  43.193  50.327  1.00  0.00    -0.082 SA
BRANCH  30  31
HETATM   31  C   UNL     1      24.465  42.401  49.296  1.00  0.00     0.185 C 
BRANCH  31  32
HETATM   32  C   UNL     1      25.883  42.756  49.751  1.00  0.00     0.232 C 
HETATM   33  N   UNL     1      26.265  42.087  50.907  1.00  0.00    -0.324 N 
HETATM   34  H   UNL     1      25.585  41.439  51.311  1.00  0.00     0.169 HD
HETATM   35  O   UNL     1      26.545  43.570  49.118  1.00  0.00    -0.272 OA
BRANCH  33  36
HETATM   36  C   UNL     1      27.470  42.200  51.648  1.00  0.00     0.073 A 
HETATM   37  C   UNL     1      28.242  43.354  51.824  1.00  0.00     0.143 A 
HETATM   38  F   UNL     1      27.935  44.521  51.249  1.00  0.00    -0.204 F 
HETATM   39  C   UNL     1      29.415  43.330  52.585  1.00  0.00     0.044 A 
HETATM   40  C   UNL     1      29.844  42.150  53.188  1.00  0.00     0.003 A 
HETATM   41  C   UNL     1      29.096  40.991  53.024  1.00  0.00     0.002 A 
HETATM   42  C   UNL     1      27.924  41.017  52.260  1.00  0.00     0.033 A 
ENDBRANCH  33  36
ENDBRANCH  31  32
ENDBRANCH  30  31
ENDBRANCH   6  30
TORSDOF 8
ENDMDL
MODEL 4
REMARK VINA RESULT:      -9.9      3.259      6.365
REMARK  8 active torsions:
REMARK  status: ('A' for Active; 'I' for Inactive)
REMARK    1  A    between atoms: C_6  and  S_7 
REMARK    2  A    between atoms: S_7  and  C_8 
REMARK    3  A    between atoms: C_8  and  C_9 
REMARK       I    between atoms: C_9  and  N_10 
REMARK    4  A    between atoms: N_10  and  C_11 
REMARK    5  A    between atoms: C_24  and  C_25 
REMARK    6  A    between atoms: C_25  and  C_26 
REMARK       I    between atoms: C_26  and  N_27 
REMARK    7  A    between atoms: N_27  and  C_28 
REMARK    8  A    between atoms: C_28  and  C_29 
ROOT
HETATM    1  C   UNL     1      30.471  43.217  55.058  1.00  0.00     0.001 A 
HETATM    2  C   UNL     1      29.577  42.914  54.031  1.00  0.00     0.018 A 
HETATM    3  C   UNL     1      28.541  43.804  53.745  1.00  0.00     0.039 A 
HETATM    4  C   UNL     1      28.392  44.996  54.462  1.00  0.00     0.073 A 
HETATM    5  N   UNL     1      27.414  45.945  54.140  1.00  0.00    -0.223 NA
HETATM    6  C   UNL     1      26.593  45.676  53.180  1.00  0.00     0.178 C 
HETATM    7  N   UNL     1      26.569  44.461  52.511  1.00  0.00    -0.241 N 
HETATM    8  C   UNL     1      27.548  43.538  52.699  1.00  0.00     0.147 A 
HETATM    9  N   UNL     1      27.539  42.487  51.931  1.00  0.00    -0.256 NA
HETATM   10  C   UNL     1      25.718  43.979  51.544  1.00  0.00     0.257 A 
HETATM   11  O   UNL     1      24.691  44.453  51.085  1.00  0.00    -0.270 OA
HETATM   12  C   UNL     1      26.309  42.655  51.101  1.00  0.00     0.211 A 
HETATM   13  C   UNL     1      29.289  45.284  55.491  1.00  0.00     0.032 A 
HETATM   14  C   UNL     1      30.323  44.397  55.791  1.00  0.00     0.002 A 
ENDROOT
BRANCH  12  15
HETATM   15  C   UNL     1      26.607  42.626  49.603  1.00  0.00     0.140 C 
BRANCH  15  16
HETATM   16  C   UNL     1      25.548  41.879  48.810  1.00  0.00     0.220 C 
HETATM   17  N   UNL     1      25.913  41.000  47.842  1.00  0.00    -0.357 N 
HETATM   18  H   UNL     1      25.134  40.524  47.401  1.00  0.00     0.162 HD
HETATM   19  O   UNL     1      24.343  42.050  49.011  1.00  0.00    -0.274 OA
BRANCH  17  20
HETATM   20  C   UNL     1      27.242  40.514  47.531  1.00  0.00     0.161 C 
BRANCH  20  21
HETATM   21  C   UNL     1      27.609  39.339  48.401  1.00  0.00    -0.038 A 
HETATM   22  C   UNL     1      28.746  39.398  49.224  1.00  0.00     0.048 A 
HETATM   23  C   UNL     1      29.036  38.304  50.014  1.00  0.00     0.105 A 
HETATM   24  C   UNL     1      28.246  37.180  50.017  1.00  0.00     0.105 A 
HETATM   25  O   UNL     1      30.095  38.195  50.861  1.00  0.00    -0.323 OA
HETATM   26  O   UNL     1      28.706  36.223  50.867  1.00  0.00    -0.323 OA
HETATM   27  C   UNL     1      27.122  37.083  49.227  1.00  0.00     0.040 A 
HETATM   28  C   UNL     1      29.884  36.871  51.391  1.00  0.00     0.352 A 
HETATM   29  C   UNL     1      26.806  38.172  48.408  1.00  0.00     0.012 A 
ENDBRANCH  20  21
ENDBRANCH  17  20
ENDBRANCH  15  16
ENDBRANCH  12  15
BRANCH   6  30
HETATM   30  S   UNL     1      25.553  46.965  52.643  1.00  0.00    -0.082 SA
BRANCH  30  31
HETATM   31  C   UNL     1      26.489  47.456  51.155  1.00  0.00     0.185 C 
BRANCH  31  32
HETATM   32  C   UNL     1      25.576  47.914  50.015  1.00  0.00     0.232 C 
HETATM   33  N   UNL     1      24.295  47.381  50.097  1.00  0.00    -0.324 N 
HETATM   34  H   UNL     1      24.101  46.770  50.894  1.00  0.00     0.169 HD
HETATM   35  O   UNL     1      26.009  48.659  49.144  1.00  0.00    -0.272 OA
BRANCH  33  36
HETATM   36  C   UNL     1      23.206  47.532  49.201  1.00  0.00     0.073 A 
HETATM   37  C   UNL     1      22.461  48.693  48.974  1.00  0.00     0.143 A 
HETATM   38  F   UNL     1      22.678  49.832  49.640  1.00  0.00    -0.204 F 
HETATM   39  C   UNL     1      21.406  48.707  48.055  1.00  0.00     0.044 A 
HETATM   40  C   UNL     1      21.071  47.558  47.343  1.00  0.00     0.003 A 
HETATM   41  C   UNL     1      21.795  46.392  47.555  1.00  0.00     0.002 A 
HETATM   42  C   UNL     1      22.849  46.379  48.476  1.00  0.00     0.033 A 
ENDBRANCH  33  36
ENDBRANCH  31  32
ENDBRANCH  30  31
ENDBRANCH   6  30
TORSDOF 8
ENDMDL
MODEL 5
REMARK VINA RESULT:      -9.8      3.220      9.497
REMARK  8 active torsions:
REMARK  status: ('A' for Active; 'I' for Inactive)
REMARK    1  A    between atoms: C_6  and  S_7 
REMARK    2  A    between atoms: S_7  and  C_8 
REMARK    3  A    between atoms: C_8  and  C_9 
REMARK       I    between atoms: C_9  and  N_10 
REMARK    4  A    between atoms: N_10  and  C_11 
REMARK    5  A    between atoms: C_24  and  C_25 
REMARK    6  A    between atoms: C_25  and  C_26 
REMARK       I    between atoms: C_26  and  N_27 
REMARK    7  A    between atoms: N_27  and  C_28 
REMARK    8  A    between atoms: C_28  and  C_29 
ROOT
HETATM    1  C   UNL     1      21.817  50.844  48.241  1.00  0.00     0.001 A 
HETATM    2  C   UNL     1      21.347  49.701  47.593  1.00  0.00     0.018 A 
HETATM    3  C   UNL     1      21.874  48.457  47.940  1.00  0.00     0.039 A 
HETATM    4  C   UNL     1      22.857  48.337  48.929  1.00  0.00     0.073 A 
HETATM    5  N   UNL     1      23.342  47.094  49.354  1.00  0.00    -0.223 NA
HETATM    6  C   UNL     1      22.898  46.032  48.769  1.00  0.00     0.178 C 
HETATM    7  N   UNL     1      22.038  46.059  47.682  1.00  0.00    -0.241 N 
HETATM    8  C   UNL     1      21.450  47.216  47.282  1.00  0.00     0.147 A 
HETATM    9  N   UNL     1      20.545  47.140  46.350  1.00  0.00    -0.256 NA
HETATM   10  C   UNL     1      21.549  45.045  46.892  1.00  0.00     0.257 A 
HETATM   11  O   UNL     1      21.819  43.855  46.871  1.00  0.00    -0.270 OA
HETATM   12  C   UNL     1      20.532  45.695  45.974  1.00  0.00     0.211 A 
HETATM   13  C   UNL     1      23.322  49.488  49.564  1.00  0.00     0.032 A 
HETATM   14  C   UNL     1      22.807  50.738  49.220  1.00  0.00     0.002 A 
ENDROOT
BRANCH  12  15
HETATM   15  C   UNL     1      19.145  45.069  46.107  1.00  0.00     0.140 C 
BRANCH  15  16
HETATM   16  C   UNL     1      18.536  45.280  47.483  1.00  0.00     0.220 C 
HETATM   17  N   UNL     1      17.747  46.358  47.721  1.00  0.00    -0.357 N 
HETATM   18  H   UNL     1      17.357  46.385  48.657  1.00  0.00     0.162 HD
HETATM   19  O   UNL     1      18.743  44.496  48.412  1.00  0.00    -0.274 OA
BRANCH  17  20
HETATM   20  C   UNL     1      17.234  47.320  46.767  1.00  0.00     0.161 C 
BRANCH  20  21
HETATM   21  C   UNL     1      17.523  48.732  47.210  1.00  0.00    -0.038 A 
HETATM   22  C   UNL     1      17.586  49.044  48.578  1.00  0.00     0.048 A 
HETATM   23  C   UNL     1      17.866  50.347  48.937  1.00  0.00     0.105 A 
HETATM   24  C   UNL     1      18.086  51.327  48.000  1.00  0.00     0.105 A 
HETATM   25  O   UNL     1      17.958  50.817  50.210  1.00  0.00    -0.323 OA
HETATM   26  O   UNL     1      18.349  52.536  48.564  1.00  0.00    -0.323 OA
HETATM   27  C   UNL     1      18.037  51.062  46.649  1.00  0.00     0.040 A 
HETATM   28  C   UNL     1      18.256  52.207  49.966  1.00  0.00     0.352 A 
HETATM   29  C   UNL     1      17.746  49.752  46.253  1.00  0.00     0.012 A 
ENDBRANCH  20  21
ENDBRANCH  17  20
ENDBRANCH  15  16
ENDBRANCH  12  15
BRANCH   6  30
HETATM   30  S   UNL     1      23.330  44.499  49.476  1.00  0.00    -0.082 SA
BRANCH  30  31
HETATM   31  C   UNL     1      25.054  44.414  48.885  1.00  0.00     0.185 C 
BRANCH  31  32
HETATM   32  C   UNL     1      26.054  44.928  49.923  1.00  0.00     0.232 C 
HETATM   33  N   UNL     1      25.493  45.094  51.183  1.00  0.00    -0.324 N 
HETATM   34  H   UNL     1      24.504  44.850  51.283  1.00  0.00     0.169 HD
HETATM   35  O   UNL     1      27.212  45.164  49.596  1.00  0.00    -0.272 OA
BRANCH  33  36
HETATM   36  C   UNL     1      26.088  45.599  52.368  1.00  0.00     0.073 A 
HETATM   37  C   UNL     1      27.028  44.952  53.176  1.00  0.00     0.143 A 
HETATM   38  F   UNL     1      27.456  43.709  52.932  1.00  0.00    -0.204 F 
HETATM   39  C   UNL     1      27.541  45.567  54.323  1.00  0.00     0.044 A 
HETATM   40  C   UNL     1      27.124  46.844  54.689  1.00  0.00     0.003 A 
HETATM   41  C   UNL     1      26.189  47.505  53.903  1.00  0.00     0.002 A 
HETATM   42  C   UNL     1      25.676  46.887  52.757  1.00  0.00     0.033 A 
ENDBRANCH  33  36
ENDBRANCH  31  32
ENDBRANCH  30  31
ENDBRANCH   6  30
TORSDOF 8
ENDMDL
MODEL 6
REMARK VINA RESULT:      -9.6      3.552     10.725
REMARK  8 active torsions:
REMARK  status: ('A' for Active; 'I' for Inactive)
REMARK    1  A    between atoms: C_6  and  S_7 
REMARK    2  A    between atoms: S_7  and  C_8 
REMARK    3  A    between atoms: C_8  and  C_9 
REMARK       I    between atoms: C_9  and  N_10 
REMARK    4  A    between atoms: N_10  and  C_11 
REMARK    5  A    between atoms: C_24  and  C_25 
REMARK    6  A    between atoms: C_25  and  C_26 
REMARK       I    between atoms: C_26  and  N_27 
REMARK    7  A    between atoms: N_27  and  C_28 
REMARK    8  A    between atoms: C_28  and  C_29 
ROOT
HETATM    1  C   UNL     1      27.065  46.962  54.451  1.00  0.00     0.001 A 
HETATM    2  C   UNL     1      26.381  47.340  53.295  1.00  0.00     0.018 A 
HETATM    3  C   UNL     1      25.834  46.354  52.474  1.00  0.00     0.039 A 
HETATM    4  C   UNL     1      25.954  44.997  52.793  1.00  0.00     0.073 A 
HETATM    5  N   UNL     1      25.344  43.993  52.031  1.00  0.00    -0.223 NA
HETATM    6  C   UNL     1      24.695  44.340  50.970  1.00  0.00     0.178 C 
HETATM    7  N   UNL     1      24.647  45.641  50.492  1.00  0.00    -0.241 N 
HETATM    8  C   UNL     1      25.126  46.676  51.230  1.00  0.00     0.147 A 
HETATM    9  N   UNL     1      24.916  47.880  50.784  1.00  0.00    -0.256 NA
HETATM   10  C   UNL     1      24.092  46.163  49.348  1.00  0.00     0.257 A 
HETATM   11  O   UNL     1      23.578  45.606  48.391  1.00  0.00    -0.270 OA
HETATM   12  C   UNL     1      24.229  47.667  49.475  1.00  0.00     0.211 A 
HETATM   13  C   UNL     1      26.647  44.632  53.947  1.00  0.00     0.032 A 
HETATM   14  C   UNL     1      27.204  45.610  54.773  1.00  0.00     0.002 A 
ENDROOT
BRANCH  12  15
HETATM   15  C   UNL     1      22.881  48.382  49.399  1.00  0.00     0.140 C 
BRANCH  15  16
HETATM   16  C   UNL     1      22.888  49.544  48.420  1.00  0.00     0.220 C 
HETATM   17  N   UNL     1      22.082  50.616  48.627  1.00  0.00    -0.357 N 
HETATM   18  H   UNL     1      22.193  51.354  47.941  1.00  0.00     0.162 HD
HETATM   19  O   UNL     1      23.608  49.545  47.418  1.00  0.00    -0.274 OA
BRANCH  17  20
HETATM   20  C   UNL     1      21.278  50.917  49.794  1.00  0.00     0.161 C 
BRANCH  20  21
HETATM   21  C   UNL     1      19.806  50.870  49.466  1.00  0.00    -0.038 A 
HETATM   22  C   UNL     1      18.941  51.860  49.960  1.00  0.00     0.048 A 
HETATM   23  C   UNL     1      17.605  51.785  49.624  1.00  0.00     0.105 A 
HETATM   24  C   UNL     1      17.112  50.782  48.825  1.00  0.00     0.105 A 
HETATM   25  O   UNL     1      16.637  52.655  50.020  1.00  0.00    -0.323 OA
HETATM   26  O   UNL     1      15.774  50.896  48.613  1.00  0.00    -0.323 OA
HETATM   27  C   UNL     1      17.928  49.794  48.318  1.00  0.00     0.040 A 
HETATM   28  C   UNL     1      15.478  52.080  49.382  1.00  0.00     0.352 A 
HETATM   29  C   UNL     1      19.286  49.838  48.648  1.00  0.00     0.012 A 
ENDBRANCH  20  21
ENDBRANCH  17  20
ENDBRANCH  15  16
ENDBRANCH  12  15
BRANCH   6  30
HETATM   30  S   UNL     1      23.749  43.107  50.183  1.00  0.00    -0.082 SA
BRANCH  30  31
HETATM   31  C   UNL     1      25.038  42.459  49.066  1.00  0.00     0.185 C 
BRANCH  31  32
HETATM   32  C   UNL     1      25.833  41.312  49.695  1.00  0.00     0.232 C 
HETATM   33  N   UNL     1      26.988  41.000  48.987  1.00  0.00    -0.324 N 
HETATM   34  H   UNL     1      27.184  41.561  48.154  1.00  0.00     0.169 HD
HETATM   35  O   UNL     1      25.421  40.763  50.710  1.00  0.00    -0.272 OA
BRANCH  33  36
HETATM   36  C   UNL     1      27.935  39.971  49.231  1.00  0.00     0.073 A 
HETATM   37  C   UNL     1      28.601  39.712  50.433  1.00  0.00     0.143 A 
HETATM   38  F   UNL     1      28.442  40.469  51.524  1.00  0.00    -0.204 F 
HETATM   39  C   UNL     1      29.515  38.658  50.540  1.00  0.00     0.044 A 
HETATM   40  C   UNL     1      29.783  37.839  49.447  1.00  0.00     0.003 A 
HETATM   41  C   UNL     1      29.136  38.080  48.241  1.00  0.00     0.002 A 
HETATM   42  C   UNL     1      28.224  39.136  48.136  1.00  0.00     0.033 A 
ENDBRANCH  33  36
ENDBRANCH  31  32
ENDBRANCH  30  31
ENDBRANCH   6  30
TORSDOF 8
ENDMDL
MODEL 7
REMARK VINA RESULT:      -9.5      3.708      7.312
REMARK  8 active torsions:
REMARK  status: ('A' for Active; 'I' for Inactive)
REMARK    1  A    between atoms: C_6  and  S_7 
REMARK    2  A    between atoms: S_7  and  C_8 
REMARK    3  A    between atoms: C_8  and  C_9 
REMARK       I    between atoms: C_9  and  N_10 
REMARK    4  A    between atoms: N_10  and  C_11 
REMARK    5  A    between atoms: C_24  and  C_25 
REMARK    6  A    between atoms: C_25  and  C_26 
REMARK       I    between atoms: C_26  and  N_27 
REMARK    7  A    between atoms: N_27  and  C_28 
REMARK    8  A    between atoms: C_28  and  C_29 
ROOT
HETATM    1  C   UNL     1      30.317  44.393  55.631  1.00  0.00     0.001 A 
HETATM    2  C   UNL     1      29.948  43.375  54.750  1.00  0.00     0.018 A 
HETATM    3  C   UNL     1      28.802  43.533  53.969  1.00  0.00     0.039 A 
HETATM    4  C   UNL     1      28.026  44.693  54.049  1.00  0.00     0.073 A 
HETATM    5  N   UNL     1      26.920  44.912  53.218  1.00  0.00    -0.223 NA
HETATM    6  C   UNL     1      26.584  43.979  52.389  1.00  0.00     0.178 C 
HETATM    7  N   UNL     1      27.201  42.738  52.342  1.00  0.00    -0.241 N 
HETATM    8  C   UNL     1      28.339  42.494  53.043  1.00  0.00     0.147 A 
HETATM    9  N   UNL     1      28.940  41.358  52.836  1.00  0.00    -0.256 NA
HETATM   10  C   UNL     1      26.916  41.616  51.600  1.00  0.00     0.257 A 
HETATM   11  O   UNL     1      25.979  41.375  50.856  1.00  0.00    -0.270 OA
HETATM   12  C   UNL     1      28.046  40.644  51.877  1.00  0.00     0.211 A 
HETATM   13  C   UNL     1      28.402  45.700  54.938  1.00  0.00     0.032 A 
HETATM   14  C   UNL     1      29.542  45.550  55.729  1.00  0.00     0.002 A 
ENDROOT
BRANCH  12  15
HETATM   15  C   UNL     1      28.775  40.224  50.601  1.00  0.00     0.140 C 
BRANCH  15  16
HETATM   16  C   UNL     1      29.004  38.724  50.524  1.00  0.00     0.220 C 
HETATM   17  N   UNL     1      28.105  37.928  49.891  1.00  0.00    -0.357 N 
HETATM   18  H   UNL     1      28.371  36.951  49.859  1.00  0.00     0.162 HD
HETATM   19  O   UNL     1      29.994  38.191  51.033  1.00  0.00    -0.274 OA
BRANCH  17  20
HETATM   20  C   UNL     1      26.966  38.327  49.091  1.00  0.00     0.161 C 
BRANCH  20  21
HETATM   21  C   UNL     1      27.382  38.658  47.679  1.00  0.00    -0.038 A 
HETATM   22  C   UNL     1      28.069  37.708  46.906  1.00  0.00     0.048 A 
HETATM   23  C   UNL     1      28.418  38.049  45.615  1.00  0.00     0.105 A 
HETATM   24  C   UNL     1      28.108  39.275  45.078  1.00  0.00     0.105 A 
HETATM   25  O   UNL     1      29.086  37.253  44.737  1.00  0.00    -0.323 OA
HETATM   26  O   UNL     1      28.538  39.404  43.794  1.00  0.00    -0.323 OA
HETATM   27  C   UNL     1      27.433  40.233  45.803  1.00  0.00     0.040 A 
HETATM   28  C   UNL     1      29.166  38.122  43.589  1.00  0.00     0.352 A 
HETATM   29  C   UNL     1      27.073  39.921  47.118  1.00  0.00     0.012 A 
ENDBRANCH  20  21
ENDBRANCH  17  20
ENDBRANCH  15  16
ENDBRANCH  12  15
BRANCH   6  30
HETATM   30  S   UNL     1      25.367  44.372  51.207  1.00  0.00    -0.082 SA
BRANCH  30  31
HETATM   31  C   UNL     1      26.133  45.886  50.534  1.00  0.00     0.185 C 
BRANCH  31  32
HETATM   32  C   UNL     1      25.196  47.094  50.600  1.00  0.00     0.232 C 
HETATM   33  N   UNL     1      24.615  47.398  49.375  1.00  0.00    -0.324 N 
HETATM   34  H   UNL     1      24.857  46.792  48.587  1.00  0.00     0.169 HD
HETATM   35  O   UNL     1      25.039  47.693  51.657  1.00  0.00    -0.272 OA
BRANCH  33  36
HETATM   36  C   UNL     1      23.747  48.469  49.038  1.00  0.00     0.073 A 
HETATM   37  C   UNL     1      22.351  48.424  48.958  1.00  0.00     0.143 A 
HETATM   38  F   UNL     1      21.653  47.302  49.157  1.00  0.00    -0.204 F 
HETATM   39  C   UNL     1      21.610  49.560  48.615  1.00  0.00     0.044 A 
HETATM   40  C   UNL     1      22.249  50.768  48.344  1.00  0.00     0.003 A 
HETATM   41  C   UNL     1      23.634  50.835  48.415  1.00  0.00     0.002 A 
HETATM   42  C   UNL     1      24.374  49.697  48.756  1.00  0.00     0.033 A 
ENDBRANCH  33  36
ENDBRANCH  31  32
ENDBRANCH  30  31
ENDBRANCH   6  30
TORSDOF 8
ENDMDL
MODEL 8
REMARK VINA RESULT:      -9.5     19.899     22.486
REMARK  8 active torsions:
REMARK  status: ('A' for Active; 'I' for Inactive)
REMARK    1  A    between atoms: C_6  and  S_7 
REMARK    2  A    between atoms: S_7  and  C_8 
REMARK    3  A    between atoms: C_8  and  C_9 
REMARK       I    between atoms: C_9  and  N_10 
REMARK    4  A    between atoms: N_10  and  C_11 
REMARK    5  A    between atoms: C_24  and  C_25 
REMARK    6  A    between atoms: C_25  and  C_26 
REMARK       I    between atoms: C_26  and  N_27 
REMARK    7  A    between atoms: N_27  and  C_28 
REMARK    8  A    between atoms: C_28  and  C_29 
ROOT
HETATM    1  C   UNL     1      43.121  46.297  64.685  1.00  0.00     0.001 A 
HETATM    2  C   UNL     1      42.050  47.141  64.981  1.00  0.00     0.018 A 
HETATM    3  C   UNL     1      40.748  46.693  64.756  1.00  0.00     0.039 A 
HETATM    4  C   UNL     1      40.501  45.413  64.248  1.00  0.00     0.073 A 
HETATM    5  N   UNL     1      39.204  44.909  64.091  1.00  0.00    -0.223 NA
HETATM    6  C   UNL     1      38.209  45.680  64.380  1.00  0.00     0.178 C 
HETATM    7  N   UNL     1      38.352  47.010  64.747  1.00  0.00    -0.241 N 
HETATM    8  C   UNL     1      39.575  47.535  65.017  1.00  0.00     0.147 A 
HETATM    9  N   UNL     1      39.619  48.744  65.496  1.00  0.00    -0.256 NA
HETATM   10  C   UNL     1      37.414  47.985  64.994  1.00  0.00     0.257 A 
HETATM   11  O   UNL     1      36.201  47.970  64.857  1.00  0.00    -0.270 OA
HETATM   12  C   UNL     1      38.191  49.181  65.507  1.00  0.00     0.211 A 
HETATM   13  C   UNL     1      41.580  44.582  63.950  1.00  0.00     0.032 A 
HETATM   14  C   UNL     1      42.887  45.023  64.164  1.00  0.00     0.002 A 
ENDROOT
BRANCH  12  15
HETATM   15  C   UNL     1      37.727  49.623  66.894  1.00  0.00     0.140 C 
BRANCH  15  16
HETATM   16  C   UNL     1      38.877  49.786  67.873  1.00  0.00     0.220 C 
HETATM   17  N   UNL     1      39.207  48.773  68.713  1.00  0.00    -0.357 N 
HETATM   18  H   UNL     1      40.014  48.966  69.296  1.00  0.00     0.162 HD
HETATM   19  O   UNL     1      39.531  50.830  67.939  1.00  0.00    -0.274 OA
BRANCH  17  20
HETATM   20  C   UNL     1      38.703  47.415  68.718  1.00  0.00     0.161 C 
BRANCH  20  21
HETATM   21  C   UNL     1      39.801  46.426  68.414  1.00  0.00    -0.038 A 
HETATM   22  C   UNL     1      39.485  45.154  67.910  1.00  0.00     0.048 A 
HETATM   23  C   UNL     1      40.522  44.286  67.635  1.00  0.00     0.105 A 
HETATM   24  C   UNL     1      41.835  44.637  67.835  1.00  0.00     0.105 A 
HETATM   25  O   UNL     1      40.392  43.023  67.148  1.00  0.00    -0.323 OA
HETATM   26  O   UNL     1      42.697  43.641  67.497  1.00  0.00    -0.323 OA
HETATM   27  C   UNL     1      42.187  45.876  68.325  1.00  0.00     0.040 A 
HETATM   28  C   UNL     1      41.774  42.617  67.072  1.00  0.00     0.352 A 
HETATM   29  C   UNL     1      41.157  46.775  68.623  1.00  0.00     0.012 A 
ENDBRANCH  20  21
ENDBRANCH  17  20
ENDBRANCH  15  16
ENDBRANCH  12  15
BRANCH   6  30
HETATM   30  S   UNL     1      36.626  44.953  64.410  1.00  0.00    -0.082 SA
BRANCH  30  31
HETATM   31  C   UNL     1      36.888  43.812  65.810  1.00  0.00     0.185 C 
BRANCH  31  32
HETATM   32  C   UNL     1      37.142  42.374  65.353  1.00  0.00     0.232 C 
HETATM   33  N   UNL     1      38.460  42.148  64.978  1.00  0.00    -0.324 N 
HETATM   34  H   UNL     1      39.104  42.939  65.057  1.00  0.00     0.169 HD
HETATM   35  O   UNL     1      36.221  41.566  65.329  1.00  0.00    -0.272 OA
BRANCH  33  36
HETATM   36  C   UNL     1      39.051  40.969  64.453  1.00  0.00     0.073 A 
HETATM   37  C   UNL     1      39.130  40.599  63.106  1.00  0.00     0.143 A 
HETATM   38  F   UNL     1      38.595  41.331  62.124  1.00  0.00    -0.204 F 
HETATM   39  C   UNL     1      39.745  39.403  62.721  1.00  0.00     0.044 A 
HETATM   40  C   UNL     1      40.294  38.549  63.674  1.00  0.00     0.003 A 
HETATM   41  C   UNL     1      40.223  38.894  65.018  1.00  0.00     0.002 A 
HETATM   42  C   UNL     1      39.606  40.090  65.401  1.00  0.00     0.033 A 
ENDBRANCH  33  36
ENDBRANCH  31  32
ENDBRANCH  30  31
ENDBRANCH   6  30
TORSDOF 8
ENDMDL
MODEL 9
REMARK VINA RESULT:      -9.5      2.932      8.599
REMARK  8 active torsions:
REMARK  status: ('A' for Active; 'I' for Inactive)
REMARK    1  A    between atoms: C_6  and  S_7 
REMARK    2  A    between atoms: S_7  and  C_8 
REMARK    3  A    between atoms: C_8  and  C_9 
REMARK       I    between atoms: C_9  and  N_10 
REMARK    4  A    between atoms: N_10  and  C_11 
REMARK    5  A    between atoms: C_24  and  C_25 
REMARK    6  A    between atoms: C_25  and  C_26 
REMARK       I    between atoms: C_26  and  N_27 
REMARK    7  A    between atoms: N_27  and  C_28 
REMARK    8  A    between atoms: C_28  and  C_29 
ROOT
HETATM    1  C   UNL     1      27.580  47.003  55.290  1.00  0.00     0.001 A 
HETATM    2  C   UNL     1      27.077  47.321  54.028  1.00  0.00     0.018 A 
HETATM    3  C   UNL     1      26.760  46.291  53.142  1.00  0.00     0.039 A 
HETATM    4  C   UNL     1      26.931  44.950  53.500  1.00  0.00     0.073 A 
HETATM    5  N   UNL     1      26.543  43.897  52.662  1.00  0.00    -0.223 NA
HETATM    6  C   UNL     1      26.061  44.187  51.500  1.00  0.00     0.178 C 
HETATM    7  N   UNL     1      25.992  45.478  50.999  1.00  0.00    -0.241 N 
HETATM    8  C   UNL     1      26.253  46.551  51.790  1.00  0.00     0.147 A 
HETATM    9  N   UNL     1      26.027  47.733  51.294  1.00  0.00    -0.256 NA
HETATM   10  C   UNL     1      25.602  45.950  49.768  1.00  0.00     0.257 A 
HETATM   11  O   UNL     1      25.306  45.350  48.746  1.00  0.00    -0.270 OA
HETATM   12  C   UNL     1      25.595  47.461  49.891  1.00  0.00     0.211 A 
HETATM   13  C   UNL     1      27.441  44.646  54.762  1.00  0.00     0.032 A 
HETATM   14  C   UNL     1      27.768  45.668  55.654  1.00  0.00     0.002 A 
ENDROOT
BRANCH  12  15
HETATM   15  C   UNL     1      24.228  48.063  49.573  1.00  0.00     0.140 C 
BRANCH  15  16
HETATM   16  C   UNL     1      24.325  49.329  48.738  1.00  0.00     0.220 C 
HETATM   17  N   UNL     1      23.295  50.212  48.715  1.00  0.00    -0.357 N 
HETATM   18  H   UNL     1      23.475  51.042  48.162  1.00  0.00     0.162 HD
HETATM   19  O   UNL     1      25.323  49.584  48.059  1.00  0.00    -0.274 OA
BRANCH  17  20
HETATM   20  C   UNL     1      22.102  50.216  49.537  1.00  0.00     0.161 C 
BRANCH  20  21
HETATM   21  C   UNL     1      20.887  50.603  48.731  1.00  0.00    -0.038 A 
HETATM   22  C   UNL     1      20.520  49.851  47.603  1.00  0.00     0.048 A 
HETATM   23  C   UNL     1      19.394  50.234  46.903  1.00  0.00     0.105 A 
HETATM   24  C   UNL     1      18.635  51.315  47.283  1.00  0.00     0.105 A 
HETATM   25  O   UNL     1      18.903  49.622  45.793  1.00  0.00    -0.323 OA
HETATM   26  O   UNL     1      17.569  51.516  46.462  1.00  0.00    -0.323 OA
HETATM   27  C   UNL     1      18.960  52.076  48.384  1.00  0.00     0.040 A 
HETATM   28  C   UNL     1      17.752  50.445  45.513  1.00  0.00     0.352 A 
HETATM   29  C   UNL     1      20.101  51.719  49.109  1.00  0.00     0.012 A 
ENDBRANCH  20  21
ENDBRANCH  17  20
ENDBRANCH  15  16
ENDBRANCH  12  15
BRANCH   6  30
HETATM   30  S   UNL     1      25.365  42.879  50.583  1.00  0.00    -0.082 SA
BRANCH  30  31
HETATM   31  C   UNL     1      23.609  43.187  50.978  1.00  0.00     0.185 C 
BRANCH  31  32
HETATM   32  C   UNL     1      22.745  43.332  49.723  1.00  0.00     0.232 C 
HETATM   33  N   UNL     1      22.394  44.649  49.455  1.00  0.00    -0.324 N 
HETATM   34  H   UNL     1      22.750  45.362  50.097  1.00  0.00     0.169 HD
HETATM   35  O   UNL     1      22.421  42.339  49.083  1.00  0.00    -0.272 OA
BRANCH  33  36
HETATM   36  C   UNL     1      21.564  45.161  48.423  1.00  0.00     0.073 A 
HETATM   37  C   UNL     1      21.865  45.224  47.059  1.00  0.00     0.143 A 
HETATM   38  F   UNL     1      23.041  44.828  46.560  1.00  0.00    -0.204 F 
HETATM   39  C   UNL     1      20.952  45.753  46.140  1.00  0.00     0.044 A 
HETATM   40  C   UNL     1      19.716  46.233  46.567  1.00  0.00     0.003 A 
HETATM   41  C   UNL     1      19.397  46.184  47.918  1.00  0.00     0.002 A 
HETATM   42  C   UNL     1      20.313  45.656  48.835  1.00  0.00     0.033 A 
ENDBRANCH  33  36
ENDBRANCH  31  32
ENDBRANCH  30  31
ENDBRANCH   6  30
TORSDOF 8
ENDMDL
MODEL 10
REMARK VINA RESULT:      -9.4      2.734      4.774
REMARK  8 active torsions:
REMARK  status: ('A' for Active; 'I' for Inactive)
REMARK    1  A    between atoms: C_6  and  S_7 
REMARK    2  A    between atoms: S_7  and  C_8 
REMARK    3  A    between atoms: C_8  and  C_9 
REMARK       I    between atoms: C_9  and  N_10 
REMARK    4  A    between atoms: N_10  and  C_11 
REMARK    5  A    between atoms: C_24  and  C_25 
REMARK    6  A    between atoms: C_25  and  C_26 
REMARK       I    between atoms: C_26  and  N_27 
REMARK    7  A    between atoms: N_27  and  C_28 
REMARK    8  A    between atoms: C_28  and  C_29 
ROOT
HETATM    1  C   UNL     1      19.157  44.752  47.398  1.00  0.00     0.001 A 
HETATM    2  C   UNL     1      20.410  45.147  47.867  1.00  0.00     0.018 A 
HETATM    3  C   UNL     1      20.626  46.488  48.186  1.00  0.00     0.039 A 
HETATM    4  C   UNL     1      19.607  47.438  48.052  1.00  0.00     0.073 A 
HETATM    5  N   UNL     1      19.773  48.772  48.444  1.00  0.00    -0.223 NA
HETATM    6  C   UNL     1      20.926  49.139  48.894  1.00  0.00     0.178 C 
HETATM    7  N   UNL     1      22.036  48.308  48.924  1.00  0.00    -0.241 N 
HETATM    8  C   UNL     1      21.925  46.981  48.657  1.00  0.00     0.147 A 
HETATM    9  N   UNL     1      22.978  46.239  48.847  1.00  0.00    -0.256 NA
HETATM   10  C   UNL     1      23.342  48.558  49.277  1.00  0.00     0.257 A 
HETATM   11  O   UNL     1      23.899  49.605  49.563  1.00  0.00    -0.270 OA
HETATM   12  C   UNL     1      24.037  47.210  49.253  1.00  0.00     0.211 A 
HETATM   13  C   UNL     1      18.362  47.031  47.576  1.00  0.00     0.032 A 
HETATM   14  C   UNL     1      18.137  45.693  47.246  1.00  0.00     0.002 A 
ENDROOT
BRANCH  12  15
HETATM   15  C   UNL     1      24.666  46.859  50.601  1.00  0.00     0.140 C 
BRANCH  15  16
HETATM   16  C   UNL     1      25.897  45.978  50.460  1.00  0.00     0.220 C 
HETATM   17  N   UNL     1      26.535  45.518  51.566  1.00  0.00    -0.357 N 
HETATM   18  H   UNL     1      27.318  44.906  51.365  1.00  0.00     0.162 HD
HETATM   19  O   UNL     1      26.351  45.667  49.356  1.00  0.00    -0.274 OA
BRANCH  17  20
HETATM   20  C   UNL     1      26.111  45.611  52.948  1.00  0.00     0.161 C 
BRANCH  20  21
HETATM   21  C   UNL     1      27.278  45.439  53.887  1.00  0.00    -0.038 A 
HETATM   22  C   UNL     1      28.075  44.284  53.819  1.00  0.00     0.048 A 
HETATM   23  C   UNL     1      29.141  44.175  54.689  1.00  0.00     0.105 A 
HETATM   24  C   UNL     1      29.436  45.158  55.602  1.00  0.00     0.105 A 
HETATM   25  O   UNL     1      30.005  43.127  54.758  1.00  0.00    -0.323 OA
HETATM   26  O   UNL     1      30.525  44.855  56.358  1.00  0.00    -0.323 OA
HETATM   27  C   UNL     1      28.681  46.306  55.699  1.00  0.00     0.040 A 
HETATM   28  C   UNL     1      30.874  43.561  55.824  1.00  0.00     0.352 A 
HETATM   29  C   UNL     1      27.589  46.442  54.837  1.00  0.00     0.012 A 
ENDBRANCH  20  21
ENDBRANCH  17  20
ENDBRANCH  15  16
ENDBRANCH  12  15
BRANCH   6  30
HETATM   30  S   UNL     1      21.032  50.728  49.598  1.00  0.00    -0.082 SA
BRANCH  30  31
HETATM   31  C   UNL     1      19.329  50.844  50.244  1.00  0.00     0.185 C 
BRANCH  31  32
HETATM   32  C   UNL     1      18.502  51.911  49.524  1.00  0.00     0.232 C 
HETATM   33  N   UNL     1      17.173  51.934  49.930  1.00  0.00    -0.324 N 
HETATM   34  H   UNL     1      16.901  51.265  50.655  1.00  0.00     0.169 HD
HETATM   35  O   UNL     1      19.024  52.622  48.673  1.00  0.00    -0.272 OA
BRANCH  33  36
HETATM   36  C   UNL     1      16.106  52.738  49.452  1.00  0.00     0.073 A 
HETATM   37  C   UNL     1      15.546  52.714  48.171  1.00  0.00     0.143 A 
HETATM   38  F   UNL     1      16.007  51.922  47.197  1.00  0.00    -0.204 F 
HETATM   39  C   UNL     1      14.489  53.564  47.828  1.00  0.00     0.044 A 
HETATM   40  C   UNL     1      13.968  54.458  48.759  1.00  0.00     0.003 A 
HETATM   41  C   UNL     1      14.511  54.503  50.037  1.00  0.00     0.002 A 
HETATM   42  C   UNL     1      15.569  53.653  50.378  1.00  0.00     0.033 A 
ENDBRANCH  33  36
ENDBRANCH  31  32
ENDBRANCH  30  31
ENDBRANCH   6  30
TORSDOF 8
ENDMDL
