MODEL 1
REMARK VINA RESULT:      -8.8      0.000      0.000
REMARK  7 active torsions:
REMARK  status: ('A' for Active; 'I' for Inactive)
REMARK       I    between atoms: C_2  and  N_3 
REMARK    1  A    between atoms: N_3  and  C_4 
REMARK    2  A    between atoms: C_6  and  N_7 
REMARK       I    between atoms: N_7  and  C_8 
REMARK       I    between atoms: C_8  and  N_9 
REMARK    3  A    between atoms: N_9  and  C_10 
REMARK    4  A    between atoms: C_10  and  C_11 
REMARK    5  A    between atoms: C_11  and  C_12 
REMARK    6  A    between atoms: N_14  and  C_16 
REMARK    7  A    between atoms: C_16  and  C_17 
ROOT
HETATM    1  N   UNL     1      24.019  50.387  48.050  1.00  0.00    -0.309 N 
HETATM    2  C   UNL     1      25.234  49.788  48.184  1.00  0.00     0.320 C 
HETATM    3  N   UNL     1      25.371  48.848  49.157  1.00  0.00    -0.343 N 
HETATM    4  O   UNL     1      26.164  50.116  47.446  1.00  0.00    -0.247 OA
HETATM    5  H   UNL     1      24.079  51.228  47.489  1.00  0.00     0.170 HD
HETATM    6  H   UNL     1      24.691  48.913  49.905  1.00  0.00     0.164 HD
ENDROOT
BRANCH   3   7
HETATM    7  C   UNL     1      26.645  48.274  49.530  1.00  0.00     0.125 C 
BRANCH   7   8
HETATM    8  C   UNL     1      26.626  46.748  49.667  1.00  0.00     0.026 C 
BRANCH   8   9
HETATM    9  C   UNL     1      26.064  46.123  50.951  1.00  0.00     0.014 C 
HETATM   10  C   UNL     1      26.978  45.147  51.680  1.00  0.00     0.240 C 
HETATM   11  N   UNL     1      26.045  44.300  52.524  1.00  0.00    -0.067 N 
HETATM   12  H   UNL     1      26.216  43.329  52.226  1.00  0.00     0.280 HD
HETATM   13  C   UNL     1      24.625  44.646  52.132  1.00  0.00     0.235 C 
HETATM   14  C   UNL     1      24.749  45.374  50.810  1.00  0.00     0.034 C 
BRANCH  11  15
HETATM   15  C   UNL     1      26.273  44.369  54.006  1.00  0.00     0.273 C 
BRANCH  15  16
HETATM   16  C   UNL     1      27.698  44.125  54.421  1.00  0.00    -0.033 A 
HETATM   17  C   UNL     1      28.422  45.113  55.107  1.00  0.00     0.009 A 
HETATM   18  C   UNL     1      29.736  44.875  55.513  1.00  0.00     0.001 A 
HETATM   19  C   UNL     1      30.340  43.651  55.241  1.00  0.00     0.000 A 
HETATM   20  C   UNL     1      29.633  42.663  54.560  1.00  0.00     0.001 A 
HETATM   21  C   UNL     1      28.319  42.897  54.148  1.00  0.00     0.009 A 
ENDBRANCH  15  16
ENDBRANCH  11  15
ENDBRANCH   8   9
ENDBRANCH   7   8
ENDBRANCH   3   7
BRANCH   1  22
HETATM   22  C   UNL     1      22.735  50.063  48.537  1.00  0.00     0.038 A 
HETATM   23  C   UNL     1      22.158  48.788  48.463  1.00  0.00     0.059 A 
HETATM   24  C   UNL     1      20.884  48.539  48.988  1.00  0.00     0.036 A 
HETATM   25  C   UNL     1      20.164  49.599  49.553  1.00  0.00     0.029 A 
HETATM   26  C   UNL     1      20.708  50.881  49.592  1.00  0.00     0.004 A 
HETATM   27  C   UNL     1      21.986  51.112  49.082  1.00  0.00     0.029 A 
BRANCH  24  28
HETATM   28  N   UNL     1      20.261  47.273  48.983  1.00  0.00    -0.327 N 
HETATM   29  C   UNL     1      19.683  46.621  47.909  1.00  0.00     0.218 C 
HETATM   30  C   UNL     1      19.130  45.263  48.274  1.00  0.00     0.117 C 
HETATM   31  O   UNL     1      19.618  47.031  46.754  1.00  0.00    -0.274 OA
HETATM   32  H   UNL     1      20.279  46.771  49.864  1.00  0.00     0.169 HD
ENDBRANCH  24  28
ENDBRANCH   1  22
TORSDOF 7
ENDMDL
MODEL 2
REMARK VINA RESULT:      -8.7      3.257     10.386
REMARK  7 active torsions:
REMARK  status: ('A' for Active; 'I' for Inactive)
REMARK       I    between atoms: C_2  and  N_3 
REMARK    1  A    between atoms: N_3  and  C_4 
REMARK    2  A    between atoms: C_6  and  N_7 
REMARK       I    between atoms: N_7  and  C_8 
REMARK       I    between atoms: C_8  and  N_9 
REMARK    3  A    between atoms: N_9  and  C_10 
REMARK    4  A    between atoms: C_10  and  C_11 
REMARK    5  A    between atoms: C_11  and  C_12 
REMARK    6  A    between atoms: N_14  and  C_16 
REMARK    7  A    between atoms: C_16  and  C_17 
ROOT
HETATM    1  N   UNL     1      26.321  43.317  53.200  1.00  0.00    -0.309 N 
HETATM    2  C   UNL     1      25.588  44.045  52.314  1.00  0.00     0.320 C 
HETATM    3  N   UNL     1      26.032  45.291  52.001  1.00  0.00    -0.343 N 
HETATM    4  O   UNL     1      24.553  43.573  51.840  1.00  0.00    -0.247 OA
HETATM    5  H   UNL     1      25.796  42.528  53.557  1.00  0.00     0.170 HD
HETATM    6  H   UNL     1      26.654  45.702  52.686  1.00  0.00     0.164 HD
ENDROOT
BRANCH   3   7
HETATM    7  C   UNL     1      25.257  46.237  51.227  1.00  0.00     0.125 C 
BRANCH   7   8
HETATM    8  C   UNL     1      26.023  46.861  50.056  1.00  0.00     0.026 C 
BRANCH   8   9
HETATM    9  C   UNL     1      25.709  48.307  49.649  1.00  0.00     0.014 C 
HETATM   10  C   UNL     1      24.295  48.572  49.147  1.00  0.00     0.240 C 
HETATM   11  N   UNL     1      24.408  49.845  48.329  1.00  0.00    -0.067 N 
HETATM   12  H   UNL     1      24.066  49.594  47.389  1.00  0.00     0.280 HD
HETATM   13  C   UNL     1      25.876  50.181  48.196  1.00  0.00     0.235 C 
HETATM   14  C   UNL     1      26.606  48.911  48.580  1.00  0.00     0.034 C 
BRANCH  11  15
HETATM   15  C   UNL     1      23.587  51.002  48.819  1.00  0.00     0.273 C 
BRANCH  15  16
HETATM   16  C   UNL     1      22.103  50.761  48.786  1.00  0.00    -0.033 A 
HETATM   17  C   UNL     1      21.472  50.340  47.604  1.00  0.00     0.009 A 
HETATM   18  C   UNL     1      20.099  50.094  47.582  1.00  0.00     0.001 A 
HETATM   19  C   UNL     1      19.341  50.264  48.737  1.00  0.00     0.000 A 
HETATM   20  C   UNL     1      19.953  50.684  49.915  1.00  0.00     0.001 A 
HETATM   21  C   UNL     1      21.327  50.935  49.942  1.00  0.00     0.009 A 
ENDBRANCH  15  16
ENDBRANCH  11  15
ENDBRANCH   8   9
ENDBRANCH   7   8
ENDBRANCH   3   7
BRANCH   1  22
HETATM   22  C   UNL     1      27.634  43.457  53.697  1.00  0.00     0.038 A 
HETATM   23  C   UNL     1      28.006  44.356  54.705  1.00  0.00     0.059 A 
HETATM   24  C   UNL     1      29.329  44.424  55.161  1.00  0.00     0.036 A 
HETATM   25  C   UNL     1      30.297  43.609  54.561  1.00  0.00     0.029 A 
HETATM   26  C   UNL     1      29.948  42.744  53.526  1.00  0.00     0.004 A 
HETATM   27  C   UNL     1      28.623  42.673  53.094  1.00  0.00     0.029 A 
BRANCH  24  28
HETATM   28  N   UNL     1      29.765  45.275  56.199  1.00  0.00    -0.327 N 
HETATM   29  C   UNL     1      30.557  44.946  57.283  1.00  0.00     0.218 C 
HETATM   30  C   UNL     1      30.841  46.127  58.183  1.00  0.00     0.117 C 
HETATM   31  O   UNL     1      31.035  43.844  57.532  1.00  0.00    -0.274 OA
HETATM   32  H   UNL     1      29.496  46.250  56.110  1.00  0.00     0.169 HD
ENDBRANCH  24  28
ENDBRANCH   1  22
TORSDOF 7
ENDMDL
MODEL 3
REMARK VINA RESULT:      -8.7      3.020     10.293
REMARK  7 active torsions:
REMARK  status: ('A' for Active; 'I' for Inactive)
REMARK       I    between atoms: C_2  and  N_3 
REMARK    1  A    between atoms: N_3  and  C_4 
REMARK    2  A    between atoms: C_6  and  N_7 
REMARK       I    between atoms: N_7  and  C_8 
REMARK       I    between atoms: C_8  and  N_9 
REMARK    3  A    between atoms: N_9  and  C_10 
REMARK    4  A    between atoms: C_10  and  C_11 
REMARK    5  A    between atoms: C_11  and  C_12 
REMARK    6  A    between atoms: N_14  and  C_16 
REMARK    7  A    between atoms: C_16  and  C_17 
ROOT
HETATM    1  N   UNL     1      26.261  43.371  52.914  1.00  0.00    -0.309 N 
HETATM    2  C   UNL     1      25.691  43.774  51.745  1.00  0.00     0.320 C 
HETATM    3  N   UNL     1      26.451  44.514  50.896  1.00  0.00    -0.343 N 
HETATM    4  O   UNL     1      24.521  43.478  51.499  1.00  0.00    -0.247 OA
HETATM    5  H   UNL     1      25.563  43.054  53.577  1.00  0.00     0.170 HD
HETATM    6  H   UNL     1      27.233  44.987  51.332  1.00  0.00     0.164 HD
ENDROOT
BRANCH   3   7
HETATM    7  C   UNL     1      25.919  45.162  49.716  1.00  0.00     0.125 C 
BRANCH   7   8
HETATM    8  C   UNL     1      25.406  46.585  49.963  1.00  0.00     0.026 C 
BRANCH   8   9
HETATM    9  C   UNL     1      24.167  47.071  49.198  1.00  0.00     0.014 C 
HETATM   10  C   UNL     1      23.509  48.341  49.722  1.00  0.00     0.240 C 
HETATM   11  N   UNL     1      22.088  48.286  49.193  1.00  0.00    -0.067 N 
HETATM   12  H   UNL     1      21.487  48.329  50.029  1.00  0.00     0.280 HD
HETATM   13  C   UNL     1      21.882  46.928  48.561  1.00  0.00     0.235 C 
HETATM   14  C   UNL     1      23.023  46.077  49.078  1.00  0.00     0.034 C 
BRANCH  11  15
HETATM   15  C   UNL     1      21.693  49.416  48.288  1.00  0.00     0.273 C 
BRANCH  15  16
HETATM   16  C   UNL     1      20.548  50.245  48.802  1.00  0.00    -0.033 A 
HETATM   17  C   UNL     1      20.302  51.526  48.282  1.00  0.00     0.009 A 
HETATM   18  C   UNL     1      19.224  52.284  48.744  1.00  0.00     0.001 A 
HETATM   19  C   UNL     1      18.382  51.772  49.726  1.00  0.00     0.000 A 
HETATM   20  C   UNL     1      18.615  50.503  50.252  1.00  0.00     0.001 A 
HETATM   21  C   UNL     1      19.695  49.743  49.796  1.00  0.00     0.009 A 
ENDBRANCH  15  16
ENDBRANCH  11  15
ENDBRANCH   8   9
ENDBRANCH   7   8
ENDBRANCH   3   7
BRANCH   1  22
HETATM   22  C   UNL     1      27.599  43.320  53.358  1.00  0.00     0.038 A 
HETATM   23  C   UNL     1      28.092  44.019  54.468  1.00  0.00     0.059 A 
HETATM   24  C   UNL     1      29.432  43.901  54.859  1.00  0.00     0.036 A 
HETATM   25  C   UNL     1      30.295  43.107  54.095  1.00  0.00     0.029 A 
HETATM   26  C   UNL     1      29.827  42.443  52.962  1.00  0.00     0.004 A 
HETATM   27  C   UNL     1      28.486  42.554  52.594  1.00  0.00     0.029 A 
BRANCH  24  28
HETATM   28  N   UNL     1      29.985  44.543  55.987  1.00  0.00    -0.327 N 
HETATM   29  C   UNL     1      29.534  45.694  56.609  1.00  0.00     0.218 C 
HETATM   30  C   UNL     1      30.367  46.078  57.810  1.00  0.00     0.117 C 
HETATM   31  O   UNL     1      28.555  46.362  56.289  1.00  0.00    -0.274 OA
HETATM   32  H   UNL     1      30.780  44.078  56.412  1.00  0.00     0.169 HD
ENDBRANCH  24  28
ENDBRANCH   1  22
TORSDOF 7
ENDMDL
MODEL 4
REMARK VINA RESULT:      -8.6      2.715      4.900
REMARK  7 active torsions:
REMARK  status: ('A' for Active; 'I' for Inactive)
REMARK       I    between atoms: C_2  and  N_3 
REMARK    1  A    between atoms: N_3  and  C_4 
REMARK    2  A    between atoms: C_6  and  N_7 
REMARK       I    between atoms: N_7  and  C_8 
REMARK       I    between atoms: C_8  and  N_9 
REMARK    3  A    between atoms: N_9  and  C_10 
REMARK    4  A    between atoms: C_10  and  C_11 
REMARK    5  A    between atoms: C_11  and  C_12 
REMARK    6  A    between atoms: N_14  and  C_16 
REMARK    7  A    between atoms: C_16  and  C_17 
ROOT
HETATM    1  N   UNL     1      23.795  44.897  50.603  1.00  0.00    -0.309 N 
HETATM    2  C   UNL     1      24.112  43.588  50.403  1.00  0.00     0.320 C 
HETATM    3  N   UNL     1      25.020  43.299  49.435  1.00  0.00    -0.343 N 
HETATM    4  O   UNL     1      23.566  42.715  51.080  1.00  0.00    -0.247 OA
HETATM    5  H   UNL     1      22.948  44.995  51.150  1.00  0.00     0.170 HD
HETATM    6  H   UNL     1      25.127  44.017  48.728  1.00  0.00     0.164 HD
ENDROOT
BRANCH   3   7
HETATM    7  C   UNL     1      25.306  41.952  48.992  1.00  0.00     0.125 C 
BRANCH   7   8
HETATM    8  C   UNL     1      26.732  41.483  49.296  1.00  0.00     0.026 C 
BRANCH   8   9
HETATM    9  C   UNL     1      27.186  41.383  50.758  1.00  0.00     0.014 C 
HETATM   10  C   UNL     1      27.568  42.694  51.434  1.00  0.00     0.240 C 
HETATM   11  N   UNL     1      28.461  42.286  52.591  1.00  0.00    -0.067 N 
HETATM   12  H   UNL     1      29.349  42.784  52.436  1.00  0.00     0.280 HD
HETATM   13  C   UNL     1      28.748  40.807  52.455  1.00  0.00     0.235 C 
HETATM   14  C   UNL     1      28.365  40.462  51.031  1.00  0.00     0.034 C 
BRANCH  11  15
HETATM   15  C   UNL     1      27.960  42.659  53.956  1.00  0.00     0.273 C 
BRANCH  15  16
HETATM   16  C   UNL     1      28.870  43.587  54.713  1.00  0.00    -0.033 A 
HETATM   17  C   UNL     1      28.451  44.886  55.045  1.00  0.00     0.009 A 
HETATM   18  C   UNL     1      29.288  45.737  55.769  1.00  0.00     0.001 A 
HETATM   19  C   UNL     1      30.548  45.302  56.169  1.00  0.00     0.000 A 
HETATM   20  C   UNL     1      30.976  44.017  55.845  1.00  0.00     0.001 A 
HETATM   21  C   UNL     1      30.144  43.162  55.118  1.00  0.00     0.009 A 
ENDBRANCH  15  16
ENDBRANCH  11  15
ENDBRANCH   8   9
ENDBRANCH   7   8
ENDBRANCH   3   7
BRANCH   1  22
HETATM   22  C   UNL     1      24.409  46.101  50.198  1.00  0.00     0.038 A 
HETATM   23  C   UNL     1      23.760  47.119  49.486  1.00  0.00     0.059 A 
HETATM   24  C   UNL     1      24.432  48.297  49.136  1.00  0.00     0.036 A 
HETATM   25  C   UNL     1      25.786  48.431  49.466  1.00  0.00     0.029 A 
HETATM   26  C   UNL     1      26.454  47.406  50.133  1.00  0.00     0.004 A 
HETATM   27  C   UNL     1      25.769  46.245  50.493  1.00  0.00     0.029 A 
BRANCH  24  28
HETATM   28  N   UNL     1      23.831  49.378  48.456  1.00  0.00    -0.327 N 
HETATM   29  C   UNL     1      23.013  50.359  48.987  1.00  0.00     0.218 C 
HETATM   30  C   UNL     1      22.569  51.373  47.959  1.00  0.00     0.117 C 
HETATM   31  O   UNL     1      22.671  50.469  50.161  1.00  0.00    -0.274 OA
HETATM   32  H   UNL     1      24.063  49.462  47.472  1.00  0.00     0.169 HD
ENDBRANCH  24  28
ENDBRANCH   1  22
TORSDOF 7
ENDMDL
MODEL 5
REMARK VINA RESULT:      -8.6      2.037      2.894
REMARK  7 active torsions:
REMARK  status: ('A' for Active; 'I' for Inactive)
REMARK       I    between atoms: C_2  and  N_3 
REMARK    1  A    between atoms: N_3  and  C_4 
REMARK    2  A    between atoms: C_6  and  N_7 
REMARK       I    between atoms: N_7  and  C_8 
REMARK       I    between atoms: C_8  and  N_9 
REMARK    3  A    between atoms: N_9  and  C_10 
REMARK    4  A    between atoms: C_10  and  C_11 
REMARK    5  A    between atoms: C_11  and  C_12 
REMARK    6  A    between atoms: N_14  and  C_16 
REMARK    7  A    between atoms: C_16  and  C_17 
ROOT
HETATM    1  N   UNL     1      23.543  49.866  48.352  1.00  0.00    -0.309 N 
HETATM    2  C   UNL     1      24.430  49.036  48.966  1.00  0.00     0.320 C 
HETATM    3  N   UNL     1      23.929  48.061  49.769  1.00  0.00    -0.343 N 
HETATM    4  O   UNL     1      25.639  49.194  48.793  1.00  0.00    -0.247 OA
HETATM    5  H   UNL     1      24.001  50.694  47.989  1.00  0.00     0.170 HD
HETATM    6  H   UNL     1      22.994  48.238  50.115  1.00  0.00     0.164 HD
ENDROOT
BRANCH   3   7
HETATM    7  C   UNL     1      24.756  47.235  50.623  1.00  0.00     0.125 C 
BRANCH   7   8
HETATM    8  C   UNL     1      24.502  45.732  50.474  1.00  0.00     0.026 C 
BRANCH   8   9
HETATM    9  C   UNL     1      25.498  44.744  51.096  1.00  0.00     0.014 C 
HETATM   10  C   UNL     1      26.218  45.216  52.352  1.00  0.00     0.240 C 
HETATM   11  N   UNL     1      27.468  44.360  52.426  1.00  0.00    -0.067 N 
HETATM   12  H   UNL     1      28.254  45.027  52.432  1.00  0.00     0.280 HD
HETATM   13  C   UNL     1      27.563  43.567  51.142  1.00  0.00     0.235 C 
HETATM   14  C   UNL     1      26.613  44.256  50.185  1.00  0.00     0.034 C 
BRANCH  11  15
HETATM   15  C   UNL     1      27.591  43.501  53.651  1.00  0.00     0.273 C 
BRANCH  15  16
HETATM   16  C   UNL     1      28.745  43.864  54.544  1.00  0.00    -0.033 A 
HETATM   17  C   UNL     1      28.767  45.094  55.221  1.00  0.00     0.009 A 
HETATM   18  C   UNL     1      29.828  45.418  56.068  1.00  0.00     0.001 A 
HETATM   19  C   UNL     1      30.874  44.519  56.251  1.00  0.00     0.000 A 
HETATM   20  C   UNL     1      30.866  43.296  55.585  1.00  0.00     0.001 A 
HETATM   21  C   UNL     1      29.809  42.968  54.733  1.00  0.00     0.009 A 
ENDBRANCH  15  16
ENDBRANCH  11  15
ENDBRANCH   8   9
ENDBRANCH   7   8
ENDBRANCH   3   7
BRANCH   1  22
HETATM   22  C   UNL     1      22.150  49.790  48.140  1.00  0.00     0.038 A 
HETATM   23  C   UNL     1      21.236  50.778  48.527  1.00  0.00     0.059 A 
HETATM   24  C   UNL     1      19.867  50.639  48.264  1.00  0.00     0.036 A 
HETATM   25  C   UNL     1      19.410  49.469  47.646  1.00  0.00     0.029 A 
HETATM   26  C   UNL     1      20.304  48.458  47.298  1.00  0.00     0.004 A 
HETATM   27  C   UNL     1      21.668  48.618  47.549  1.00  0.00     0.029 A 
BRANCH  24  28
HETATM   28  N   UNL     1      18.897  51.611  48.589  1.00  0.00    -0.327 N 
HETATM   29  C   UNL     1      18.004  51.592  49.645  1.00  0.00     0.218 C 
HETATM   30  C   UNL     1      17.125  52.820  49.693  1.00  0.00     0.117 C 
HETATM   31  O   UNL     1      17.903  50.719  50.501  1.00  0.00    -0.274 OA
HETATM   32  H   UNL     1      18.888  52.437  48.000  1.00  0.00     0.169 HD
ENDBRANCH  24  28
ENDBRANCH   1  22
TORSDOF 7
ENDMDL
MODEL 6
REMARK VINA RESULT:      -8.5      4.413      7.865
REMARK  7 active torsions:
REMARK  status: ('A' for Active; 'I' for Inactive)
REMARK       I    between atoms: C_2  and  N_3 
REMARK    1  A    between atoms: N_3  and  C_4 
REMARK    2  A    between atoms: C_6  and  N_7 
REMARK       I    between atoms: N_7  and  C_8 
REMARK       I    between atoms: C_8  and  N_9 
REMARK    3  A    between atoms: N_9  and  C_10 
REMARK    4  A    between atoms: C_10  and  C_11 
REMARK    5  A    between atoms: C_11  and  C_12 
REMARK    6  A    between atoms: N_14  and  C_16 
REMARK    7  A    between atoms: C_16  and  C_17 
ROOT
HETATM    1  N   UNL     1      24.869  42.181  50.685  1.00  0.00    -0.309 N 
HETATM    2  C   UNL     1      24.451  43.474  50.767  1.00  0.00     0.320 C 
HETATM    3  N   UNL     1      25.348  44.448  50.463  1.00  0.00    -0.343 N 
HETATM    4  O   UNL     1      23.298  43.725  51.121  1.00  0.00    -0.247 OA
HETATM    5  H   UNL     1      24.232  41.554  51.161  1.00  0.00     0.170 HD
HETATM    6  H   UNL     1      26.319  44.167  50.537  1.00  0.00     0.164 HD
ENDROOT
BRANCH   3   7
HETATM    7  C   UNL     1      25.097  45.856  50.687  1.00  0.00     0.125 C 
BRANCH   7   8
HETATM    8  C   UNL     1      25.133  46.270  52.162  1.00  0.00     0.026 C 
BRANCH   8   9
HETATM    9  C   UNL     1      26.469  46.224  52.915  1.00  0.00     0.014 C 
HETATM   10  C   UNL     1      26.816  44.902  53.589  1.00  0.00     0.240 C 
HETATM   11  N   UNL     1      27.823  45.269  54.662  1.00  0.00    -0.067 N 
HETATM   12  H   UNL     1      27.408  44.939  55.546  1.00  0.00     0.280 HD
HETATM   13  C   UNL     1      27.892  46.778  54.736  1.00  0.00     0.235 C 
HETATM   14  C   UNL     1      26.657  47.264  54.008  1.00  0.00     0.034 C 
BRANCH  11  15
HETATM   15  C   UNL     1      29.174  44.630  54.526  1.00  0.00     0.273 C 
BRANCH  15  16
HETATM   16  C   UNL     1      29.963  44.577  55.805  1.00  0.00    -0.033 A 
HETATM   17  C   UNL     1      30.891  43.548  56.032  1.00  0.00     0.009 A 
HETATM   18  C   UNL     1      31.640  43.516  57.210  1.00  0.00     0.001 A 
HETATM   19  C   UNL     1      31.471  44.508  58.171  1.00  0.00     0.000 A 
HETATM   20  C   UNL     1      30.552  45.534  57.959  1.00  0.00     0.001 A 
HETATM   21  C   UNL     1      29.798  45.569  56.785  1.00  0.00     0.009 A 
ENDBRANCH  15  16
ENDBRANCH  11  15
ENDBRANCH   8   9
ENDBRANCH   7   8
ENDBRANCH   3   7
BRANCH   1  22
HETATM   22  C   UNL     1      25.993  41.576  50.083  1.00  0.00     0.038 A 
HETATM   23  C   UNL     1      26.883  40.722  50.748  1.00  0.00     0.059 A 
HETATM   24  C   UNL     1      27.967  40.143  50.075  1.00  0.00     0.036 A 
HETATM   25  C   UNL     1      28.182  40.466  48.730  1.00  0.00     0.029 A 
HETATM   26  C   UNL     1      27.331  41.350  48.071  1.00  0.00     0.004 A 
HETATM   27  C   UNL     1      26.244  41.906  48.747  1.00  0.00     0.029 A 
BRANCH  24  28
HETATM   28  N   UNL     1      28.877  39.244  50.671  1.00  0.00    -0.327 N 
HETATM   29  C   UNL     1      28.925  37.870  50.521  1.00  0.00     0.218 C 
HETATM   30  C   UNL     1      30.056  37.234  51.298  1.00  0.00     0.117 C 
HETATM   31  O   UNL     1      28.182  37.183  49.827  1.00  0.00    -0.274 OA
HETATM   32  H   UNL     1      29.602  39.666  51.241  1.00  0.00     0.169 HD
ENDBRANCH  24  28
ENDBRANCH   1  22
TORSDOF 7
ENDMDL
MODEL 7
REMARK VINA RESULT:      -8.4      1.937      2.932
REMARK  7 active torsions:
REMARK  status: ('A' for Active; 'I' for Inactive)
REMARK       I    between atoms: C_2  and  N_3 
REMARK    1  A    between atoms: N_3  and  C_4 
REMARK    2  A    between atoms: C_6  and  N_7 
REMARK       I    between atoms: N_7  and  C_8 
REMARK       I    between atoms: C_8  and  N_9 
REMARK    3  A    between atoms: N_9  and  C_10 
REMARK    4  A    between atoms: C_10  and  C_11 
REMARK    5  A    between atoms: C_11  and  C_12 
REMARK    6  A    between atoms: N_14  and  C_16 
REMARK    7  A    between atoms: C_16  and  C_17 
ROOT
HETATM    1  N   UNL     1      24.843  47.792  48.930  1.00  0.00    -0.309 N 
HETATM    2  C   UNL     1      25.220  46.728  49.692  1.00  0.00     0.320 C 
HETATM    3  N   UNL     1      24.505  46.474  50.818  1.00  0.00    -0.343 N 
HETATM    4  O   UNL     1      26.189  46.046  49.355  1.00  0.00    -0.247 OA
HETATM    5  H   UNL     1      25.566  48.050  48.269  1.00  0.00     0.170 HD
HETATM    6  H   UNL     1      23.987  47.267  51.178  1.00  0.00     0.164 HD
ENDROOT
BRANCH   3   7
HETATM    7  C   UNL     1      24.907  45.500  51.810  1.00  0.00     0.125 C 
BRANCH   7   8
HETATM    8  C   UNL     1      25.724  46.085  52.966  1.00  0.00     0.026 C 
BRANCH   8   9
HETATM    9  C   UNL     1      26.796  45.214  53.635  1.00  0.00     0.014 C 
HETATM   10  C   UNL     1      27.805  44.555  52.703  1.00  0.00     0.240 C 
HETATM   11  N   UNL     1      28.352  43.382  53.494  1.00  0.00    -0.067 N 
HETATM   12  H   UNL     1      28.156  42.551  52.916  1.00  0.00     0.280 HD
HETATM   13  C   UNL     1      27.531  43.253  54.758  1.00  0.00     0.235 C 
HETATM   14  C   UNL     1      26.286  44.075  54.503  1.00  0.00     0.034 C 
BRANCH  11  15
HETATM   15  C   UNL     1      29.829  43.415  53.759  1.00  0.00     0.273 C 
BRANCH  15  16
HETATM   16  C   UNL     1      30.197  43.910  55.131  1.00  0.00    -0.033 A 
HETATM   17  C   UNL     1      29.726  45.149  55.595  1.00  0.00     0.009 A 
HETATM   18  C   UNL     1      30.048  45.594  56.878  1.00  0.00     0.001 A 
HETATM   19  C   UNL     1      30.842  44.810  57.710  1.00  0.00     0.000 A 
HETATM   20  C   UNL     1      31.317  43.580  57.262  1.00  0.00     0.001 A 
HETATM   21  C   UNL     1      31.001  43.131  55.978  1.00  0.00     0.009 A 
ENDBRANCH  15  16
ENDBRANCH  11  15
ENDBRANCH   8   9
ENDBRANCH   7   8
ENDBRANCH   3   7
BRANCH   1  22
HETATM   22  C   UNL     1      23.670  48.576  48.896  1.00  0.00     0.038 A 
HETATM   23  C   UNL     1      22.373  48.055  48.794  1.00  0.00     0.059 A 
HETATM   24  C   UNL     1      21.255  48.898  48.787  1.00  0.00     0.036 A 
HETATM   25  C   UNL     1      21.448  50.284  48.837  1.00  0.00     0.029 A 
HETATM   26  C   UNL     1      22.735  50.815  48.893  1.00  0.00     0.004 A 
HETATM   27  C   UNL     1      23.840  49.964  48.918  1.00  0.00     0.029 A 
BRANCH  24  28
HETATM   28  N   UNL     1      19.921  48.441  48.727  1.00  0.00    -0.327 N 
HETATM   29  C   UNL     1      18.949  48.543  49.706  1.00  0.00     0.218 C 
HETATM   30  C   UNL     1      17.622  47.958  49.279  1.00  0.00     0.117 C 
HETATM   31  O   UNL     1      19.075  49.064  50.809  1.00  0.00    -0.274 OA
HETATM   32  H   UNL     1      19.637  48.028  47.845  1.00  0.00     0.169 HD
ENDBRANCH  24  28
ENDBRANCH   1  22
TORSDOF 7
ENDMDL
MODEL 8
REMARK VINA RESULT:      -8.3     11.566     13.419
REMARK  7 active torsions:
REMARK  status: ('A' for Active; 'I' for Inactive)
REMARK       I    between atoms: C_2  and  N_3 
REMARK    1  A    between atoms: N_3  and  C_4 
REMARK    2  A    between atoms: C_6  and  N_7 
REMARK       I    between atoms: N_7  and  C_8 
REMARK       I    between atoms: C_8  and  N_9 
REMARK    3  A    between atoms: N_9  and  C_10 
REMARK    4  A    between atoms: C_10  and  C_11 
REMARK    5  A    between atoms: C_11  and  C_12 
REMARK    6  A    between atoms: N_14  and  C_16 
REMARK    7  A    between atoms: C_16  and  C_17 
ROOT
HETATM    1  N   UNL     1      28.025  51.596  38.553  1.00  0.00    -0.309 N 
HETATM    2  C   UNL     1      27.160  50.544  38.543  1.00  0.00     0.320 C 
HETATM    3  N   UNL     1      27.306  49.599  39.509  1.00  0.00    -0.343 N 
HETATM    4  O   UNL     1      26.295  50.470  37.670  1.00  0.00    -0.247 OA
HETATM    5  H   UNL     1      28.005  52.101  37.674  1.00  0.00     0.170 HD
HETATM    6  H   UNL     1      28.225  49.566  39.932  1.00  0.00     0.164 HD
ENDROOT
BRANCH   3   7
HETATM    7  C   UNL     1      26.584  48.345  39.506  1.00  0.00     0.125 C 
BRANCH   7   8
HETATM    8  C   UNL     1      27.414  47.145  39.972  1.00  0.00     0.026 C 
BRANCH   8   9
HETATM    9  C   UNL     1      28.944  47.259  39.982  1.00  0.00     0.014 C 
HETATM   10  C   UNL     1      29.537  48.271  40.954  1.00  0.00     0.240 C 
HETATM   11  N   UNL     1      30.915  48.579  40.399  1.00  0.00    -0.067 N 
HETATM   12  H   UNL     1      30.923  49.598  40.245  1.00  0.00     0.280 HD
HETATM   13  C   UNL     1      31.024  47.921  39.042  1.00  0.00     0.235 C 
HETATM   14  C   UNL     1      29.600  47.588  38.651  1.00  0.00     0.034 C 
BRANCH  11  15
HETATM   15  C   UNL     1      32.065  48.244  41.303  1.00  0.00     0.273 C 
BRANCH  15  16
HETATM   16  C   UNL     1      32.603  49.418  42.075  1.00  0.00    -0.033 A 
HETATM   17  C   UNL     1      33.868  49.950  41.778  1.00  0.00     0.009 A 
HETATM   18  C   UNL     1      34.354  51.055  42.479  1.00  0.00     0.001 A 
HETATM   19  C   UNL     1      33.585  51.638  43.482  1.00  0.00     0.000 A 
HETATM   20  C   UNL     1      32.330  51.119  43.788  1.00  0.00     0.001 A 
HETATM   21  C   UNL     1      31.840  50.012  43.092  1.00  0.00     0.009 A 
ENDBRANCH  15  16
ENDBRANCH  11  15
ENDBRANCH   8   9
ENDBRANCH   7   8
ENDBRANCH   3   7
BRANCH   1  22
HETATM   22  C   UNL     1      28.917  52.092  39.527  1.00  0.00     0.038 A 
HETATM   23  C   UNL     1      30.275  52.349  39.299  1.00  0.00     0.059 A 
HETATM   24  C   UNL     1      31.094  52.861  40.314  1.00  0.00     0.036 A 
HETATM   25  C   UNL     1      30.548  53.072  41.586  1.00  0.00     0.029 A 
HETATM   26  C   UNL     1      29.209  52.777  41.837  1.00  0.00     0.004 A 
HETATM   27  C   UNL     1      28.399  52.285  40.813  1.00  0.00     0.029 A 
BRANCH  24  28
HETATM   28  N   UNL     1      32.458  53.180  40.143  1.00  0.00    -0.327 N 
HETATM   29  C   UNL     1      33.362  52.585  39.282  1.00  0.00     0.218 C 
HETATM   30  C   UNL     1      34.738  53.206  39.354  1.00  0.00     0.117 C 
HETATM   31  O   UNL     1      33.132  51.669  38.499  1.00  0.00    -0.274 OA
HETATM   32  H   UNL     1      32.797  53.966  40.688  1.00  0.00     0.169 HD
ENDBRANCH  24  28
ENDBRANCH   1  22
TORSDOF 7
ENDMDL
MODEL 9
REMARK VINA RESULT:      -8.2      2.863      9.437
REMARK  7 active torsions:
REMARK  status: ('A' for Active; 'I' for Inactive)
REMARK       I    between atoms: C_2  and  N_3 
REMARK    1  A    between atoms: N_3  and  C_4 
REMARK    2  A    between atoms: C_6  and  N_7 
REMARK       I    between atoms: N_7  and  C_8 
REMARK       I    between atoms: C_8  and  N_9 
REMARK    3  A    between atoms: N_9  and  C_10 
REMARK    4  A    between atoms: C_10  and  C_11 
REMARK    5  A    between atoms: C_11  and  C_12 
REMARK    6  A    between atoms: N_14  and  C_16 
REMARK    7  A    between atoms: C_16  and  C_17 
ROOT
HETATM    1  N   UNL     1      23.695  43.932  50.476  1.00  0.00    -0.309 N 
HETATM    2  C   UNL     1      22.667  43.927  49.584  1.00  0.00     0.320 C 
HETATM    3  N   UNL     1      22.069  45.115  49.304  1.00  0.00    -0.343 N 
HETATM    4  O   UNL     1      22.302  42.867  49.074  1.00  0.00    -0.247 OA
HETATM    5  H   UNL     1      23.904  42.997  50.806  1.00  0.00     0.170 HD
HETATM    6  H   UNL     1      22.194  45.828  50.012  1.00  0.00     0.164 HD
ENDROOT
BRANCH   3   7
HETATM    7  C   UNL     1      20.854  45.227  48.525  1.00  0.00     0.125 C 
BRANCH   7   8
HETATM    8  C   UNL     1      20.748  46.523  47.716  1.00  0.00     0.026 C 
BRANCH   8   9
HETATM    9  C   UNL     1      20.239  47.794  48.410  1.00  0.00     0.014 C 
HETATM   10  C   UNL     1      21.304  48.712  48.997  1.00  0.00     0.240 C 
HETATM   11  N   UNL     1      20.573  49.529  50.046  1.00  0.00    -0.067 N 
HETATM   12  H   UNL     1      21.076  49.349  50.928  1.00  0.00     0.280 HD
HETATM   13  C   UNL     1      19.184  48.951  50.198  1.00  0.00     0.235 C 
HETATM   14  C   UNL     1      19.254  47.585  49.549  1.00  0.00     0.034 C 
BRANCH  11  15
HETATM   15  C   UNL     1      20.566  51.012  49.820  1.00  0.00     0.273 C 
BRANCH  15  16
HETATM   16  C   UNL     1      19.305  51.532  49.186  1.00  0.00    -0.033 A 
HETATM   17  C   UNL     1      18.314  52.150  49.965  1.00  0.00     0.009 A 
HETATM   18  C   UNL     1      17.156  52.653  49.371  1.00  0.00     0.001 A 
HETATM   19  C   UNL     1      16.975  52.547  47.995  1.00  0.00     0.000 A 
HETATM   20  C   UNL     1      17.950  51.935  47.210  1.00  0.00     0.001 A 
HETATM   21  C   UNL     1      19.109  51.427  47.800  1.00  0.00     0.009 A 
ENDBRANCH  15  16
ENDBRANCH  11  15
ENDBRANCH   8   9
ENDBRANCH   7   8
ENDBRANCH   3   7
BRANCH   1  22
HETATM   22  C   UNL     1      24.492  44.966  51.011  1.00  0.00     0.038 A 
HETATM   23  C   UNL     1      24.966  46.060  50.275  1.00  0.00     0.059 A 
HETATM   24  C   UNL     1      25.737  47.059  50.882  1.00  0.00     0.036 A 
HETATM   25  C   UNL     1      26.074  46.930  52.235  1.00  0.00     0.029 A 
HETATM   26  C   UNL     1      25.647  45.823  52.966  1.00  0.00     0.004 A 
HETATM   27  C   UNL     1      24.863  44.844  52.354  1.00  0.00     0.029 A 
BRANCH  24  28
HETATM   28  N   UNL     1      26.213  48.207  50.212  1.00  0.00    -0.327 N 
HETATM   29  C   UNL     1      27.218  48.275  49.265  1.00  0.00     0.218 C 
HETATM   30  C   UNL     1      27.443  49.676  48.746  1.00  0.00     0.117 C 
HETATM   31  O   UNL     1      27.876  47.335  48.828  1.00  0.00    -0.274 OA
HETATM   32  H   UNL     1      25.728  49.072  50.424  1.00  0.00     0.169 HD
ENDBRANCH  24  28
ENDBRANCH   1  22
TORSDOF 7
ENDMDL
MODEL 10
REMARK VINA RESULT:      -8.2      2.513      3.711
REMARK  7 active torsions:
REMARK  status: ('A' for Active; 'I' for Inactive)
REMARK       I    between atoms: C_2  and  N_3 
REMARK    1  A    between atoms: N_3  and  C_4 
REMARK    2  A    between atoms: C_6  and  N_7 
REMARK       I    between atoms: N_7  and  C_8 
REMARK       I    between atoms: C_8  and  N_9 
REMARK    3  A    between atoms: N_9  and  C_10 
REMARK    4  A    between atoms: C_10  and  C_11 
REMARK    5  A    between atoms: C_11  and  C_12 
REMARK    6  A    between atoms: N_14  and  C_16 
REMARK    7  A    between atoms: C_16  and  C_17 
ROOT
HETATM    1  N   UNL     1      21.027  46.427  48.143  1.00  0.00    -0.309 N 
HETATM    2  C   UNL     1      21.438  45.214  48.606  1.00  0.00     0.320 C 
HETATM    3  N   UNL     1      22.393  45.198  49.572  1.00  0.00    -0.343 N 
HETATM    4  O   UNL     1      20.955  44.183  48.136  1.00  0.00    -0.247 OA
HETATM    5  H   UNL     1      20.516  46.338  47.273  1.00  0.00     0.170 HD
HETATM    6  H   UNL     1      22.956  46.039  49.624  1.00  0.00     0.164 HD
ENDROOT
BRANCH   3   7
HETATM    7  C   UNL     1      23.051  43.988  50.017  1.00  0.00     0.125 C 
BRANCH   7   8
HETATM    8  C   UNL     1      24.477  43.820  49.482  1.00  0.00     0.026 C 
BRANCH   8   9
HETATM    9  C   UNL     1      25.620  43.579  50.476  1.00  0.00     0.014 C 
HETATM   10  C   UNL     1      25.397  44.090  51.894  1.00  0.00     0.240 C 
HETATM   11  N   UNL     1      26.790  44.235  52.476  1.00  0.00    -0.067 N 
HETATM   12  H   UNL     1      26.864  45.223  52.758  1.00  0.00     0.280 HD
HETATM   13  C   UNL     1      27.785  44.013  51.359  1.00  0.00     0.235 C 
HETATM   14  C   UNL     1      26.977  44.142  50.084  1.00  0.00     0.034 C 
BRANCH  11  15
HETATM   15  C   UNL     1      27.076  43.393  53.686  1.00  0.00     0.273 C 
BRANCH  15  16
HETATM   16  C   UNL     1      28.319  43.790  54.433  1.00  0.00    -0.033 A 
HETATM   17  C   UNL     1      28.397  45.033  55.083  1.00  0.00     0.009 A 
HETATM   18  C   UNL     1      29.542  45.389  55.797  1.00  0.00     0.001 A 
HETATM   19  C   UNL     1      30.620  44.511  55.869  1.00  0.00     0.000 A 
HETATM   20  C   UNL     1      30.557  43.276  55.228  1.00  0.00     0.001 A 
HETATM   21  C   UNL     1      29.414  42.916  54.510  1.00  0.00     0.009 A 
ENDBRANCH  15  16
ENDBRANCH  11  15
ENDBRANCH   8   9
ENDBRANCH   7   8
ENDBRANCH   3   7
BRANCH   1  22
HETATM   22  C   UNL     1      21.181  47.740  48.636  1.00  0.00     0.038 A 
HETATM   23  C   UNL     1      20.118  48.587  48.977  1.00  0.00     0.059 A 
HETATM   24  C   UNL     1      20.352  49.873  49.480  1.00  0.00     0.036 A 
HETATM   25  C   UNL     1      21.671  50.328  49.595  1.00  0.00     0.029 A 
HETATM   26  C   UNL     1      22.735  49.512  49.215  1.00  0.00     0.004 A 
HETATM   27  C   UNL     1      22.489  48.226  48.734  1.00  0.00     0.029 A 
BRANCH  24  28
HETATM   28  N   UNL     1      19.332  50.762  49.881  1.00  0.00    -0.327 N 
HETATM   29  C   UNL     1      18.758  51.779  49.139  1.00  0.00     0.218 C 
HETATM   30  C   UNL     1      17.673  52.514  49.890  1.00  0.00     0.117 C 
HETATM   31  O   UNL     1      19.033  52.084  47.982  1.00  0.00    -0.274 OA
HETATM   32  H   UNL     1      18.951  50.604  50.808  1.00  0.00     0.169 HD
ENDBRANCH  24  28
ENDBRANCH   1  22
TORSDOF 7
ENDMDL
