MODEL 1
REMARK VINA RESULT:      -8.9      0.000      0.000
REMARK  5 active torsions:
REMARK  status: ('A' for Active; 'I' for Inactive)
REMARK    1  A    between atoms: C_8  and  C_9 
REMARK    2  A    between atoms: C_9  and  N_10 
REMARK       I    between atoms: N_10  and  C_11 
REMARK       I    between atoms: C_11  and  N_12 
REMARK    3  A    between atoms: C_13  and  C_14 
REMARK    4  A    between atoms: C_14  and  C_15 
REMARK    5  A    between atoms: C_15  and  C_16 
ROOT
HETATM    1  N   UNL     1      25.642  43.896  52.137  1.00  0.00    -0.339 N 
HETATM    2  C   UNL     1      26.211  43.124  51.164  1.00  0.00     0.318 C 
HETATM    3  N   UNL     1      27.384  42.476  51.521  1.00  0.00    -0.330 N 
HETATM    4  C   UNL     1      28.027  42.504  52.853  1.00  0.00     0.089 C 
HETATM    5  C   UNL     1      28.282  41.067  53.346  1.00  0.00     0.025 C 
HETATM    6  C   UNL     1      29.006  40.204  52.317  1.00  0.00     0.004 C 
HETATM    7  C   UNL     1      28.270  40.232  50.982  1.00  0.00     0.020 C 
HETATM    8  C   UNL     1      28.052  41.662  50.501  1.00  0.00     0.128 C 
HETATM    9  O   UNL     1      25.686  43.003  50.059  1.00  0.00    -0.247 OA
HETATM   10  H   UNL     1      26.265  44.354  52.778  1.00  0.00     0.164 HD
ENDROOT
BRANCH   4  11
HETATM   11  C   UNL     1      29.323  43.343  52.853  1.00  0.00     0.030 C 
BRANCH  11  12
HETATM   12  C   UNL     1      30.334  42.870  53.902  1.00  0.00     0.040 C 
BRANCH  12  13
HETATM   13  C   UNL     1      30.321  43.752  55.125  1.00  0.00    -0.058 A 
HETATM   14  C   UNL     1      31.154  43.460  56.214  1.00  0.00     0.007 A 
HETATM   15  C   UNL     1      31.134  44.265  57.354  1.00  0.00     0.001 A 
HETATM   16  C   UNL     1      30.279  45.364  57.417  1.00  0.00     0.000 A 
HETATM   17  C   UNL     1      29.443  45.658  56.342  1.00  0.00     0.001 A 
HETATM   18  C   UNL     1      29.460  44.854  55.201  1.00  0.00     0.007 A 
ENDBRANCH  12  13
ENDBRANCH  11  12
ENDBRANCH   4  11
BRANCH   1  19
HETATM   19  C   UNL     1      24.410  44.603  51.876  1.00  0.00     0.167 C 
BRANCH  19  20
HETATM   20  C   UNL     1      24.751  45.856  51.152  1.00  0.00     0.009 A 
HETATM   21  C   UNL     1      24.374  46.257  49.883  1.00  0.00     0.034 A 
HETATM   22  C   UNL     1      23.533  45.612  48.848  1.00  0.00     0.070 C 
HETATM   23  N   UNL     1      24.946  47.484  49.693  1.00  0.00    -0.282 N 
HETATM   24  H   UNL     1      24.880  48.089  48.881  1.00  0.00     0.189 HD
HETATM   25  N   UNL     1      25.680  47.904  50.732  1.00  0.00    -0.179 NA
HETATM   26  C   UNL     1      25.561  46.924  51.633  1.00  0.00     0.060 A 
HETATM   27  C   UNL     1      26.249  47.021  52.945  1.00  0.00     0.073 C 
ENDBRANCH  19  20
ENDBRANCH   1  19
TORSDOF 5
ENDMDL
MODEL 2
REMARK VINA RESULT:      -8.7      1.513      2.007
REMARK  5 active torsions:
REMARK  status: ('A' for Active; 'I' for Inactive)
REMARK    1  A    between atoms: C_8  and  C_9 
REMARK    2  A    between atoms: C_9  and  N_10 
REMARK       I    between atoms: N_10  and  C_11 
REMARK       I    between atoms: C_11  and  N_12 
REMARK    3  A    between atoms: C_13  and  C_14 
REMARK    4  A    between atoms: C_14  and  C_15 
REMARK    5  A    between atoms: C_15  and  C_16 
ROOT
HETATM    1  N   UNL     1      26.026  44.659  50.494  1.00  0.00    -0.339 N 
HETATM    2  C   UNL     1      26.949  43.652  50.528  1.00  0.00     0.318 C 
HETATM    3  N   UNL     1      27.520  43.402  51.766  1.00  0.00    -0.330 N 
HETATM    4  C   UNL     1      27.181  44.080  53.038  1.00  0.00     0.089 C 
HETATM    5  C   UNL     1      26.841  43.035  54.118  1.00  0.00     0.025 C 
HETATM    6  C   UNL     1      27.904  41.947  54.250  1.00  0.00     0.004 C 
HETATM    7  C   UNL     1      28.182  41.304  52.895  1.00  0.00     0.020 C 
HETATM    8  C   UNL     1      28.541  42.354  51.848  1.00  0.00     0.128 C 
HETATM    9  O   UNL     1      27.221  43.004  49.519  1.00  0.00    -0.247 OA
HETATM   10  H   UNL     1      26.171  45.432  51.118  1.00  0.00     0.164 HD
ENDROOT
BRANCH   4  11
HETATM   11  C   UNL     1      28.301  45.034  53.502  1.00  0.00     0.030 C 
BRANCH  11  12
HETATM   12  C   UNL     1      27.995  45.696  54.849  1.00  0.00     0.040 C 
BRANCH  12  13
HETATM   13  C   UNL     1      29.059  45.389  55.874  1.00  0.00    -0.058 A 
HETATM   14  C   UNL     1      30.061  44.451  55.591  1.00  0.00     0.007 A 
HETATM   15  C   UNL     1      31.038  44.152  56.542  1.00  0.00     0.001 A 
HETATM   16  C   UNL     1      31.019  44.785  57.784  1.00  0.00     0.000 A 
HETATM   17  C   UNL     1      30.023  45.715  58.076  1.00  0.00     0.001 A 
HETATM   18  C   UNL     1      29.044  46.014  57.127  1.00  0.00     0.007 A 
ENDBRANCH  12  13
ENDBRANCH  11  12
ENDBRANCH   4  11
BRANCH   1  19
HETATM   19  C   UNL     1      25.359  44.992  49.257  1.00  0.00     0.167 C 
BRANCH  19  20
HETATM   20  C   UNL     1      24.588  46.244  49.481  1.00  0.00     0.009 A 
HETATM   21  C   UNL     1      23.257  46.505  49.211  1.00  0.00     0.034 A 
HETATM   22  C   UNL     1      22.179  45.668  48.634  1.00  0.00     0.070 C 
HETATM   23  N   UNL     1      23.042  47.796  49.605  1.00  0.00    -0.282 N 
HETATM   24  H   UNL     1      22.179  48.329  49.567  1.00  0.00     0.189 HD
HETATM   25  N   UNL     1      24.133  48.401  50.093  1.00  0.00    -0.179 NA
HETATM   26  C   UNL     1      25.081  47.461  50.032  1.00  0.00     0.060 A 
HETATM   27  C   UNL     1      26.462  47.756  50.491  1.00  0.00     0.073 C 
ENDBRANCH  19  20
ENDBRANCH   1  19
TORSDOF 5
ENDMDL
MODEL 3
REMARK VINA RESULT:      -8.6      2.706      6.269
REMARK  5 active torsions:
REMARK  status: ('A' for Active; 'I' for Inactive)
REMARK    1  A    between atoms: C_8  and  C_9 
REMARK    2  A    between atoms: C_9  and  N_10 
REMARK       I    between atoms: N_10  and  C_11 
REMARK       I    between atoms: C_11  and  N_12 
REMARK    3  A    between atoms: C_13  and  C_14 
REMARK    4  A    between atoms: C_14  and  C_15 
REMARK    5  A    between atoms: C_15  and  C_16 
ROOT
HETATM    1  N   UNL     1      28.151  40.523  49.567  1.00  0.00    -0.339 N 
HETATM    2  C   UNL     1      26.875  40.991  49.703  1.00  0.00     0.318 C 
HETATM    3  N   UNL     1      26.705  42.016  50.621  1.00  0.00    -0.330 N 
HETATM    4  C   UNL     1      27.775  42.670  51.408  1.00  0.00     0.089 C 
HETATM    5  C   UNL     1      27.707  44.198  51.220  1.00  0.00     0.025 C 
HETATM    6  C   UNL     1      26.312  44.767  51.462  1.00  0.00     0.004 C 
HETATM    7  C   UNL     1      25.281  44.037  50.607  1.00  0.00     0.020 C 
HETATM    8  C   UNL     1      25.348  42.529  50.828  1.00  0.00     0.128 C 
HETATM    9  O   UNL     1      25.955  40.537  49.025  1.00  0.00    -0.247 OA
HETATM   10  H   UNL     1      28.729  40.529  50.389  1.00  0.00     0.164 HD
ENDROOT
BRANCH   4  11
HETATM   11  C   UNL     1      27.719  42.278  52.899  1.00  0.00     0.030 C 
BRANCH  11  12
HETATM   12  C   UNL     1      29.110  42.114  53.520  1.00  0.00     0.040 C 
BRANCH  12  13
HETATM   13  C   UNL     1      29.432  43.243  54.467  1.00  0.00    -0.058 A 
HETATM   14  C   UNL     1      28.534  44.307  54.628  1.00  0.00     0.007 A 
HETATM   15  C   UNL     1      28.835  45.361  55.491  1.00  0.00     0.001 A 
HETATM   16  C   UNL     1      30.038  45.365  56.195  1.00  0.00     0.000 A 
HETATM   17  C   UNL     1      30.941  44.315  56.036  1.00  0.00     0.001 A 
HETATM   18  C   UNL     1      30.642  43.259  55.173  1.00  0.00     0.007 A 
ENDBRANCH  12  13
ENDBRANCH  11  12
ENDBRANCH   4  11
BRANCH   1  19
HETATM   19  C   UNL     1      28.442  39.466  48.627  1.00  0.00     0.167 C 
BRANCH  19  20
HETATM   20  C   UNL     1      28.228  38.170  49.323  1.00  0.00     0.009 A 
HETATM   21  C   UNL     1      28.960  37.605  50.353  1.00  0.00     0.034 A 
HETATM   22  C   UNL     1      30.155  38.073  51.093  1.00  0.00     0.070 C 
HETATM   23  N   UNL     1      28.351  36.414  50.636  1.00  0.00    -0.282 N 
HETATM   24  H   UNL     1      28.605  35.731  51.342  1.00  0.00     0.189 HD
HETATM   25  N   UNL     1      27.292  36.152  49.859  1.00  0.00    -0.179 NA
HETATM   26  C   UNL     1      27.201  37.220  49.061  1.00  0.00     0.060 A 
HETATM   27  C   UNL     1      26.129  37.303  48.036  1.00  0.00     0.073 C 
ENDBRANCH  19  20
ENDBRANCH   1  19
TORSDOF 5
ENDMDL
MODEL 4
REMARK VINA RESULT:      -8.4      1.965      3.062
REMARK  5 active torsions:
REMARK  status: ('A' for Active; 'I' for Inactive)
REMARK    1  A    between atoms: C_8  and  C_9 
REMARK    2  A    between atoms: C_9  and  N_10 
REMARK       I    between atoms: N_10  and  C_11 
REMARK       I    between atoms: C_11  and  N_12 
REMARK    3  A    between atoms: C_13  and  C_14 
REMARK    4  A    between atoms: C_14  and  C_15 
REMARK    5  A    between atoms: C_15  and  C_16 
ROOT
HETATM    1  N   UNL     1      25.636  45.838  50.661  1.00  0.00    -0.339 N 
HETATM    2  C   UNL     1      26.601  44.871  50.694  1.00  0.00     0.318 C 
HETATM    3  N   UNL     1      27.113  44.576  51.948  1.00  0.00    -0.330 N 
HETATM    4  C   UNL     1      26.672  45.164  53.233  1.00  0.00     0.089 C 
HETATM    5  C   UNL     1      26.321  44.045  54.232  1.00  0.00     0.025 C 
HETATM    6  C   UNL     1      27.425  42.998  54.366  1.00  0.00     0.004 C 
HETATM    7  C   UNL     1      27.808  42.447  52.996  1.00  0.00     0.020 C 
HETATM    8  C   UNL     1      28.176  43.569  52.032  1.00  0.00     0.128 C 
HETATM    9  O   UNL     1      26.959  44.295  49.669  1.00  0.00    -0.247 OA
HETATM   10  H   UNL     1      25.710  46.580  51.334  1.00  0.00     0.164 HD
ENDROOT
BRANCH   4  11
HETATM   11  C   UNL     1      27.720  46.137  53.814  1.00  0.00     0.030 C 
BRANCH  11  12
HETATM   12  C   UNL     1      27.502  46.421  55.303  1.00  0.00     0.040 C 
BRANCH  12  13
HETATM   13  C   UNL     1      28.666  45.945  56.136  1.00  0.00    -0.058 A 
HETATM   14  C   UNL     1      29.707  45.218  55.542  1.00  0.00     0.007 A 
HETATM   15  C   UNL     1      30.778  44.761  56.312  1.00  0.00     0.001 A 
HETATM   16  C   UNL     1      30.816  45.024  57.680  1.00  0.00     0.000 A 
HETATM   17  C   UNL     1      29.782  45.740  58.280  1.00  0.00     0.001 A 
HETATM   18  C   UNL     1      28.709  46.197  57.513  1.00  0.00     0.007 A 
ENDBRANCH  12  13
ENDBRANCH  11  12
ENDBRANCH   4  11
BRANCH   1  19
HETATM   19  C   UNL     1      25.025  46.213  49.408  1.00  0.00     0.167 C 
BRANCH  19  20
HETATM   20  C   UNL     1      25.169  47.685  49.256  1.00  0.00     0.009 A 
HETATM   21  C   UNL     1      26.324  48.440  49.156  1.00  0.00     0.034 A 
HETATM   22  C   UNL     1      27.757  48.064  49.159  1.00  0.00     0.070 C 
HETATM   23  N   UNL     1      25.913  49.737  49.028  1.00  0.00    -0.282 N 
HETATM   24  H   UNL     1      26.484  50.569  48.921  1.00  0.00     0.189 HD
HETATM   25  N   UNL     1      24.582  49.887  49.056  1.00  0.00    -0.179 NA
HETATM   26  C   UNL     1      24.116  48.641  49.185  1.00  0.00     0.060 A 
HETATM   27  C   UNL     1      22.655  48.389  49.257  1.00  0.00     0.073 C 
ENDBRANCH  19  20
ENDBRANCH   1  19
TORSDOF 5
ENDMDL
MODEL 5
REMARK VINA RESULT:      -8.4      2.745      6.853
REMARK  5 active torsions:
REMARK  status: ('A' for Active; 'I' for Inactive)
REMARK    1  A    between atoms: C_8  and  C_9 
REMARK    2  A    between atoms: C_9  and  N_10 
REMARK       I    between atoms: N_10  and  C_11 
REMARK       I    between atoms: C_11  and  N_12 
REMARK    3  A    between atoms: C_13  and  C_14 
REMARK    4  A    between atoms: C_14  and  C_15 
REMARK    5  A    between atoms: C_15  and  C_16 
ROOT
HETATM    1  N   UNL     1      27.112  44.725  53.305  1.00  0.00    -0.339 N 
HETATM    2  C   UNL     1      25.878  44.291  52.912  1.00  0.00     0.318 C 
HETATM    3  N   UNL     1      25.711  44.112  51.547  1.00  0.00    -0.330 N 
HETATM    4  C   UNL     1      26.749  44.293  50.508  1.00  0.00     0.089 C 
HETATM    5  C   UNL     1      26.844  43.029  49.632  1.00  0.00     0.025 C 
HETATM    6  C   UNL     1      25.491  42.573  49.095  1.00  0.00     0.004 C 
HETATM    7  C   UNL     1      24.490  42.409  50.234  1.00  0.00     0.020 C 
HETATM    8  C   UNL     1      24.393  43.680  51.072  1.00  0.00     0.128 C 
HETATM    9  O   UNL     1      24.995  44.054  53.734  1.00  0.00    -0.247 OA
HETATM   10  H   UNL     1      27.600  45.341  52.679  1.00  0.00     0.164 HD
ENDROOT
BRANCH   4  11
HETATM   11  C   UNL     1      26.503  45.557  49.657  1.00  0.00     0.030 C 
BRANCH  11  12
HETATM   12  C   UNL     1      26.442  46.835  50.500  1.00  0.00     0.040 C 
BRANCH  12  13
HETATM   13  C   UNL     1      26.092  48.038  49.660  1.00  0.00    -0.058 A 
HETATM   14  C   UNL     1      24.753  48.324  49.361  1.00  0.00     0.007 A 
HETATM   15  C   UNL     1      24.425  49.427  48.572  1.00  0.00     0.001 A 
HETATM   16  C   UNL     1      25.432  50.250  48.070  1.00  0.00     0.000 A 
HETATM   17  C   UNL     1      26.766  49.970  48.356  1.00  0.00     0.001 A 
HETATM   18  C   UNL     1      27.097  48.867  49.145  1.00  0.00     0.007 A 
ENDBRANCH  12  13
ENDBRANCH  11  12
ENDBRANCH   4  11
BRANCH   1  19
HETATM   19  C   UNL     1      27.398  44.930  54.706  1.00  0.00     0.167 C 
BRANCH  19  20
HETATM   20  C   UNL     1      28.779  44.440  54.962  1.00  0.00     0.009 A 
HETATM   21  C   UNL     1      29.466  43.412  54.340  1.00  0.00     0.034 A 
HETATM   22  C   UNL     1      29.088  42.485  53.249  1.00  0.00     0.070 C 
HETATM   23  N   UNL     1      30.695  43.370  54.937  1.00  0.00    -0.282 N 
HETATM   24  H   UNL     1      31.471  42.749  54.734  1.00  0.00     0.189 HD
HETATM   25  N   UNL     1      30.855  44.277  55.910  1.00  0.00    -0.179 NA
HETATM   26  C   UNL     1      29.696  44.942  55.928  1.00  0.00     0.060 A 
HETATM   27  C   UNL     1      29.479  46.048  56.895  1.00  0.00     0.073 C 
ENDBRANCH  19  20
ENDBRANCH   1  19
TORSDOF 5
ENDMDL
MODEL 6
REMARK VINA RESULT:      -8.3      3.588      5.807
REMARK  5 active torsions:
REMARK  status: ('A' for Active; 'I' for Inactive)
REMARK    1  A    between atoms: C_8  and  C_9 
REMARK    2  A    between atoms: C_9  and  N_10 
REMARK       I    between atoms: N_10  and  C_11 
REMARK       I    between atoms: C_11  and  N_12 
REMARK    3  A    between atoms: C_13  and  C_14 
REMARK    4  A    between atoms: C_14  and  C_15 
REMARK    5  A    between atoms: C_15  and  C_16 
ROOT
HETATM    1  N   UNL     1      23.100  48.373  48.975  1.00  0.00    -0.339 N 
HETATM    2  C   UNL     1      24.368  48.874  48.890  1.00  0.00     0.318 C 
HETATM    3  N   UNL     1      25.348  48.138  49.538  1.00  0.00    -0.330 N 
HETATM    4  C   UNL     1      25.152  46.855  50.249  1.00  0.00     0.089 C 
HETATM    5  C   UNL     1      26.144  45.801  49.720  1.00  0.00     0.025 C 
HETATM    6  C   UNL     1      27.587  46.297  49.705  1.00  0.00     0.004 C 
HETATM    7  C   UNL     1      27.692  47.617  48.949  1.00  0.00     0.020 C 
HETATM    8  C   UNL     1      26.721  48.652  49.506  1.00  0.00     0.128 C 
HETATM    9  O   UNL     1      24.607  49.898  48.254  1.00  0.00    -0.247 OA
HETATM   10  H   UNL     1      22.855  47.892  49.822  1.00  0.00     0.164 HD
ENDROOT
BRANCH   4  11
HETATM   11  C   UNL     1      25.260  47.018  51.780  1.00  0.00     0.030 C 
BRANCH  11  12
HETATM   12  C   UNL     1      25.571  45.700  52.496  1.00  0.00     0.040 C 
BRANCH  12  13
HETATM   13  C   UNL     1      26.707  45.855  53.477  1.00  0.00    -0.058 A 
HETATM   14  C   UNL     1      26.919  47.081  54.122  1.00  0.00     0.007 A 
HETATM   15  C   UNL     1      27.978  47.234  55.018  1.00  0.00     0.001 A 
HETATM   16  C   UNL     1      28.835  46.165  55.273  1.00  0.00     0.000 A 
HETATM   17  C   UNL     1      28.636  44.945  54.632  1.00  0.00     0.001 A 
HETATM   18  C   UNL     1      27.578  44.789  53.734  1.00  0.00     0.007 A 
ENDBRANCH  12  13
ENDBRANCH  11  12
ENDBRANCH   4  11
BRANCH   1  19
HETATM   19  C   UNL     1      22.005  49.054  48.324  1.00  0.00     0.167 C 
BRANCH  19  20
HETATM   20  C   UNL     1      20.760  48.722  49.066  1.00  0.00     0.009 A 
HETATM   21  C   UNL     1      20.079  47.519  49.128  1.00  0.00     0.034 A 
HETATM   22  C   UNL     1      20.340  46.199  48.510  1.00  0.00     0.070 C 
HETATM   23  N   UNL     1      19.005  47.739  49.945  1.00  0.00    -0.282 N 
HETATM   24  H   UNL     1      18.287  47.081  50.230  1.00  0.00     0.189 HD
HETATM   25  N   UNL     1      18.924  48.995  50.404  1.00  0.00    -0.179 NA
HETATM   26  C   UNL     1      19.995  49.602  49.883  1.00  0.00     0.060 A 
HETATM   27  C   UNL     1      20.258  51.036  50.165  1.00  0.00     0.073 C 
ENDBRANCH  19  20
ENDBRANCH   1  19
TORSDOF 5
ENDMDL
MODEL 7
REMARK VINA RESULT:      -8.3      2.022      5.560
REMARK  5 active torsions:
REMARK  status: ('A' for Active; 'I' for Inactive)
REMARK    1  A    between atoms: C_8  and  C_9 
REMARK    2  A    between atoms: C_9  and  N_10 
REMARK       I    between atoms: N_10  and  C_11 
REMARK       I    between atoms: C_11  and  N_12 
REMARK    3  A    between atoms: C_13  and  C_14 
REMARK    4  A    between atoms: C_14  and  C_15 
REMARK    5  A    between atoms: C_15  and  C_16 
ROOT
HETATM    1  N   UNL     1      26.236  41.840  50.576  1.00  0.00    -0.339 N 
HETATM    2  C   UNL     1      25.154  42.666  50.692  1.00  0.00     0.318 C 
HETATM    3  N   UNL     1      25.439  43.989  50.993  1.00  0.00    -0.330 N 
HETATM    4  C   UNL     1      26.787  44.582  51.138  1.00  0.00     0.089 C 
HETATM    5  C   UNL     1      26.918  45.822  50.232  1.00  0.00     0.025 C 
HETATM    6  C   UNL     1      25.773  46.814  50.411  1.00  0.00     0.004 C 
HETATM    7  C   UNL     1      24.428  46.116  50.238  1.00  0.00     0.020 C 
HETATM    8  C   UNL     1      24.309  44.909  51.162  1.00  0.00     0.128 C 
HETATM    9  O   UNL     1      24.012  42.248  50.512  1.00  0.00    -0.247 OA
HETATM   10  H   UNL     1      27.026  42.038  51.163  1.00  0.00     0.164 HD
ENDROOT
BRANCH   4  11
HETATM   11  C   UNL     1      27.117  44.916  52.609  1.00  0.00     0.030 C 
BRANCH  11  12
HETATM   12  C   UNL     1      27.563  43.687  53.408  1.00  0.00     0.040 C 
BRANCH  12  13
HETATM   13  C   UNL     1      28.687  44.020  54.358  1.00  0.00    -0.058 A 
HETATM   14  C   UNL     1      29.693  43.080  54.618  1.00  0.00     0.007 A 
HETATM   15  C   UNL     1      30.726  43.378  55.508  1.00  0.00     0.001 A 
HETATM   16  C   UNL     1      30.760  44.615  56.148  1.00  0.00     0.000 A 
HETATM   17  C   UNL     1      29.761  45.554  55.901  1.00  0.00     0.001 A 
HETATM   18  C   UNL     1      28.726  45.259  55.012  1.00  0.00     0.007 A 
ENDBRANCH  12  13
ENDBRANCH  11  12
ENDBRANCH   4  11
BRANCH   1  19
HETATM   19  C   UNL     1      26.054  40.445  50.250  1.00  0.00     0.167 C 
BRANCH  19  20
HETATM   20  C   UNL     1      27.393  39.869  49.959  1.00  0.00     0.009 A 
HETATM   21  C   UNL     1      28.533  39.878  50.744  1.00  0.00     0.034 A 
HETATM   22  C   UNL     1      28.806  40.435  52.089  1.00  0.00     0.070 C 
HETATM   23  N   UNL     1      29.487  39.215  50.025  1.00  0.00    -0.282 N 
HETATM   24  H   UNL     1      30.447  39.017  50.288  1.00  0.00     0.189 HD
HETATM   25  N   UNL     1      29.064  38.790  48.828  1.00  0.00    -0.179 NA
HETATM   26  C   UNL     1      27.784  39.175  48.780  1.00  0.00     0.060 A 
HETATM   27  C   UNL     1      26.956  38.883  47.582  1.00  0.00     0.073 C 
ENDBRANCH  19  20
ENDBRANCH   1  19
TORSDOF 5
ENDMDL
MODEL 8
REMARK VINA RESULT:      -8.2     12.398     15.148
REMARK  5 active torsions:
REMARK  status: ('A' for Active; 'I' for Inactive)
REMARK    1  A    between atoms: C_8  and  C_9 
REMARK    2  A    between atoms: C_9  and  N_10 
REMARK       I    between atoms: N_10  and  C_11 
REMARK       I    between atoms: C_11  and  N_12 
REMARK    3  A    between atoms: C_13  and  C_14 
REMARK    4  A    between atoms: C_14  and  C_15 
REMARK    5  A    between atoms: C_15  and  C_16 
ROOT
HETATM    1  N   UNL     1      31.208  50.399  41.820  1.00  0.00    -0.339 N 
HETATM    2  C   UNL     1      31.036  50.177  40.483  1.00  0.00     0.318 C 
HETATM    3  N   UNL     1      30.005  50.885  39.885  1.00  0.00    -0.330 N 
HETATM    4  C   UNL     1      29.131  51.881  40.543  1.00  0.00     0.089 C 
HETATM    5  C   UNL     1      29.137  53.198  39.744  1.00  0.00     0.025 C 
HETATM    6  C   UNL     1      28.849  52.994  38.258  1.00  0.00     0.004 C 
HETATM    7  C   UNL     1      29.799  51.958  37.667  1.00  0.00     0.020 C 
HETATM    8  C   UNL     1      29.758  50.655  38.458  1.00  0.00     0.128 C 
HETATM    9  O   UNL     1      31.775  49.414  39.865  1.00  0.00    -0.247 OA
HETATM   10  H   UNL     1      30.383  50.591  42.361  1.00  0.00     0.164 HD
ENDROOT
BRANCH   4  11
HETATM   11  C   UNL     1      27.698  51.348  40.750  1.00  0.00     0.030 C 
BRANCH  11  12
HETATM   12  C   UNL     1      27.652  50.102  41.640  1.00  0.00     0.040 C 
BRANCH  12  13
HETATM   13  C   UNL     1      27.504  48.841  40.826  1.00  0.00    -0.058 A 
HETATM   14  C   UNL     1      28.268  47.708  41.135  1.00  0.00     0.007 A 
HETATM   15  C   UNL     1      28.147  46.544  40.375  1.00  0.00     0.001 A 
HETATM   16  C   UNL     1      27.264  46.505  39.297  1.00  0.00     0.000 A 
HETATM   17  C   UNL     1      26.506  47.629  38.977  1.00  0.00     0.001 A 
HETATM   18  C   UNL     1      26.626  48.795  39.736  1.00  0.00     0.007 A 
ENDBRANCH  12  13
ENDBRANCH  11  12
ENDBRANCH   4  11
BRANCH   1  19
HETATM   19  C   UNL     1      32.263  49.724  42.539  1.00  0.00     0.167 C 
BRANCH  19  20
HETATM   20  C   UNL     1      33.311  50.730  42.855  1.00  0.00     0.009 A 
HETATM   21  C   UNL     1      33.323  51.691  43.850  1.00  0.00     0.034 A 
HETATM   22  C   UNL     1      32.342  52.037  44.906  1.00  0.00     0.070 C 
HETATM   23  N   UNL     1      34.510  52.354  43.717  1.00  0.00    -0.282 N 
HETATM   24  H   UNL     1      34.870  53.117  44.280  1.00  0.00     0.189 HD
HETATM   25  N   UNL     1      35.264  51.912  42.702  1.00  0.00    -0.179 NA
HETATM   26  C   UNL     1      34.548  50.914  42.175  1.00  0.00     0.060 A 
HETATM   27  C   UNL     1      35.060  50.160  41.002  1.00  0.00     0.073 C 
ENDBRANCH  19  20
ENDBRANCH   1  19
TORSDOF 5
ENDMDL
MODEL 9
REMARK VINA RESULT:      -8.0      5.821      7.347
REMARK  5 active torsions:
REMARK  status: ('A' for Active; 'I' for Inactive)
REMARK    1  A    between atoms: C_8  and  C_9 
REMARK    2  A    between atoms: C_9  and  N_10 
REMARK       I    between atoms: N_10  and  C_11 
REMARK       I    between atoms: C_11  and  N_12 
REMARK    3  A    between atoms: C_13  and  C_14 
REMARK    4  A    between atoms: C_14  and  C_15 
REMARK    5  A    between atoms: C_15  and  C_16 
ROOT
HETATM    1  N   UNL     1      21.675  47.309  48.195  1.00  0.00    -0.339 N 
HETATM    2  C   UNL     1      22.060  46.308  47.348  1.00  0.00     0.318 C 
HETATM    3  N   UNL     1      22.801  45.286  47.922  1.00  0.00    -0.330 N 
HETATM    4  C   UNL     1      23.153  45.161  49.354  1.00  0.00     0.089 C 
HETATM    5  C   UNL     1      22.731  43.777  49.882  1.00  0.00     0.025 C 
HETATM    6  C   UNL     1      23.231  42.628  49.009  1.00  0.00     0.004 C 
HETATM    7  C   UNL     1      22.816  42.841  47.557  1.00  0.00     0.020 C 
HETATM    8  C   UNL     1      23.267  44.206  47.048  1.00  0.00     0.128 C 
HETATM    9  O   UNL     1      21.737  46.319  46.162  1.00  0.00    -0.247 OA
HETATM   10  H   UNL     1      22.302  47.537  48.946  1.00  0.00     0.164 HD
ENDROOT
BRANCH   4  11
HETATM   11  C   UNL     1      24.651  45.433  49.607  1.00  0.00     0.030 C 
BRANCH  11  12
HETATM   12  C   UNL     1      24.887  46.629  50.535  1.00  0.00     0.040 C 
BRANCH  12  13
HETATM   13  C   UNL     1      25.567  47.766  49.814  1.00  0.00    -0.058 A 
HETATM   14  C   UNL     1      24.807  48.713  49.113  1.00  0.00     0.007 A 
HETATM   15  C   UNL     1      25.432  49.758  48.432  1.00  0.00     0.001 A 
HETATM   16  C   UNL     1      26.822  49.862  48.440  1.00  0.00     0.000 A 
HETATM   17  C   UNL     1      27.587  48.922  49.127  1.00  0.00     0.001 A 
HETATM   18  C   UNL     1      26.964  47.876  49.810  1.00  0.00     0.007 A 
ENDBRANCH  12  13
ENDBRANCH  11  12
ENDBRANCH   4  11
BRANCH   1  19
HETATM   19  C   UNL     1      20.887  48.414  47.703  1.00  0.00     0.167 C 
BRANCH  19  20
HETATM   20  C   UNL     1      20.536  49.272  48.866  1.00  0.00     0.009 A 
HETATM   21  C   UNL     1      19.573  49.067  49.838  1.00  0.00     0.034 A 
HETATM   22  C   UNL     1      18.602  47.969  50.055  1.00  0.00     0.070 C 
HETATM   23  N   UNL     1      19.655  50.141  50.679  1.00  0.00    -0.282 N 
HETATM   24  H   UNL     1      19.109  50.329  51.513  1.00  0.00     0.189 HD
HETATM   25  N   UNL     1      20.583  51.038  50.320  1.00  0.00    -0.179 NA
HETATM   26  C   UNL     1      21.134  50.514  49.220  1.00  0.00     0.060 A 
HETATM   27  C   UNL     1      22.224  51.232  48.511  1.00  0.00     0.073 C 
ENDBRANCH  19  20
ENDBRANCH   1  19
TORSDOF 5
ENDMDL
MODEL 10
REMARK VINA RESULT:      -7.9     12.654     14.559
REMARK  5 active torsions:
REMARK  status: ('A' for Active; 'I' for Inactive)
REMARK    1  A    between atoms: C_8  and  C_9 
REMARK    2  A    between atoms: C_9  and  N_10 
REMARK       I    between atoms: N_10  and  C_11 
REMARK       I    between atoms: C_11  and  N_12 
REMARK    3  A    between atoms: C_13  and  C_14 
REMARK    4  A    between atoms: C_14  and  C_15 
REMARK    5  A    between atoms: C_15  and  C_16 
ROOT
HETATM    1  N   UNL     1      28.326  51.121  39.963  1.00  0.00    -0.339 N 
HETATM    2  C   UNL     1      27.737  50.731  38.794  1.00  0.00     0.318 C 
HETATM    3  N   UNL     1      27.101  49.499  38.825  1.00  0.00    -0.330 N 
HETATM    4  C   UNL     1      26.959  48.618  40.005  1.00  0.00     0.089 C 
HETATM    5  C   UNL     1      25.478  48.247  40.212  1.00  0.00     0.025 C 
HETATM    6  C   UNL     1      24.815  47.712  38.945  1.00  0.00     0.004 C 
HETATM    7  C   UNL     1      25.008  48.687  37.788  1.00  0.00     0.020 C 
HETATM    8  C   UNL     1      26.482  49.019  37.585  1.00  0.00     0.128 C 
HETATM    9  O   UNL     1      27.759  51.451  37.799  1.00  0.00    -0.247 OA
HETATM   10  H   UNL     1      28.712  50.398  40.544  1.00  0.00     0.164 HD
ENDROOT
BRANCH   4  11
HETATM   11  C   UNL     1      27.850  47.362  39.900  1.00  0.00     0.030 C 
BRANCH  11  12
HETATM   12  C   UNL     1      29.238  47.667  39.329  1.00  0.00     0.040 C 
BRANCH  12  13
HETATM   13  C   UNL     1      30.226  48.002  40.419  1.00  0.00    -0.058 A 
HETATM   14  C   UNL     1      31.595  47.780  40.222  1.00  0.00     0.007 A 
HETATM   15  C   UNL     1      32.511  48.074  41.233  1.00  0.00     0.001 A 
HETATM   16  C   UNL     1      32.066  48.587  42.450  1.00  0.00     0.000 A 
HETATM   17  C   UNL     1      30.705  48.805  42.657  1.00  0.00     0.001 A 
HETATM   18  C   UNL     1      29.787  48.511  41.648  1.00  0.00     0.007 A 
ENDBRANCH  12  13
ENDBRANCH  11  12
ENDBRANCH   4  11
BRANCH   1  19
HETATM   19  C   UNL     1      29.003  52.394  40.046  1.00  0.00     0.167 C 
BRANCH  19  20
HETATM   20  C   UNL     1      30.437  52.126  40.335  1.00  0.00     0.009 A 
HETATM   21  C   UNL     1      31.415  51.625  39.494  1.00  0.00     0.034 A 
HETATM   22  C   UNL     1      31.381  51.203  38.075  1.00  0.00     0.070 C 
HETATM   23  N   UNL     1      32.559  51.574  40.240  1.00  0.00    -0.282 N 
HETATM   24  H   UNL     1      33.483  51.268  39.953  1.00  0.00     0.189 HD
HETATM   25  N   UNL     1      32.398  51.985  41.505  1.00  0.00    -0.179 NA
HETATM   26  C   UNL     1      31.110  52.334  41.572  1.00  0.00     0.060 A 
HETATM   27  C   UNL     1      30.536  52.849  42.842  1.00  0.00     0.073 C 
ENDBRANCH  19  20
ENDBRANCH   1  19
TORSDOF 5
ENDMDL
