MODEL 1
REMARK VINA RESULT:      -9.6      0.000      0.000
REMARK  8 active torsions:
REMARK  status: ('A' for Active; 'I' for Inactive)
REMARK    1  A    between atoms: C_2  and  N_3 
REMARK    2  A    between atoms: N_3  and  C_4 
REMARK    3  A    between atoms: C_4  and  N_5 
REMARK    4  A    between atoms: N_5  and  C_6 
REMARK    5  A    between atoms: N_5  and  C_21 
REMARK    6  A    between atoms: C_6  and  C_7 
REMARK    7  A    between atoms: C_21  and  C_22 
REMARK    8  A    between atoms: C_22  and  N_23 
ROOT
HETATM    1  N   UNL     1      25.378  44.930  50.646  1.00  0.00    -0.352 N 
ENDROOT
BRANCH   1   2
HETATM    2  C   UNL     1      25.327  43.740  49.943  1.00  0.00     0.174 C 
HETATM    3  S   UNL     1      23.885  42.944  49.614  1.00  0.00    -0.041 SA
BRANCH   2   4
HETATM    4  N   UNL     1      26.421  43.296  49.268  1.00  0.00    -0.333 N 
HETATM    5  H   UNL     1      26.564  43.779  48.383  1.00  0.00     0.168 HD
BRANCH   4   6
HETATM    6  C   UNL     1      27.123  42.074  49.346  1.00  0.00     0.034 A 
HETATM    7  C   UNL     1      27.501  41.321  48.233  1.00  0.00     0.032 A 
HETATM    8  C   UNL     1      28.224  40.135  48.396  1.00  0.00     0.044 A 
HETATM    9  C   UNL     1      28.582  39.717  49.671  1.00  0.00     0.116 A 
HETATM   10  C   UNL     1      28.241  40.467  50.787  1.00  0.00     0.044 A 
HETATM   11  F   UNL     1      29.275  38.582  49.825  1.00  0.00    -0.206 F 
HETATM   12  C   UNL     1      27.520  41.652  50.623  1.00  0.00     0.032 A 
ENDBRANCH   4   6
ENDBRANCH   2   4
ENDBRANCH   1   2
BRANCH   1  13
HETATM   13  C   UNL     1      25.005  44.998  52.082  1.00  0.00     0.169 C 
BRANCH  13  14
HETATM   14  C   UNL     1      26.200  45.235  52.962  1.00  0.00     0.029 A 
HETATM   15  C   UNL     1      26.285  46.556  53.657  1.00  0.00     0.253 A 
HETATM   16  O   UNL     1      25.451  47.434  53.455  1.00  0.00    -0.268 OA
HETATM   17  N   UNL     1      27.327  46.750  54.521  1.00  0.00    -0.322 N 
HETATM   18  C   UNL     1      28.268  45.763  54.841  1.00  0.00     0.048 A 
HETATM   19  H   UNL     1      27.366  47.648  54.987  1.00  0.00     0.169 HD
HETATM   20  C   UNL     1      28.175  44.501  54.214  1.00  0.00    -0.006 A 
HETATM   21  C   UNL     1      29.255  46.033  55.790  1.00  0.00     0.070 A 
HETATM   22  C   UNL     1      29.078  43.487  54.548  1.00  0.00     0.053 A 
HETATM   23  C   UNL     1      27.098  44.273  53.248  1.00  0.00     0.028 A 
HETATM   24  C   UNL     1      30.035  43.772  55.503  1.00  0.00     0.106 A 
HETATM   25  C   UNL     1      30.121  45.006  56.103  1.00  0.00     0.107 A 
HETATM   26  O   UNL     1      30.972  42.903  55.969  1.00  0.00    -0.323 OA
HETATM   27  O   UNL     1      31.124  45.068  57.019  1.00  0.00    -0.323 OA
HETATM   28  C   UNL     1      31.637  43.719  56.958  1.00  0.00     0.352 A 
ENDBRANCH  13  14
ENDBRANCH   1  13
BRANCH   1  29
HETATM   29  C   UNL     1      25.651  46.222  49.970  1.00  0.00     0.153 C 
BRANCH  29  30
HETATM   30  C   UNL     1      24.570  47.307  50.170  1.00  0.00     0.254 C 
BRANCH  30  31
HETATM   31  N   UNL     1      24.954  48.624  49.516  1.00  0.00    -0.066 N 
HETATM   32  H   UNL     1      24.894  49.347  50.249  1.00  0.00     0.280 HD
HETATM   33  C   UNL     1      26.379  48.661  48.973  1.00  0.00     0.261 C 
HETATM   34  C   UNL     1      26.653  50.043  48.369  1.00  0.00     0.195 C 
HETATM   35  O   UNL     1      25.715  50.337  47.327  1.00  0.00    -0.388 OA
HETATM   36  C   UNL     1      24.371  50.366  47.819  1.00  0.00     0.195 C 
HETATM   37  C   UNL     1      23.975  49.011  48.414  1.00  0.00     0.261 C 
ENDBRANCH  30  31
ENDBRANCH  29  30
ENDBRANCH   1  29
TORSDOF 8
ENDMDL
MODEL 2
REMARK VINA RESULT:      -9.2      2.977      5.768
REMARK  8 active torsions:
REMARK  status: ('A' for Active; 'I' for Inactive)
REMARK    1  A    between atoms: C_2  and  N_3 
REMARK    2  A    between atoms: N_3  and  C_4 
REMARK    3  A    between atoms: C_4  and  N_5 
REMARK    4  A    between atoms: N_5  and  C_6 
REMARK    5  A    between atoms: N_5  and  C_21 
REMARK    6  A    between atoms: C_6  and  C_7 
REMARK    7  A    between atoms: C_21  and  C_22 
REMARK    8  A    between atoms: C_22  and  N_23 
ROOT
HETATM    1  N   UNL     1      25.535  45.480  52.472  1.00  0.00    -0.352 N 
ENDROOT
BRANCH   1   2
HETATM    2  C   UNL     1      26.343  44.980  53.476  1.00  0.00     0.174 C 
HETATM    3  S   UNL     1      25.743  44.068  54.752  1.00  0.00    -0.041 SA
BRANCH   2   4
HETATM    4  N   UNL     1      27.696  44.992  53.335  1.00  0.00    -0.333 N 
HETATM    5  H   UNL     1      27.992  45.056  52.363  1.00  0.00     0.168 HD
BRANCH   4   6
HETATM    6  C   UNL     1      28.719  44.533  54.192  1.00  0.00     0.034 A 
HETATM    7  C   UNL     1      29.395  43.323  54.020  1.00  0.00     0.032 A 
HETATM    8  C   UNL     1      30.420  42.957  54.897  1.00  0.00     0.044 A 
HETATM    9  C   UNL     1      30.779  43.812  55.932  1.00  0.00     0.116 A 
HETATM   10  C   UNL     1      30.140  45.032  56.101  1.00  0.00     0.044 A 
HETATM   11  F   UNL     1      31.762  43.460  56.770  1.00  0.00    -0.206 F 
HETATM   12  C   UNL     1      29.116  45.397  55.223  1.00  0.00     0.032 A 
ENDBRANCH   4   6
ENDBRANCH   2   4
ENDBRANCH   1   2
BRANCH   1  13
HETATM   13  C   UNL     1      24.564  44.614  51.755  1.00  0.00     0.169 C 
BRANCH  13  14
HETATM   14  C   UNL     1      25.253  43.596  50.890  1.00  0.00     0.029 A 
HETATM   15  C   UNL     1      25.232  43.828  49.413  1.00  0.00     0.253 A 
HETATM   16  O   UNL     1      24.614  44.772  48.928  1.00  0.00    -0.268 OA
HETATM   17  N   UNL     1      25.923  42.951  48.625  1.00  0.00    -0.322 N 
HETATM   18  C   UNL     1      26.700  41.899  49.126  1.00  0.00     0.048 A 
HETATM   19  H   UNL     1      25.903  43.127  47.628  1.00  0.00     0.169 HD
HETATM   20  C   UNL     1      26.752  41.693  50.522  1.00  0.00    -0.006 A 
HETATM   21  C   UNL     1      27.429  41.098  48.245  1.00  0.00     0.070 A 
HETATM   22  C   UNL     1      27.553  40.674  51.048  1.00  0.00     0.053 A 
HETATM   23  C   UNL     1      25.987  42.586  51.395  1.00  0.00     0.028 A 
HETATM   24  C   UNL     1      28.279  39.906  50.158  1.00  0.00     0.106 A 
HETATM   25  C   UNL     1      28.216  40.111  48.799  1.00  0.00     0.107 A 
HETATM   26  O   UNL     1      29.127  38.897  50.491  1.00  0.00    -0.323 OA
HETATM   27  O   UNL     1      29.015  39.255  48.110  1.00  0.00    -0.323 OA
HETATM   28  C   UNL     1      29.620  38.511  49.190  1.00  0.00     0.352 A 
ENDBRANCH  13  14
ENDBRANCH   1  13
BRANCH   1  29
HETATM   29  C   UNL     1      25.705  46.858  51.949  1.00  0.00     0.153 C 
BRANCH  29  30
HETATM   30  C   UNL     1      26.450  46.960  50.601  1.00  0.00     0.254 C 
BRANCH  30  31
HETATM   31  N   UNL     1      26.203  48.292  49.910  1.00  0.00    -0.066 N 
HETATM   32  H   UNL     1      26.120  49.000  50.655  1.00  0.00     0.280 HD
HETATM   33  C   UNL     1      27.337  48.741  48.995  1.00  0.00     0.261 C 
HETATM   34  C   UNL     1      26.983  50.102  48.385  1.00  0.00     0.195 C 
HETATM   35  O   UNL     1      25.752  50.028  47.655  1.00  0.00    -0.388 OA
HETATM   36  C   UNL     1      24.657  49.663  48.502  1.00  0.00     0.195 C 
HETATM   37  C   UNL     1      24.889  48.288  49.138  1.00  0.00     0.261 C 
ENDBRANCH  30  31
ENDBRANCH  29  30
ENDBRANCH   1  29
TORSDOF 8
ENDMDL
MODEL 3
REMARK VINA RESULT:      -9.1     11.974     13.910
REMARK  8 active torsions:
REMARK  status: ('A' for Active; 'I' for Inactive)
REMARK    1  A    between atoms: C_2  and  N_3 
REMARK    2  A    between atoms: N_3  and  C_4 
REMARK    3  A    between atoms: C_4  and  N_5 
REMARK    4  A    between atoms: N_5  and  C_6 
REMARK    5  A    between atoms: N_5  and  C_21 
REMARK    6  A    between atoms: C_6  and  C_7 
REMARK    7  A    between atoms: C_21  and  C_22 
REMARK    8  A    between atoms: C_22  and  N_23 
ROOT
HETATM    1  N   UNL     1      28.312  48.938  40.190  1.00  0.00    -0.352 N 
ENDROOT
BRANCH   1   2
HETATM    2  C   UNL     1      28.333  50.312  40.034  1.00  0.00     0.174 C 
HETATM    3  S   UNL     1      27.652  51.361  41.156  1.00  0.00    -0.041 SA
BRANCH   2   4
HETATM    4  N   UNL     1      29.129  50.882  39.091  1.00  0.00    -0.333 N 
HETATM    5  H   UNL     1      28.891  50.592  38.144  1.00  0.00     0.168 HD
BRANCH   4   6
HETATM    6  C   UNL     1      30.422  51.440  39.185  1.00  0.00     0.034 A 
HETATM    7  C   UNL     1      30.768  52.458  40.075  1.00  0.00     0.032 A 
HETATM    8  C   UNL     1      32.082  52.933  40.127  1.00  0.00     0.044 A 
HETATM    9  C   UNL     1      33.049  52.375  39.301  1.00  0.00     0.116 A 
HETATM   10  C   UNL     1      32.731  51.342  38.431  1.00  0.00     0.044 A 
HETATM   11  F   UNL     1      34.307  52.830  39.353  1.00  0.00    -0.206 F 
HETATM   12  C   UNL     1      31.419  50.867  38.381  1.00  0.00     0.032 A 
ENDBRANCH   4   6
ENDBRANCH   2   4
ENDBRANCH   1   2
BRANCH   1  13
HETATM   13  C   UNL     1      28.916  48.284  41.379  1.00  0.00     0.169 C 
BRANCH  13  14
HETATM   14  C   UNL     1      30.369  48.633  41.534  1.00  0.00     0.029 A 
HETATM   15  C   UNL     1      31.330  47.992  40.585  1.00  0.00     0.253 A 
HETATM   16  O   UNL     1      30.953  47.159  39.765  1.00  0.00    -0.268 OA
HETATM   17  N   UNL     1      32.644  48.364  40.667  1.00  0.00    -0.322 N 
HETATM   18  C   UNL     1      33.120  49.355  41.534  1.00  0.00     0.048 A 
HETATM   19  H   UNL     1      33.279  47.924  40.013  1.00  0.00     0.169 HD
HETATM   20  C   UNL     1      32.212  49.990  42.410  1.00  0.00    -0.006 A 
HETATM   21  C   UNL     1      34.467  49.718  41.495  1.00  0.00     0.070 A 
HETATM   22  C   UNL     1      32.657  51.011  43.256  1.00  0.00     0.053 A 
HETATM   23  C   UNL     1      30.805  49.584  42.382  1.00  0.00     0.028 A 
HETATM   24  C   UNL     1      33.990  51.364  43.187  1.00  0.00     0.106 A 
HETATM   25  C   UNL     1      34.868  50.736  42.335  1.00  0.00     0.107 A 
HETATM   26  O   UNL     1      34.588  52.348  43.911  1.00  0.00    -0.323 OA
HETATM   27  O   UNL     1      36.125  51.245  42.418  1.00  0.00    -0.323 OA
HETATM   28  C   UNL     1      35.934  52.293  43.392  1.00  0.00     0.352 A 
ENDBRANCH  13  14
ENDBRANCH   1  13
BRANCH   1  29
HETATM   29  C   UNL     1      27.835  48.039  39.111  1.00  0.00     0.153 C 
BRANCH  29  30
HETATM   30  C   UNL     1      26.709  47.065  39.519  1.00  0.00     0.254 C 
BRANCH  30  31
HETATM   31  N   UNL     1      27.125  45.612  39.362  1.00  0.00    -0.066 N 
HETATM   32  H   UNL     1      26.354  45.135  38.869  1.00  0.00     0.280 HD
HETATM   33  C   UNL     1      28.381  45.408  38.522  1.00  0.00     0.261 C 
HETATM   34  C   UNL     1      28.678  43.908  38.413  1.00  0.00     0.195 C 
HETATM   35  O   UNL     1      28.847  43.328  39.712  1.00  0.00    -0.388 OA
HETATM   36  C   UNL     1      27.662  43.453  40.505  1.00  0.00     0.195 C 
HETATM   37  C   UNL     1      27.293  44.926  40.712  1.00  0.00     0.261 C 
ENDBRANCH  30  31
ENDBRANCH  29  30
ENDBRANCH   1  29
TORSDOF 8
ENDMDL
MODEL 4
REMARK VINA RESULT:      -9.1     11.911     13.446
REMARK  8 active torsions:
REMARK  status: ('A' for Active; 'I' for Inactive)
REMARK    1  A    between atoms: C_2  and  N_3 
REMARK    2  A    between atoms: N_3  and  C_4 
REMARK    3  A    between atoms: C_4  and  N_5 
REMARK    4  A    between atoms: N_5  and  C_6 
REMARK    5  A    between atoms: N_5  and  C_21 
REMARK    6  A    between atoms: C_6  and  C_7 
REMARK    7  A    between atoms: C_21  and  C_22 
REMARK    8  A    between atoms: C_22  and  N_23 
ROOT
HETATM    1  N   UNL     1      26.651  48.097  39.911  1.00  0.00    -0.352 N 
ENDROOT
BRANCH   1   2
HETATM    2  C   UNL     1      26.675  49.128  38.990  1.00  0.00     0.174 C 
HETATM    3  S   UNL     1      26.362  48.892  37.356  1.00  0.00    -0.041 SA
BRANCH   2   4
HETATM    4  N   UNL     1      26.705  50.421  39.410  1.00  0.00    -0.333 N 
HETATM    5  H   UNL     1      25.940  50.978  39.032  1.00  0.00     0.168 HD
BRANCH   4   6
HETATM    6  C   UNL     1      27.766  51.210  39.905  1.00  0.00     0.034 A 
HETATM    7  C   UNL     1      27.807  51.737  41.197  1.00  0.00     0.032 A 
HETATM    8  C   UNL     1      28.912  52.483  41.619  1.00  0.00     0.044 A 
HETATM    9  C   UNL     1      29.980  52.682  40.754  1.00  0.00     0.116 A 
HETATM   10  C   UNL     1      29.970  52.140  39.476  1.00  0.00     0.044 A 
HETATM   11  F   UNL     1      31.038  53.395  41.161  1.00  0.00    -0.206 F 
HETATM   12  C   UNL     1      28.867  51.395  39.056  1.00  0.00     0.032 A 
ENDBRANCH   4   6
ENDBRANCH   2   4
ENDBRANCH   1   2
BRANCH   1  13
HETATM   13  C   UNL     1      27.741  47.090  39.976  1.00  0.00     0.169 C 
BRANCH  13  14
HETATM   14  C   UNL     1      29.074  47.724  40.257  1.00  0.00     0.029 A 
HETATM   15  C   UNL     1      30.034  47.829  39.115  1.00  0.00     0.253 A 
HETATM   16  O   UNL     1      29.768  47.350  38.016  1.00  0.00    -0.268 OA
HETATM   17  N   UNL     1      31.217  48.476  39.341  1.00  0.00    -0.322 N 
HETATM   18  C   UNL     1      31.545  49.100  40.551  1.00  0.00     0.048 A 
HETATM   19  H   UNL     1      31.853  48.542  38.556  1.00  0.00     0.169 HD
HETATM   20  C   UNL     1      30.630  49.034  41.624  1.00  0.00    -0.006 A 
HETATM   21  C   UNL     1      32.749  49.797  40.665  1.00  0.00     0.070 A 
HETATM   22  C   UNL     1      30.917  49.684  42.829  1.00  0.00     0.053 A 
HETATM   23  C   UNL     1      29.371  48.310  41.432  1.00  0.00     0.028 A 
HETATM   24  C   UNL     1      32.106  50.382  42.911  1.00  0.00     0.106 A 
HETATM   25  C   UNL     1      32.994  50.435  41.862  1.00  0.00     0.107 A 
HETATM   26  O   UNL     1      32.534  51.093  43.988  1.00  0.00    -0.323 OA
HETATM   27  O   UNL     1      34.091  51.184  42.150  1.00  0.00    -0.323 OA
HETATM   28  C   UNL     1      33.777  51.631  43.487  1.00  0.00     0.352 A 
ENDBRANCH  13  14
ENDBRANCH   1  13
BRANCH   1  29
HETATM   29  C   UNL     1      25.466  47.847  40.768  1.00  0.00     0.153 C 
BRANCH  29  30
HETATM   30  C   UNL     1      24.145  47.607  40.007  1.00  0.00     0.254 C 
BRANCH  30  31
HETATM   31  N   UNL     1      23.143  48.728  40.231  1.00  0.00    -0.066 N 
HETATM   32  H   UNL     1      23.454  49.239  41.072  1.00  0.00     0.280 HD
HETATM   33  C   UNL     1      23.077  49.744  39.096  1.00  0.00     0.261 C 
HETATM   34  C   UNL     1      22.059  50.833  39.453  1.00  0.00     0.195 C 
HETATM   35  O   UNL     1      20.766  50.264  39.689  1.00  0.00    -0.388 OA
HETATM   36  C   UNL     1      20.785  49.347  40.788  1.00  0.00     0.195 C 
HETATM   37  C   UNL     1      21.749  48.186  40.518  1.00  0.00     0.261 C 
ENDBRANCH  30  31
ENDBRANCH  29  30
ENDBRANCH   1  29
TORSDOF 8
ENDMDL
MODEL 5
REMARK VINA RESULT:      -9.1      3.588      5.794
REMARK  8 active torsions:
REMARK  status: ('A' for Active; 'I' for Inactive)
REMARK    1  A    between atoms: C_2  and  N_3 
REMARK    2  A    between atoms: N_3  and  C_4 
REMARK    3  A    between atoms: C_4  and  N_5 
REMARK    4  A    between atoms: N_5  and  C_6 
REMARK    5  A    between atoms: N_5  and  C_21 
REMARK    6  A    between atoms: C_6  and  C_7 
REMARK    7  A    between atoms: C_21  and  C_22 
REMARK    8  A    between atoms: C_22  and  N_23 
ROOT
HETATM    1  N   UNL     1      25.850  44.583  51.676  1.00  0.00    -0.352 N 
ENDROOT
BRANCH   1   2
HETATM    2  C   UNL     1      25.346  45.871  51.678  1.00  0.00     0.174 C 
HETATM    3  S   UNL     1      25.541  46.918  52.976  1.00  0.00    -0.041 SA
BRANCH   2   4
HETATM    4  N   UNL     1      24.889  46.429  50.524  1.00  0.00    -0.333 N 
HETATM    5  H   UNL     1      24.356  45.776  49.953  1.00  0.00     0.168 HD
BRANCH   4   6
HETATM    6  C   UNL     1      25.338  47.554  49.800  1.00  0.00     0.034 A 
HETATM    7  C   UNL     1      24.490  48.533  49.279  1.00  0.00     0.032 A 
HETATM    8  C   UNL     1      25.019  49.634  48.599  1.00  0.00     0.044 A 
HETATM    9  C   UNL     1      26.395  49.762  48.460  1.00  0.00     0.116 A 
HETATM   10  C   UNL     1      27.255  48.814  48.997  1.00  0.00     0.044 A 
HETATM   11  F   UNL     1      26.900  50.818  47.810  1.00  0.00    -0.206 F 
HETATM   12  C   UNL     1      26.726  47.715  49.677  1.00  0.00     0.032 A 
ENDBRANCH   4   6
ENDBRANCH   2   4
ENDBRANCH   1   2
BRANCH   1  13
HETATM   13  C   UNL     1      27.275  44.309  51.359  1.00  0.00     0.169 C 
BRANCH  13  14
HETATM   14  C   UNL     1      28.075  44.003  52.594  1.00  0.00     0.029 A 
HETATM   15  C   UNL     1      28.874  42.739  52.593  1.00  0.00     0.253 A 
HETATM   16  O   UNL     1      28.816  41.952  51.651  1.00  0.00    -0.268 OA
HETATM   17  N   UNL     1      29.668  42.491  53.678  1.00  0.00    -0.322 N 
HETATM   18  C   UNL     1      29.825  43.382  54.748  1.00  0.00     0.048 A 
HETATM   19  H   UNL     1      30.205  41.634  53.658  1.00  0.00     0.169 HD
HETATM   20  C   UNL     1      29.099  44.594  54.740  1.00  0.00    -0.006 A 
HETATM   21  C   UNL     1      30.714  43.073  55.779  1.00  0.00     0.070 A 
HETATM   22  C   UNL     1      29.272  45.517  55.776  1.00  0.00     0.053 A 
HETATM   23  C   UNL     1      28.205  44.871  53.614  1.00  0.00     0.028 A 
HETATM   24  C   UNL     1      30.169  45.197  56.776  1.00  0.00     0.106 A 
HETATM   25  C   UNL     1      30.866  44.011  56.777  1.00  0.00     0.107 A 
HETATM   26  O   UNL     1      30.482  45.982  57.841  1.00  0.00    -0.323 OA
HETATM   27  O   UNL     1      31.702  43.903  57.844  1.00  0.00    -0.323 OA
HETATM   28  C   UNL     1      31.483  45.173  58.496  1.00  0.00     0.352 A 
ENDBRANCH  13  14
ENDBRANCH   1  13
BRANCH   1  29
HETATM   29  C   UNL     1      24.966  43.401  51.829  1.00  0.00     0.153 C 
BRANCH  29  30
HETATM   30  C   UNL     1      25.064  42.358  50.696  1.00  0.00     0.254 C 
BRANCH  30  31
HETATM   31  N   UNL     1      24.230  42.747  49.486  1.00  0.00    -0.066 N 
HETATM   32  H   UNL     1      24.810  43.385  48.920  1.00  0.00     0.280 HD
HETATM   33  C   UNL     1      23.850  41.576  48.586  1.00  0.00     0.261 C 
HETATM   34  C   UNL     1      23.040  42.099  47.394  1.00  0.00     0.195 C 
HETATM   35  O   UNL     1      21.866  42.788  47.839  1.00  0.00    -0.388 OA
HETATM   36  C   UNL     1      22.193  43.927  48.642  1.00  0.00     0.195 C 
HETATM   37  C   UNL     1      22.976  43.512  49.892  1.00  0.00     0.261 C 
ENDBRANCH  30  31
ENDBRANCH  29  30
ENDBRANCH   1  29
TORSDOF 8
ENDMDL
MODEL 6
REMARK VINA RESULT:      -9.0      2.721      6.070
REMARK  8 active torsions:
REMARK  status: ('A' for Active; 'I' for Inactive)
REMARK    1  A    between atoms: C_2  and  N_3 
REMARK    2  A    between atoms: N_3  and  C_4 
REMARK    3  A    between atoms: C_4  and  N_5 
REMARK    4  A    between atoms: N_5  and  C_6 
REMARK    5  A    between atoms: N_5  and  C_21 
REMARK    6  A    between atoms: C_6  and  C_7 
REMARK    7  A    between atoms: C_21  and  C_22 
REMARK    8  A    between atoms: C_22  and  N_23 
ROOT
HETATM    1  N   UNL     1      25.656  44.061  50.610  1.00  0.00    -0.352 N 
ENDROOT
BRANCH   1   2
HETATM    2  C   UNL     1      24.914  45.016  49.940  1.00  0.00     0.174 C 
HETATM    3  S   UNL     1      23.732  44.619  48.814  1.00  0.00    -0.041 SA
BRANCH   2   4
HETATM    4  N   UNL     1      24.935  46.312  50.351  1.00  0.00    -0.333 N 
HETATM    5  H   UNL     1      24.247  46.509  51.075  1.00  0.00     0.168 HD
BRANCH   4   6
HETATM    6  C   UNL     1      25.409  47.478  49.712  1.00  0.00     0.034 A 
HETATM    7  C   UNL     1      24.579  48.480  49.205  1.00  0.00     0.032 A 
HETATM    8  C   UNL     1      25.131  49.621  48.614  1.00  0.00     0.044 A 
HETATM    9  C   UNL     1      26.511  49.764  48.549  1.00  0.00     0.116 A 
HETATM   10  C   UNL     1      27.352  48.793  49.074  1.00  0.00     0.044 A 
HETATM   11  F   UNL     1      27.038  50.857  47.984  1.00  0.00    -0.206 F 
HETATM   12  C   UNL     1      26.800  47.654  49.665  1.00  0.00     0.032 A 
ENDBRANCH   4   6
ENDBRANCH   2   4
ENDBRANCH   1   2
BRANCH   1  13
HETATM   13  C   UNL     1      25.395  43.737  52.036  1.00  0.00     0.169 C 
BRANCH  13  14
HETATM   14  C   UNL     1      26.497  44.224  52.934  1.00  0.00     0.029 A 
HETATM   15  C   UNL     1      26.355  45.599  53.505  1.00  0.00     0.253 A 
HETATM   16  O   UNL     1      25.413  46.323  53.191  1.00  0.00    -0.268 OA
HETATM   17  N   UNL     1      27.312  46.020  54.385  1.00  0.00    -0.322 N 
HETATM   18  C   UNL     1      28.369  45.216  54.831  1.00  0.00     0.048 A 
HETATM   19  H   UNL     1      27.198  46.951  54.766  1.00  0.00     0.169 HD
HETATM   20  C   UNL     1      28.491  43.904  54.321  1.00  0.00    -0.006 A 
HETATM   21  C   UNL     1      29.258  45.711  55.786  1.00  0.00     0.070 A 
HETATM   22  C   UNL     1      29.514  43.069  54.782  1.00  0.00     0.053 A 
HETATM   23  C   UNL     1      27.509  43.436  53.341  1.00  0.00     0.028 A 
HETATM   24  C   UNL     1      30.370  43.575  55.740  1.00  0.00     0.106 A 
HETATM   25  C   UNL     1      30.247  44.856  56.226  1.00  0.00     0.107 A 
HETATM   26  O   UNL     1      31.398  42.899  56.319  1.00  0.00    -0.323 OA
HETATM   27  O   UNL     1      31.182  45.145  57.168  1.00  0.00    -0.323 OA
HETATM   28  C   UNL     1      31.887  43.887  57.252  1.00  0.00     0.352 A 
ENDBRANCH  13  14
ENDBRANCH   1  13
BRANCH   1  29
HETATM   29  C   UNL     1      26.849  43.429  49.995  1.00  0.00     0.153 C 
BRANCH  29  30
HETATM   30  C   UNL     1      26.550  42.447  48.842  1.00  0.00     0.254 C 
BRANCH  30  31
HETATM   31  N   UNL     1      27.164  41.078  49.082  1.00  0.00    -0.066 N 
HETATM   32  H   UNL     1      26.380  40.419  49.205  1.00  0.00     0.280 HD
HETATM   33  C   UNL     1      28.003  40.557  47.919  1.00  0.00     0.261 C 
HETATM   34  C   UNL     1      28.540  39.165  48.269  1.00  0.00     0.195 C 
HETATM   35  O   UNL     1      29.322  39.208  49.468  1.00  0.00    -0.388 OA
HETATM   36  C   UNL     1      28.545  39.640  50.591  1.00  0.00     0.195 C 
HETATM   37  C   UNL     1      27.988  41.049  50.363  1.00  0.00     0.261 C 
ENDBRANCH  30  31
ENDBRANCH  29  30
ENDBRANCH   1  29
TORSDOF 8
ENDMDL
MODEL 7
REMARK VINA RESULT:      -9.0      3.336      6.445
REMARK  8 active torsions:
REMARK  status: ('A' for Active; 'I' for Inactive)
REMARK    1  A    between atoms: C_2  and  N_3 
REMARK    2  A    between atoms: N_3  and  C_4 
REMARK    3  A    between atoms: C_4  and  N_5 
REMARK    4  A    between atoms: N_5  and  C_6 
REMARK    5  A    between atoms: N_5  and  C_21 
REMARK    6  A    between atoms: C_6  and  C_7 
REMARK    7  A    between atoms: C_21  and  C_22 
REMARK    8  A    between atoms: C_22  and  N_23 
ROOT
HETATM    1  N   UNL     1      25.404  46.088  50.474  1.00  0.00    -0.352 N 
ENDROOT
BRANCH   1   2
HETATM    2  C   UNL     1      25.187  47.422  50.181  1.00  0.00     0.174 C 
HETATM    3  S   UNL     1      26.294  48.355  49.329  1.00  0.00    -0.041 SA
BRANCH   2   4
HETATM    4  N   UNL     1      23.952  47.968  50.351  1.00  0.00    -0.333 N 
HETATM    5  H   UNL     1      23.477  47.620  51.181  1.00  0.00     0.168 HD
BRANCH   4   6
HETATM    6  C   UNL     1      23.073  48.573  49.428  1.00  0.00     0.034 A 
HETATM    7  C   UNL     1      22.289  47.862  48.517  1.00  0.00     0.032 A 
HETATM    8  C   UNL     1      21.419  48.538  47.657  1.00  0.00     0.044 A 
HETATM    9  C   UNL     1      21.322  49.922  47.724  1.00  0.00     0.116 A 
HETATM   10  C   UNL     1      22.071  50.644  48.642  1.00  0.00     0.044 A 
HETATM   11  F   UNL     1      20.487  50.568  46.900  1.00  0.00    -0.206 F 
HETATM   12  C   UNL     1      22.939  49.968  49.502  1.00  0.00     0.032 A 
ENDBRANCH   4   6
ENDBRANCH   2   4
ENDBRANCH   1   2
BRANCH   1  13
HETATM   13  C   UNL     1      25.077  45.525  51.808  1.00  0.00     0.169 C 
BRANCH  13  14
HETATM   14  C   UNL     1      26.219  45.669  52.774  1.00  0.00     0.029 A 
HETATM   15  C   UNL     1      26.250  46.904  53.616  1.00  0.00     0.253 A 
HETATM   16  O   UNL     1      25.416  47.794  53.468  1.00  0.00    -0.268 OA
HETATM   17  N   UNL     1      27.240  47.007  54.553  1.00  0.00    -0.322 N 
HETATM   18  C   UNL     1      28.175  45.996  54.813  1.00  0.00     0.048 A 
HETATM   19  H   UNL     1      27.242  47.847  55.118  1.00  0.00     0.169 HD
HETATM   20  C   UNL     1      28.132  44.812  54.044  1.00  0.00    -0.006 A 
HETATM   21  C   UNL     1      29.105  46.164  55.839  1.00  0.00     0.070 A 
HETATM   22  C   UNL     1      29.029  43.773  54.312  1.00  0.00     0.053 A 
HETATM   23  C   UNL     1      27.112  44.687  53.000  1.00  0.00     0.028 A 
HETATM   24  C   UNL     1      29.928  43.955  55.344  1.00  0.00     0.106 A 
HETATM   25  C   UNL     1      29.966  45.115  56.083  1.00  0.00     0.107 A 
HETATM   26  O   UNL     1      30.849  43.046  55.761  1.00  0.00    -0.323 OA
HETATM   27  O   UNL     1      30.916  45.079  57.054  1.00  0.00    -0.323 OA
HETATM   28  C   UNL     1      31.449  43.749  56.871  1.00  0.00     0.352 A 
ENDBRANCH  13  14
ENDBRANCH   1  13
BRANCH   1  29
HETATM   29  C   UNL     1      26.120  45.192  49.533  1.00  0.00     0.153 C 
BRANCH  29  30
HETATM   30  C   UNL     1      25.401  43.862  49.220  1.00  0.00     0.254 C 
BRANCH  30  31
HETATM   31  N   UNL     1      26.380  42.717  49.014  1.00  0.00    -0.066 N 
HETATM   32  H   UNL     1      27.197  43.111  48.523  1.00  0.00     0.280 HD
HETATM   33  C   UNL     1      26.898  42.097  50.308  1.00  0.00     0.261 C 
HETATM   34  C   UNL     1      27.893  40.982  49.969  1.00  0.00     0.195 C 
HETATM   35  O   UNL     1      27.277  39.982  49.149  1.00  0.00    -0.388 OA
HETATM   36  C   UNL     1      26.830  40.524  47.901  1.00  0.00     0.195 C 
HETATM   37  C   UNL     1      25.793  41.630  48.122  1.00  0.00     0.261 C 
ENDBRANCH  30  31
ENDBRANCH  29  30
ENDBRANCH   1  29
TORSDOF 8
ENDMDL
MODEL 8
REMARK VINA RESULT:      -8.9      3.446      8.381
REMARK  8 active torsions:
REMARK  status: ('A' for Active; 'I' for Inactive)
REMARK    1  A    between atoms: C_2  and  N_3 
REMARK    2  A    between atoms: N_3  and  C_4 
REMARK    3  A    between atoms: C_4  and  N_5 
REMARK    4  A    between atoms: N_5  and  C_6 
REMARK    5  A    between atoms: N_5  and  C_21 
REMARK    6  A    between atoms: C_6  and  C_7 
REMARK    7  A    between atoms: C_21  and  C_22 
REMARK    8  A    between atoms: C_22  and  N_23 
ROOT
HETATM    1  N   UNL     1      26.172  43.362  51.980  1.00  0.00    -0.352 N 
ENDROOT
BRANCH   1   2
HETATM    2  C   UNL     1      26.507  44.106  53.096  1.00  0.00     0.174 C 
HETATM    3  S   UNL     1      25.595  44.086  54.507  1.00  0.00    -0.041 SA
BRANCH   2   4
HETATM    4  N   UNL     1      27.732  44.691  53.186  1.00  0.00    -0.333 N 
HETATM    5  H   UNL     1      28.080  45.020  52.287  1.00  0.00     0.168 HD
BRANCH   4   6
HETATM    6  C   UNL     1      28.749  44.565  54.156  1.00  0.00     0.034 A 
HETATM    7  C   UNL     1      28.949  45.473  55.198  1.00  0.00     0.032 A 
HETATM    8  C   UNL     1      29.962  45.257  56.137  1.00  0.00     0.044 A 
HETATM    9  C   UNL     1      30.759  44.123  56.042  1.00  0.00     0.116 A 
HETATM   10  C   UNL     1      30.555  43.194  55.032  1.00  0.00     0.044 A 
HETATM   11  F   UNL     1      31.727  43.917  56.943  1.00  0.00    -0.206 F 
HETATM   12  C   UNL     1      29.543  43.410  54.095  1.00  0.00     0.032 A 
ENDBRANCH   4   6
ENDBRANCH   2   4
ENDBRANCH   1   2
BRANCH   1  13
HETATM   13  C   UNL     1      24.756  43.176  51.570  1.00  0.00     0.169 C 
BRANCH  13  14
HETATM   14  C   UNL     1      24.292  44.265  50.645  1.00  0.00     0.029 A 
HETATM   15  C   UNL     1      23.046  44.008  49.859  1.00  0.00     0.253 A 
HETATM   16  O   UNL     1      22.473  42.923  49.915  1.00  0.00    -0.268 OA
HETATM   17  N   UNL     1      22.572  45.023  49.075  1.00  0.00    -0.322 N 
HETATM   18  C   UNL     1      23.145  46.301  49.023  1.00  0.00     0.048 A 
HETATM   19  H   UNL     1      21.725  44.834  48.554  1.00  0.00     0.169 HD
HETATM   20  C   UNL     1      24.303  46.561  49.789  1.00  0.00    -0.006 A 
HETATM   21  C   UNL     1      22.547  47.294  48.247  1.00  0.00     0.070 A 
HETATM   22  C   UNL     1      24.868  47.841  49.786  1.00  0.00     0.053 A 
HETATM   23  C   UNL     1      24.864  45.483  50.606  1.00  0.00     0.028 A 
HETATM   24  C   UNL     1      24.249  48.812  49.024  1.00  0.00     0.106 A 
HETATM   25  C   UNL     1      23.125  48.546  48.277  1.00  0.00     0.107 A 
HETATM   26  O   UNL     1      24.641  50.110  48.924  1.00  0.00    -0.323 OA
HETATM   27  O   UNL     1      22.672  49.643  47.613  1.00  0.00    -0.323 OA
HETATM   28  C   UNL     1      23.615  50.642  48.058  1.00  0.00     0.352 A 
ENDBRANCH  13  14
ENDBRANCH   1  13
BRANCH   1  29
HETATM   29  C   UNL     1      27.187  42.581  51.231  1.00  0.00     0.153 C 
BRANCH  29  30
HETATM   30  C   UNL     1      27.576  41.230  51.869  1.00  0.00     0.254 C 
BRANCH  30  31
HETATM   31  N   UNL     1      27.858  40.164  50.823  1.00  0.00    -0.066 N 
HETATM   32  H   UNL     1      27.040  39.536  50.812  1.00  0.00     0.280 HD
HETATM   33  C   UNL     1      28.020  40.706  49.406  1.00  0.00     0.261 C 
HETATM   34  C   UNL     1      28.270  39.538  48.446  1.00  0.00     0.195 C 
HETATM   35  O   UNL     1      29.435  38.800  48.833  1.00  0.00    -0.388 OA
HETATM   36  C   UNL     1      29.290  38.231  50.139  1.00  0.00     0.195 C 
HETATM   37  C   UNL     1      29.073  39.322  51.193  1.00  0.00     0.261 C 
ENDBRANCH  30  31
ENDBRANCH  29  30
ENDBRANCH   1  29
TORSDOF 8
ENDMDL
MODEL 9
REMARK VINA RESULT:      -8.7     12.448     13.985
REMARK  8 active torsions:
REMARK  status: ('A' for Active; 'I' for Inactive)
REMARK    1  A    between atoms: C_2  and  N_3 
REMARK    2  A    between atoms: N_3  and  C_4 
REMARK    3  A    between atoms: C_4  and  N_5 
REMARK    4  A    between atoms: N_5  and  C_6 
REMARK    5  A    between atoms: N_5  and  C_21 
REMARK    6  A    between atoms: C_6  and  C_7 
REMARK    7  A    between atoms: C_21  and  C_22 
REMARK    8  A    between atoms: C_22  and  N_23 
ROOT
HETATM    1  N   UNL     1      28.164  49.360  40.117  1.00  0.00    -0.352 N 
ENDROOT
BRANCH   1   2
HETATM    2  C   UNL     1      28.220  50.741  40.082  1.00  0.00     0.174 C 
HETATM    3  S   UNL     1      27.626  51.704  41.324  1.00  0.00    -0.041 SA
BRANCH   2   4
HETATM    4  N   UNL     1      28.988  51.372  39.153  1.00  0.00    -0.333 N 
HETATM    5  H   UNL     1      28.608  51.299  38.210  1.00  0.00     0.168 HD
BRANCH   4   6
HETATM    6  C   UNL     1      30.352  51.730  39.169  1.00  0.00     0.034 A 
HETATM    7  C   UNL     1      30.889  52.715  40.000  1.00  0.00     0.032 A 
HETATM    8  C   UNL     1      32.260  52.987  39.976  1.00  0.00     0.044 A 
HETATM    9  C   UNL     1      33.093  52.259  39.135  1.00  0.00     0.116 A 
HETATM   10  C   UNL     1      32.582  51.256  38.324  1.00  0.00     0.044 A 
HETATM   11  F   UNL     1      34.405  52.521  39.115  1.00  0.00    -0.206 F 
HETATM   12  C   UNL     1      31.213  50.984  38.349  1.00  0.00     0.032 A 
ENDBRANCH   4   6
ENDBRANCH   2   4
ENDBRANCH   1   2
BRANCH   1  13
HETATM   13  C   UNL     1      28.729  48.591  41.256  1.00  0.00     0.169 C 
BRANCH  13  14
HETATM   14  C   UNL     1      30.209  48.806  41.399  1.00  0.00     0.029 A 
HETATM   15  C   UNL     1      31.104  48.022  40.494  1.00  0.00     0.253 A 
HETATM   16  O   UNL     1      30.648  47.185  39.720  1.00  0.00    -0.268 OA
HETATM   17  N   UNL     1      32.447  48.270  40.562  1.00  0.00    -0.322 N 
HETATM   18  C   UNL     1      33.016  49.258  41.375  1.00  0.00     0.048 A 
HETATM   19  H   UNL     1      33.037  47.734  39.938  1.00  0.00     0.169 HD
HETATM   20  C   UNL     1      32.174  50.026  42.209  1.00  0.00    -0.006 A 
HETATM   21  C   UNL     1      34.393  49.486  41.324  1.00  0.00     0.070 A 
HETATM   22  C   UNL     1      32.715  51.046  42.998  1.00  0.00     0.053 A 
HETATM   23  C   UNL     1      30.734  49.757  42.195  1.00  0.00     0.028 A 
HETATM   24  C   UNL     1      34.076  51.265  42.917  1.00  0.00     0.106 A 
HETATM   25  C   UNL     1      34.889  50.507  42.107  1.00  0.00     0.107 A 
HETATM   26  O   UNL     1      34.766  52.226  43.588  1.00  0.00    -0.323 OA
HETATM   27  O   UNL     1      36.190  50.896  42.169  1.00  0.00    -0.323 OA
HETATM   28  C   UNL     1      36.101  52.012  43.081  1.00  0.00     0.352 A 
ENDBRANCH  13  14
ENDBRANCH   1  13
BRANCH   1  29
HETATM   29  C   UNL     1      27.687  48.569  38.956  1.00  0.00     0.153 C 
BRANCH  29  30
HETATM   30  C   UNL     1      26.626  47.497  39.283  1.00  0.00     0.254 C 
BRANCH  30  31
HETATM   31  N   UNL     1      25.228  47.933  38.877  1.00  0.00    -0.066 N 
HETATM   32  H   UNL     1      24.570  47.424  39.488  1.00  0.00     0.280 HD
HETATM   33  C   UNL     1      24.955  49.420  39.073  1.00  0.00     0.261 C 
HETATM   34  C   UNL     1      23.512  49.727  38.659  1.00  0.00     0.195 C 
HETATM   35  O   UNL     1      23.284  49.354  37.295  1.00  0.00    -0.388 OA
HETATM   36  C   UNL     1      23.478  47.950  37.091  1.00  0.00     0.195 C 
HETATM   37  C   UNL     1      24.912  47.537  37.440  1.00  0.00     0.261 C 
ENDBRANCH  30  31
ENDBRANCH  29  30
ENDBRANCH   1  29
TORSDOF 8
ENDMDL
MODEL 10
REMARK VINA RESULT:      -8.7     12.091     13.906
REMARK  8 active torsions:
REMARK  status: ('A' for Active; 'I' for Inactive)
REMARK    1  A    between atoms: C_2  and  N_3 
REMARK    2  A    between atoms: N_3  and  C_4 
REMARK    3  A    between atoms: C_4  and  N_5 
REMARK    4  A    between atoms: N_5  and  C_6 
REMARK    5  A    between atoms: N_5  and  C_21 
REMARK    6  A    between atoms: C_6  and  C_7 
REMARK    7  A    between atoms: C_21  and  C_22 
REMARK    8  A    between atoms: C_22  and  N_23 
ROOT
HETATM    1  N   UNL     1      27.215  48.421  39.523  1.00  0.00    -0.352 N 
ENDROOT
BRANCH   1   2
HETATM    2  C   UNL     1      28.164  47.421  39.414  1.00  0.00     0.174 C 
HETATM    3  S   UNL     1      28.551  46.696  37.949  1.00  0.00    -0.041 SA
BRANCH   2   4
HETATM    4  N   UNL     1      29.006  47.160  40.450  1.00  0.00    -0.333 N 
HETATM    5  H   UNL     1      28.628  46.478  41.105  1.00  0.00     0.168 HD
BRANCH   4   6
HETATM    6  C   UNL     1      30.064  47.918  40.995  1.00  0.00     0.034 A 
HETATM    7  C   UNL     1      29.920  48.792  42.075  1.00  0.00     0.032 A 
HETATM    8  C   UNL     1      31.028  49.482  42.576  1.00  0.00     0.044 A 
HETATM    9  C   UNL     1      32.279  49.282  42.007  1.00  0.00     0.116 A 
HETATM   10  C   UNL     1      32.447  48.396  40.953  1.00  0.00     0.044 A 
HETATM   11  F   UNL     1      33.339  49.943  42.489  1.00  0.00    -0.206 F 
HETATM   12  C   UNL     1      31.340  47.706  40.454  1.00  0.00     0.032 A 
ENDBRANCH   4   6
ENDBRANCH   2   4
ENDBRANCH   1   2
BRANCH   1  13
HETATM   13  C   UNL     1      27.285  49.650  38.692  1.00  0.00     0.169 C 
BRANCH  13  14
HETATM   14  C   UNL     1      28.470  50.501  39.048  1.00  0.00     0.029 A 
HETATM   15  C   UNL     1      28.311  51.447  40.196  1.00  0.00     0.253 A 
HETATM   16  O   UNL     1      27.233  51.571  40.771  1.00  0.00    -0.268 OA
HETATM   17  N   UNL     1      29.408  52.168  40.578  1.00  0.00    -0.322 N 
HETATM   18  C   UNL     1      30.677  52.019  40.005  1.00  0.00     0.048 A 
HETATM   19  H   UNL     1      29.283  52.799  41.360  1.00  0.00     0.169 HD
HETATM   20  C   UNL     1      30.843  51.103  38.942  1.00  0.00    -0.006 A 
HETATM   21  C   UNL     1      31.753  52.749  40.511  1.00  0.00     0.070 A 
HETATM   22  C   UNL     1      32.109  50.907  38.382  1.00  0.00     0.053 A 
HETATM   23  C   UNL     1      29.679  50.346  38.477  1.00  0.00     0.028 A 
HETATM   24  C   UNL     1      33.162  51.628  38.911  1.00  0.00     0.106 A 
HETATM   25  C   UNL     1      32.988  52.522  39.942  1.00  0.00     0.107 A 
HETATM   26  O   UNL     1      34.459  51.544  38.511  1.00  0.00    -0.323 OA
HETATM   27  O   UNL     1      34.154  53.112  40.316  1.00  0.00    -0.323 OA
HETATM   28  C   UNL     1      35.091  52.461  39.431  1.00  0.00     0.352 A 
ENDBRANCH  13  14
ENDBRANCH   1  13
BRANCH   1  29
HETATM   29  C   UNL     1      26.175  48.394  40.581  1.00  0.00     0.153 C 
BRANCH  29  30
HETATM   30  C   UNL     1      24.846  47.721  40.177  1.00  0.00     0.254 C 
BRANCH  30  31
HETATM   31  N   UNL     1      23.677  48.692  40.219  1.00  0.00    -0.066 N 
HETATM   32  H   UNL     1      23.821  49.293  41.045  1.00  0.00     0.280 HD
HETATM   33  C   UNL     1      23.588  49.617  39.009  1.00  0.00     0.261 C 
HETATM   34  C   UNL     1      22.394  50.562  39.183  1.00  0.00     0.195 C 
HETATM   35  O   UNL     1      21.178  49.822  39.335  1.00  0.00    -0.388 OA
HETATM   36  C   UNL     1      21.209  48.985  40.497  1.00  0.00     0.195 C 
HETATM   37  C   UNL     1      22.351  47.967  40.410  1.00  0.00     0.261 C 
ENDBRANCH  30  31
ENDBRANCH  29  30
ENDBRANCH   1  29
TORSDOF 8
ENDMDL
