MODEL 1
REMARK VINA RESULT:      -9.9      0.000      0.000
REMARK  5 active torsions:
REMARK  status: ('A' for Active; 'I' for Inactive)
REMARK    1  A    between atoms: C_4  and  C_5 
REMARK    2  A    between atoms: C_5  and  O_6 
REMARK    3  A    between atoms: O_6  and  C_7 
REMARK    4  A    between atoms: C_10  and  N_11 
REMARK       I    between atoms: N_11  and  C_12 
REMARK    5  A    between atoms: C_12  and  C_13 
ROOT
HETATM    1  N   UNL     1      24.526  46.649  50.998  1.00  0.00    -0.322 N 
HETATM    2  C   UNL     1      24.722  47.474  49.911  1.00  0.00     0.277 C 
HETATM    3  O   UNL     1      25.711  48.122  49.613  1.00  0.00    -0.266 OA
HETATM    4  H   UNL     1      23.681  46.086  50.957  1.00  0.00     0.169 HD
ENDROOT
BRANCH   1   5
HETATM    5  C   UNL     1      25.358  46.495  52.120  1.00  0.00     0.035 A 
HETATM    6  C   UNL     1      25.494  47.459  53.118  1.00  0.00     0.032 A 
HETATM    7  C   UNL     1      26.274  47.195  54.249  1.00  0.00     0.039 A 
HETATM    8  C   UNL     1      26.917  45.966  54.400  1.00  0.00     0.069 A 
HETATM    9  C   UNL     1      26.830  45.021  53.380  1.00  0.00     0.039 A 
HETATM   10  C   UNL     1      26.046  45.283  52.250  1.00  0.00     0.032 A 
BRANCH   8  11
HETATM   11  O   UNL     1      27.602  45.810  55.571  1.00  0.00    -0.347 OA
BRANCH  11  12
HETATM   12  C   UNL     1      28.938  46.320  55.594  1.00  0.00     0.214 C 
BRANCH  12  13
HETATM   13  C   UNL     1      29.875  45.276  56.163  1.00  0.00    -0.034 A 
HETATM   14  C   UNL     1      30.207  44.145  55.402  1.00  0.00     0.009 A 
HETATM   15  C   UNL     1      31.079  43.178  55.908  1.00  0.00     0.001 A 
HETATM   16  C   UNL     1      31.637  43.337  57.175  1.00  0.00     0.000 A 
HETATM   17  C   UNL     1      31.329  44.465  57.933  1.00  0.00     0.001 A 
HETATM   18  C   UNL     1      30.459  45.433  57.428  1.00  0.00     0.009 A 
ENDBRANCH  12  13
ENDBRANCH  11  12
ENDBRANCH   8  11
ENDBRANCH   1   5
BRANCH   2  19
HETATM   19  C   UNL     1      23.486  47.522  49.014  1.00  0.00     0.156 A 
HETATM   20  N   UNL     1      23.094  46.376  48.526  1.00  0.00    -0.166 NA
HETATM   21  N   UNL     1      21.985  46.365  47.736  1.00  0.00    -0.242 N 
HETATM   22  C   UNL     1      21.221  47.457  47.398  1.00  0.00     0.272 A 
HETATM   23  H   UNL     1      21.710  45.470  47.341  1.00  0.00     0.192 HD
HETATM   24  O   UNL     1      20.236  47.367  46.673  1.00  0.00    -0.266 OA
HETATM   25  C   UNL     1      21.641  48.747  47.970  1.00  0.00     0.046 A 
HETATM   26  C   UNL     1      22.771  48.796  48.785  1.00  0.00     0.016 A 
HETATM   27  C   UNL     1      20.898  49.905  47.708  1.00  0.00     0.018 A 
HETATM   28  C   UNL     1      23.150  50.016  49.357  1.00  0.00     0.015 A 
HETATM   29  C   UNL     1      22.410  51.174  49.096  1.00  0.00     0.001 A 
HETATM   30  C   UNL     1      21.286  51.120  48.272  1.00  0.00     0.001 A 
ENDBRANCH   2  19
TORSDOF 5
ENDMDL
MODEL 2
REMARK VINA RESULT:      -9.7      1.623      2.386
REMARK  5 active torsions:
REMARK  status: ('A' for Active; 'I' for Inactive)
REMARK    1  A    between atoms: C_4  and  C_5 
REMARK    2  A    between atoms: C_5  and  O_6 
REMARK    3  A    between atoms: O_6  and  C_7 
REMARK    4  A    between atoms: C_10  and  N_11 
REMARK       I    between atoms: N_11  and  C_12 
REMARK    5  A    between atoms: C_12  and  C_13 
ROOT
HETATM    1  N   UNL     1      24.324  47.199  50.886  1.00  0.00    -0.322 N 
HETATM    2  C   UNL     1      24.628  48.011  49.815  1.00  0.00     0.277 C 
HETATM    3  O   UNL     1      25.696  48.155  49.245  1.00  0.00    -0.266 OA
HETATM    4  H   UNL     1      23.332  47.120  51.092  1.00  0.00     0.169 HD
ENDROOT
BRANCH   1   5
HETATM    5  C   UNL     1      25.216  46.474  51.694  1.00  0.00     0.035 A 
HETATM    6  C   UNL     1      25.846  47.005  52.819  1.00  0.00     0.032 A 
HETATM    7  C   UNL     1      26.653  46.194  53.623  1.00  0.00     0.039 A 
HETATM    8  C   UNL     1      26.832  44.844  53.319  1.00  0.00     0.069 A 
HETATM    9  C   UNL     1      26.250  44.321  52.166  1.00  0.00     0.039 A 
HETATM   10  C   UNL     1      25.439  45.132  51.364  1.00  0.00     0.032 A 
BRANCH   8  11
HETATM   11  O   UNL     1      27.596  44.145  54.211  1.00  0.00    -0.347 OA
BRANCH  11  12
HETATM   12  C   UNL     1      29.004  44.130  53.959  1.00  0.00     0.214 C 
BRANCH  12  13
HETATM   13  C   UNL     1      29.760  44.272  55.262  1.00  0.00    -0.034 A 
HETATM   14  C   UNL     1      30.679  43.284  55.649  1.00  0.00     0.009 A 
HETATM   15  C   UNL     1      31.392  43.406  56.843  1.00  0.00     0.001 A 
HETATM   16  C   UNL     1      31.203  44.520  57.658  1.00  0.00     0.000 A 
HETATM   17  C   UNL     1      30.307  45.516  57.276  1.00  0.00     0.001 A 
HETATM   18  C   UNL     1      29.594  45.397  56.082  1.00  0.00     0.009 A 
ENDBRANCH  12  13
ENDBRANCH  11  12
ENDBRANCH   8  11
ENDBRANCH   1   5
BRANCH   2  19
HETATM   19  C   UNL     1      23.405  48.796  49.342  1.00  0.00     0.156 A 
HETATM   20  N   UNL     1      23.356  50.046  49.715  1.00  0.00    -0.166 NA
HETATM   21  N   UNL     1      22.295  50.794  49.301  1.00  0.00    -0.242 N 
HETATM   22  C   UNL     1      21.255  50.358  48.514  1.00  0.00     0.272 A 
HETATM   23  H   UNL     1      22.257  51.757  49.623  1.00  0.00     0.192 HD
HETATM   24  O   UNL     1      20.329  51.092  48.188  1.00  0.00    -0.266 OA
HETATM   25  C   UNL     1      21.322  48.957  48.066  1.00  0.00     0.046 A 
HETATM   26  C   UNL     1      22.394  48.162  48.469  1.00  0.00     0.016 A 
HETATM   27  C   UNL     1      20.324  48.440  47.231  1.00  0.00     0.018 A 
HETATM   28  C   UNL     1      22.475  46.840  48.014  1.00  0.00     0.015 A 
HETATM   29  C   UNL     1      21.479  46.323  47.181  1.00  0.00     0.001 A 
HETATM   30  C   UNL     1      20.404  47.120  46.790  1.00  0.00     0.001 A 
ENDBRANCH   2  19
TORSDOF 5
ENDMDL
MODEL 3
REMARK VINA RESULT:      -9.6      4.667     11.719
REMARK  5 active torsions:
REMARK  status: ('A' for Active; 'I' for Inactive)
REMARK    1  A    between atoms: C_4  and  C_5 
REMARK    2  A    between atoms: C_5  and  O_6 
REMARK    3  A    between atoms: O_6  and  C_7 
REMARK    4  A    between atoms: C_10  and  N_11 
REMARK       I    between atoms: N_11  and  C_12 
REMARK    5  A    between atoms: C_12  and  C_13 
ROOT
HETATM    1  N   UNL     1      21.998  49.606  49.540  1.00  0.00    -0.322 N 
HETATM    2  C   UNL     1      22.537  48.751  48.603  1.00  0.00     0.277 C 
HETATM    3  O   UNL     1      22.192  48.567  47.448  1.00  0.00    -0.266 OA
HETATM    4  H   UNL     1      22.548  49.710  50.388  1.00  0.00     0.169 HD
ENDROOT
BRANCH   1   5
HETATM    5  C   UNL     1      20.805  50.342  49.443  1.00  0.00     0.035 A 
HETATM    6  C   UNL     1      19.675  50.087  50.219  1.00  0.00     0.032 A 
HETATM    7  C   UNL     1      18.555  50.921  50.128  1.00  0.00     0.039 A 
HETATM    8  C   UNL     1      18.555  52.021  49.269  1.00  0.00     0.069 A 
HETATM    9  C   UNL     1      19.660  52.248  48.451  1.00  0.00     0.039 A 
HETATM   10  C   UNL     1      20.782  51.417  48.546  1.00  0.00     0.032 A 
BRANCH   8  11
HETATM   11  O   UNL     1      17.426  52.789  49.311  1.00  0.00    -0.347 OA
BRANCH  11  12
HETATM   12  C   UNL     1      16.285  52.199  49.939  1.00  0.00     0.214 C 
BRANCH  12  13
HETATM   13  C   UNL     1      15.050  53.018  49.633  1.00  0.00    -0.034 A 
HETATM   14  C   UNL     1      14.091  53.240  50.633  1.00  0.00     0.009 A 
HETATM   15  C   UNL     1      12.952  54.003  50.370  1.00  0.00     0.001 A 
HETATM   16  C   UNL     1      12.763  54.562  49.108  1.00  0.00     0.000 A 
HETATM   17  C   UNL     1      13.717  54.365  48.111  1.00  0.00     0.001 A 
HETATM   18  C   UNL     1      14.857  53.604  48.373  1.00  0.00     0.009 A 
ENDBRANCH  12  13
ENDBRANCH  11  12
ENDBRANCH   8  11
ENDBRANCH   1   5
BRANCH   2  19
HETATM   19  C   UNL     1      23.723  47.972  49.172  1.00  0.00     0.156 A 
HETATM   20  N   UNL     1      23.443  46.798  49.670  1.00  0.00    -0.166 NA
HETATM   21  N   UNL     1      24.471  46.057  50.171  1.00  0.00    -0.242 N 
HETATM   22  C   UNL     1      25.794  46.425  50.202  1.00  0.00     0.272 A 
HETATM   23  H   UNL     1      24.232  45.158  50.581  1.00  0.00     0.192 HD
HETATM   24  O   UNL     1      26.663  45.703  50.678  1.00  0.00    -0.266 OA
HETATM   25  C   UNL     1      26.119  47.735  49.614  1.00  0.00     0.046 A 
HETATM   26  C   UNL     1      25.094  48.521  49.090  1.00  0.00     0.016 A 
HETATM   27  C   UNL     1      27.449  48.174  49.569  1.00  0.00     0.018 A 
HETATM   28  C   UNL     1      25.407  49.751  48.500  1.00  0.00     0.015 A 
HETATM   29  C   UNL     1      26.734  50.191  48.455  1.00  0.00     0.001 A 
HETATM   30  C   UNL     1      27.753  49.404  48.990  1.00  0.00     0.001 A 
ENDBRANCH   2  19
TORSDOF 5
ENDMDL
MODEL 4
REMARK VINA RESULT:      -9.6      2.319     10.273
REMARK  5 active torsions:
REMARK  status: ('A' for Active; 'I' for Inactive)
REMARK    1  A    between atoms: C_4  and  C_5 
REMARK    2  A    between atoms: C_5  and  O_6 
REMARK    3  A    between atoms: O_6  and  C_7 
REMARK    4  A    between atoms: C_10  and  N_11 
REMARK       I    between atoms: N_11  and  C_12 
REMARK    5  A    between atoms: C_12  and  C_13 
ROOT
HETATM    1  N   UNL     1      25.935  45.955  51.660  1.00  0.00    -0.322 N 
HETATM    2  C   UNL     1      25.723  45.166  52.770  1.00  0.00     0.277 C 
HETATM    3  O   UNL     1      24.745  44.495  53.053  1.00  0.00    -0.266 OA
HETATM    4  H   UNL     1      26.887  46.295  51.557  1.00  0.00     0.169 HD
ENDROOT
BRANCH   1   5
HETATM    5  C   UNL     1      25.004  46.316  50.672  1.00  0.00     0.035 A 
HETATM    6  C   UNL     1      24.235  45.395  49.962  1.00  0.00     0.032 A 
HETATM    7  C   UNL     1      23.264  45.838  49.057  1.00  0.00     0.039 A 
HETATM    8  C   UNL     1      23.046  47.201  48.858  1.00  0.00     0.069 A 
HETATM    9  C   UNL     1      23.849  48.125  49.523  1.00  0.00     0.039 A 
HETATM   10  C   UNL     1      24.816  47.683  50.433  1.00  0.00     0.032 A 
BRANCH   8  11
HETATM   11  O   UNL     1      22.035  47.506  47.991  1.00  0.00    -0.347 OA
BRANCH  11  12
HETATM   12  C   UNL     1      20.719  47.555  48.548  1.00  0.00     0.214 C 
BRANCH  12  13
HETATM   13  C   UNL     1      20.343  48.989  48.850  1.00  0.00    -0.034 A 
HETATM   14  C   UNL     1      19.465  49.274  49.908  1.00  0.00     0.009 A 
HETATM   15  C   UNL     1      19.117  50.593  50.207  1.00  0.00     0.001 A 
HETATM   16  C   UNL     1      19.649  51.642  49.459  1.00  0.00     0.000 A 
HETATM   17  C   UNL     1      20.535  51.373  48.418  1.00  0.00     0.001 A 
HETATM   18  C   UNL     1      20.886  50.055  48.119  1.00  0.00     0.009 A 
ENDBRANCH  12  13
ENDBRANCH  11  12
ENDBRANCH   8  11
ENDBRANCH   1   5
BRANCH   2  19
HETATM   19  C   UNL     1      26.922  45.194  53.716  1.00  0.00     0.156 A 
HETATM   20  N   UNL     1      26.861  46.067  54.684  1.00  0.00    -0.166 NA
HETATM   21  N   UNL     1      27.898  46.116  55.566  1.00  0.00    -0.242 N 
HETATM   22  C   UNL     1      29.020  45.322  55.541  1.00  0.00     0.272 A 
HETATM   23  H   UNL     1      27.848  46.820  56.296  1.00  0.00     0.192 HD
HETATM   24  O   UNL     1      29.917  45.432  56.369  1.00  0.00    -0.266 OA
HETATM   25  C   UNL     1      29.080  44.315  54.468  1.00  0.00     0.046 A 
HETATM   26  C   UNL     1      28.036  44.235  53.548  1.00  0.00     0.016 A 
HETATM   27  C   UNL     1      30.170  43.439  54.390  1.00  0.00     0.018 A 
HETATM   28  C   UNL     1      28.076  43.254  52.550  1.00  0.00     0.015 A 
HETATM   29  C   UNL     1      29.164  42.379  52.470  1.00  0.00     0.001 A 
HETATM   30  C   UNL     1      30.210  42.471  53.387  1.00  0.00     0.001 A 
ENDBRANCH   2  19
TORSDOF 5
ENDMDL
MODEL 5
REMARK VINA RESULT:      -9.5      2.410     10.041
REMARK  5 active torsions:
REMARK  status: ('A' for Active; 'I' for Inactive)
REMARK    1  A    between atoms: C_4  and  C_5 
REMARK    2  A    between atoms: C_5  and  O_6 
REMARK    3  A    between atoms: O_6  and  C_7 
REMARK    4  A    between atoms: C_10  and  N_11 
REMARK       I    between atoms: N_11  and  C_12 
REMARK    5  A    between atoms: C_12  and  C_13 
ROOT
HETATM    1  N   UNL     1      25.629  45.367  50.888  1.00  0.00    -0.322 N 
HETATM    2  C   UNL     1      25.374  44.685  52.058  1.00  0.00     0.277 C 
HETATM    3  O   UNL     1      24.300  44.443  52.583  1.00  0.00    -0.266 OA
HETATM    4  H   UNL     1      26.590  45.308  50.563  1.00  0.00     0.169 HD
ENDROOT
BRANCH   1   5
HETATM    5  C   UNL     1      24.721  46.103  50.109  1.00  0.00     0.035 A 
HETATM    6  C   UNL     1      23.732  45.520  49.317  1.00  0.00     0.032 A 
HETATM    7  C   UNL     1      22.809  46.323  48.639  1.00  0.00     0.039 A 
HETATM    8  C   UNL     1      22.857  47.712  48.750  1.00  0.00     0.069 A 
HETATM    9  C   UNL     1      23.876  48.302  49.494  1.00  0.00     0.039 A 
HETATM   10  C   UNL     1      24.797  47.499  50.177  1.00  0.00     0.032 A 
BRANCH   8  11
HETATM   11  O   UNL     1      21.869  48.382  48.085  1.00  0.00    -0.347 OA
BRANCH  11  12
HETATM   12  C   UNL     1      21.973  49.808  48.070  1.00  0.00     0.214 C 
BRANCH  12  13
HETATM   13  C   UNL     1      20.748  50.418  48.715  1.00  0.00    -0.034 A 
HETATM   14  C   UNL     1      20.268  51.660  48.271  1.00  0.00     0.009 A 
HETATM   15  C   UNL     1      19.133  52.232  48.849  1.00  0.00     0.001 A 
HETATM   16  C   UNL     1      18.457  51.564  49.868  1.00  0.00     0.000 A 
HETATM   17  C   UNL     1      18.912  50.322  50.305  1.00  0.00     0.001 A 
HETATM   18  C   UNL     1      20.047  49.748  49.728  1.00  0.00     0.009 A 
ENDBRANCH  12  13
ENDBRANCH  11  12
ENDBRANCH   8  11
ENDBRANCH   1   5
BRANCH   2  19
HETATM   19  C   UNL     1      26.665  44.201  52.718  1.00  0.00     0.156 A 
HETATM   20  N   UNL     1      27.145  43.074  52.267  1.00  0.00    -0.166 NA
HETATM   21  N   UNL     1      28.305  42.612  52.811  1.00  0.00    -0.242 N 
HETATM   22  C   UNL     1      29.036  43.225  53.800  1.00  0.00     0.272 A 
HETATM   23  H   UNL     1      28.650  41.720  52.469  1.00  0.00     0.192 HD
HETATM   24  O   UNL     1      30.071  42.741  54.244  1.00  0.00    -0.266 OA
HETATM   25  C   UNL     1      28.514  44.512  54.291  1.00  0.00     0.046 A 
HETATM   26  C   UNL     1      27.330  45.017  53.757  1.00  0.00     0.016 A 
HETATM   27  C   UNL     1      29.216  45.224  55.273  1.00  0.00     0.018 A 
HETATM   28  C   UNL     1      26.853  46.256  54.199  1.00  0.00     0.015 A 
HETATM   29  C   UNL     1      27.552  46.968  55.180  1.00  0.00     0.001 A 
HETATM   30  C   UNL     1      28.730  46.453  55.717  1.00  0.00     0.001 A 
ENDBRANCH   2  19
TORSDOF 5
ENDMDL
MODEL 6
REMARK VINA RESULT:      -9.5      2.802     10.033
REMARK  5 active torsions:
REMARK  status: ('A' for Active; 'I' for Inactive)
REMARK    1  A    between atoms: C_4  and  C_5 
REMARK    2  A    between atoms: C_5  and  O_6 
REMARK    3  A    between atoms: O_6  and  C_7 
REMARK    4  A    between atoms: C_10  and  N_11 
REMARK       I    between atoms: N_11  and  C_12 
REMARK    5  A    between atoms: C_12  and  C_13 
ROOT
HETATM    1  N   UNL     1      25.290  44.915  50.501  1.00  0.00    -0.322 N 
HETATM    2  C   UNL     1      25.151  44.311  51.732  1.00  0.00     0.277 C 
HETATM    3  O   UNL     1      24.280  44.477  52.570  1.00  0.00    -0.266 OA
HETATM    4  H   UNL     1      26.003  44.504  49.905  1.00  0.00     0.169 HD
ENDROOT
BRANCH   1   5
HETATM    5  C   UNL     1      24.559  46.000  49.990  1.00  0.00     0.035 A 
HETATM    6  C   UNL     1      24.899  47.334  50.214  1.00  0.00     0.032 A 
HETATM    7  C   UNL     1      24.173  48.358  49.597  1.00  0.00     0.039 A 
HETATM    8  C   UNL     1      23.108  48.063  48.746  1.00  0.00     0.069 A 
HETATM    9  C   UNL     1      22.729  46.735  48.563  1.00  0.00     0.039 A 
HETATM   10  C   UNL     1      23.458  45.709  49.176  1.00  0.00     0.032 A 
BRANCH   8  11
HETATM   11  O   UNL     1      22.514  49.146  48.163  1.00  0.00    -0.347 OA
BRANCH  11  12
HETATM   12  C   UNL     1      22.455  50.336  48.953  1.00  0.00     0.214 C 
BRANCH  12  13
HETATM   13  C   UNL     1      21.012  50.718  49.200  1.00  0.00    -0.034 A 
HETATM   14  C   UNL     1      20.443  51.791  48.499  1.00  0.00     0.009 A 
HETATM   15  C   UNL     1      19.109  52.149  48.707  1.00  0.00     0.001 A 
HETATM   16  C   UNL     1      18.327  51.432  49.610  1.00  0.00     0.000 A 
HETATM   17  C   UNL     1      18.876  50.352  50.299  1.00  0.00     0.001 A 
HETATM   18  C   UNL     1      20.208  49.992  50.091  1.00  0.00     0.009 A 
ENDBRANCH  12  13
ENDBRANCH  11  12
ENDBRANCH   8  11
ENDBRANCH   1   5
BRANCH   2  19
HETATM   19  C   UNL     1      26.278  43.314  51.999  1.00  0.00     0.156 A 
HETATM   20  N   UNL     1      26.262  42.231  51.270  1.00  0.00    -0.166 NA
HETATM   21  N   UNL     1      27.258  41.321  51.458  1.00  0.00    -0.242 N 
HETATM   22  C   UNL     1      28.298  41.432  52.349  1.00  0.00     0.272 A 
HETATM   23  H   UNL     1      27.215  40.471  50.903  1.00  0.00     0.192 HD
HETATM   24  O   UNL     1      29.156  40.564  52.465  1.00  0.00    -0.266 OA
HETATM   25  C   UNL     1      28.338  42.666  53.152  1.00  0.00     0.046 A 
HETATM   26  C   UNL     1      27.336  43.620  52.987  1.00  0.00     0.016 A 
HETATM   27  C   UNL     1      29.384  42.879  54.059  1.00  0.00     0.018 A 
HETATM   28  C   UNL     1      27.392  44.809  53.725  1.00  0.00     0.015 A 
HETATM   29  C   UNL     1      28.436  45.022  54.631  1.00  0.00     0.001 A 
HETATM   30  C   UNL     1      29.430  44.059  54.800  1.00  0.00     0.001 A 
ENDBRANCH   2  19
TORSDOF 5
ENDMDL
MODEL 7
REMARK VINA RESULT:      -9.4      4.662     11.177
REMARK  5 active torsions:
REMARK  status: ('A' for Active; 'I' for Inactive)
REMARK    1  A    between atoms: C_4  and  C_5 
REMARK    2  A    between atoms: C_5  and  O_6 
REMARK    3  A    between atoms: O_6  and  C_7 
REMARK    4  A    between atoms: C_10  and  N_11 
REMARK       I    between atoms: N_11  and  C_12 
REMARK    5  A    between atoms: C_12  and  C_13 
ROOT
HETATM    1  N   UNL     1      22.022  49.562  49.585  1.00  0.00    -0.322 N 
HETATM    2  C   UNL     1      22.565  48.728  48.632  1.00  0.00     0.277 C 
HETATM    3  O   UNL     1      22.216  48.560  47.476  1.00  0.00    -0.266 OA
HETATM    4  H   UNL     1      22.574  49.656  50.433  1.00  0.00     0.169 HD
ENDROOT
BRANCH   1   5
HETATM    5  C   UNL     1      20.823  50.290  49.505  1.00  0.00     0.035 A 
HETATM    6  C   UNL     1      19.709  50.034  50.303  1.00  0.00     0.032 A 
HETATM    7  C   UNL     1      18.582  50.860  50.226  1.00  0.00     0.039 A 
HETATM    8  C   UNL     1      18.560  51.953  49.360  1.00  0.00     0.069 A 
HETATM    9  C   UNL     1      19.648  52.181  48.520  1.00  0.00     0.039 A 
HETATM   10  C   UNL     1      20.777  51.358  48.600  1.00  0.00     0.032 A 
BRANCH   8  11
HETATM   11  O   UNL     1      17.427  52.715  49.416  1.00  0.00    -0.347 OA
BRANCH  11  12
HETATM   12  C   UNL     1      16.196  52.004  49.572  1.00  0.00     0.214 C 
BRANCH  12  13
HETATM   13  C   UNL     1      15.770  51.418  48.243  1.00  0.00    -0.034 A 
HETATM   14  C   UNL     1      15.603  50.030  48.112  1.00  0.00     0.009 A 
HETATM   15  C   UNL     1      15.200  49.475  46.896  1.00  0.00     0.001 A 
HETATM   16  C   UNL     1      14.951  50.299  45.801  1.00  0.00     0.000 A 
HETATM   17  C   UNL     1      15.096  51.680  45.923  1.00  0.00     0.001 A 
HETATM   18  C   UNL     1      15.496  52.237  47.139  1.00  0.00     0.009 A 
ENDBRANCH  12  13
ENDBRANCH  11  12
ENDBRANCH   8  11
ENDBRANCH   1   5
BRANCH   2  19
HETATM   19  C   UNL     1      23.759  47.948  49.184  1.00  0.00     0.156 A 
HETATM   20  N   UNL     1      23.488  46.769  49.673  1.00  0.00    -0.166 NA
HETATM   21  N   UNL     1      24.523  46.027  50.158  1.00  0.00    -0.242 N 
HETATM   22  C   UNL     1      25.845  46.401  50.182  1.00  0.00     0.272 A 
HETATM   23  H   UNL     1      24.292  45.124  50.561  1.00  0.00     0.192 HD
HETATM   24  O   UNL     1      26.721  45.678  50.644  1.00  0.00    -0.266 OA
HETATM   25  C   UNL     1      26.159  47.718  49.604  1.00  0.00     0.046 A 
HETATM   26  C   UNL     1      25.126  48.504  49.096  1.00  0.00     0.016 A 
HETATM   27  C   UNL     1      27.486  48.163  49.552  1.00  0.00     0.018 A 
HETATM   28  C   UNL     1      25.429  49.741  48.515  1.00  0.00     0.015 A 
HETATM   29  C   UNL     1      26.753  50.187  48.463  1.00  0.00     0.001 A 
HETATM   30  C   UNL     1      27.781  49.401  48.982  1.00  0.00     0.001 A 
ENDBRANCH   2  19
TORSDOF 5
ENDMDL
MODEL 8
REMARK VINA RESULT:      -9.2      2.384      3.484
REMARK  5 active torsions:
REMARK  status: ('A' for Active; 'I' for Inactive)
REMARK    1  A    between atoms: C_4  and  C_5 
REMARK    2  A    between atoms: C_5  and  O_6 
REMARK    3  A    between atoms: O_6  and  C_7 
REMARK    4  A    between atoms: C_10  and  N_11 
REMARK       I    between atoms: N_11  and  C_12 
REMARK    5  A    between atoms: C_12  and  C_13 
ROOT
HETATM    1  N   UNL     1      22.595  46.523  49.270  1.00  0.00    -0.322 N 
HETATM    2  C   UNL     1      22.203  47.548  48.437  1.00  0.00     0.277 C 
HETATM    3  O   UNL     1      22.880  48.208  47.667  1.00  0.00    -0.266 OA
HETATM    4  H   UNL     1      21.831  46.011  49.703  1.00  0.00     0.169 HD
ENDROOT
BRANCH   1   5
HETATM    5  C   UNL     1      23.905  46.109  49.564  1.00  0.00     0.035 A 
HETATM    6  C   UNL     1      24.778  46.830  50.377  1.00  0.00     0.032 A 
HETATM    7  C   UNL     1      26.037  46.309  50.695  1.00  0.00     0.039 A 
HETATM    8  C   UNL     1      26.432  45.061  50.213  1.00  0.00     0.069 A 
HETATM    9  C   UNL     1      25.586  44.361  49.356  1.00  0.00     0.039 A 
HETATM   10  C   UNL     1      24.325  44.880  49.041  1.00  0.00     0.032 A 
BRANCH   8  11
HETATM   11  O   UNL     1      27.660  44.638  50.638  1.00  0.00    -0.347 OA
BRANCH  11  12
HETATM   12  C   UNL     1      27.690  43.390  51.337  1.00  0.00     0.214 C 
BRANCH  12  13
HETATM   13  C   UNL     1      28.454  43.547  52.633  1.00  0.00    -0.034 A 
HETATM   14  C   UNL     1      29.653  42.844  52.828  1.00  0.00     0.009 A 
HETATM   15  C   UNL     1      30.376  42.985  54.015  1.00  0.00     0.001 A 
HETATM   16  C   UNL     1      29.915  43.839  55.015  1.00  0.00     0.000 A 
HETATM   17  C   UNL     1      28.735  44.557  54.826  1.00  0.00     0.001 A 
HETATM   18  C   UNL     1      28.012  44.417  53.640  1.00  0.00     0.009 A 
ENDBRANCH  12  13
ENDBRANCH  11  12
ENDBRANCH   8  11
ENDBRANCH   1   5
BRANCH   2  19
HETATM   19  C   UNL     1      20.705  47.827  48.556  1.00  0.00     0.156 A 
HETATM   20  N   UNL     1      19.939  46.775  48.666  1.00  0.00    -0.166 NA
HETATM   21  N   UNL     1      18.598  46.973  48.796  1.00  0.00    -0.242 N 
HETATM   22  C   UNL     1      17.959  48.189  48.827  1.00  0.00     0.272 A 
HETATM   23  H   UNL     1      18.014  46.143  48.851  1.00  0.00     0.192 HD
HETATM   24  O   UNL     1      16.742  48.286  48.939  1.00  0.00    -0.266 OA
HETATM   25  C   UNL     1      18.821  49.379  48.733  1.00  0.00     0.046 A 
HETATM   26  C   UNL     1      20.198  49.215  48.601  1.00  0.00     0.016 A 
HETATM   27  C   UNL     1      18.256  50.660  48.794  1.00  0.00     0.018 A 
HETATM   28  C   UNL     1      21.021  50.347  48.548  1.00  0.00     0.015 A 
HETATM   29  C   UNL     1      20.459  51.626  48.607  1.00  0.00     0.001 A 
HETATM   30  C   UNL     1      19.079  51.783  48.729  1.00  0.00     0.001 A 
ENDBRANCH   2  19
TORSDOF 5
ENDMDL
MODEL 9
REMARK VINA RESULT:      -9.0      1.981      2.604
REMARK  5 active torsions:
REMARK  status: ('A' for Active; 'I' for Inactive)
REMARK    1  A    between atoms: C_4  and  C_5 
REMARK    2  A    between atoms: C_5  and  O_6 
REMARK    3  A    between atoms: O_6  and  C_7 
REMARK    4  A    between atoms: C_10  and  N_11 
REMARK       I    between atoms: N_11  and  C_12 
REMARK    5  A    between atoms: C_12  and  C_13 
ROOT
HETATM    1  N   UNL     1      23.131  45.039  50.294  1.00  0.00    -0.322 N 
HETATM    2  C   UNL     1      22.876  45.021  48.940  1.00  0.00     0.277 C 
HETATM    3  O   UNL     1      23.619  44.699  48.028  1.00  0.00    -0.266 OA
HETATM    4  H   UNL     1      22.313  45.189  50.879  1.00  0.00     0.169 HD
ENDROOT
BRANCH   1   5
HETATM    5  C   UNL     1      24.367  44.862  50.938  1.00  0.00     0.035 A 
HETATM    6  C   UNL     1      25.150  45.915  51.409  1.00  0.00     0.032 A 
HETATM    7  C   UNL     1      26.327  45.654  52.118  1.00  0.00     0.039 A 
HETATM    8  C   UNL     1      26.730  44.343  52.371  1.00  0.00     0.069 A 
HETATM    9  C   UNL     1      25.981  43.288  51.855  1.00  0.00     0.039 A 
HETATM   10  C   UNL     1      24.800  43.548  51.150  1.00  0.00     0.032 A 
BRANCH   8  11
HETATM   11  O   UNL     1      27.866  44.219  53.120  1.00  0.00    -0.347 OA
BRANCH  11  12
HETATM   12  C   UNL     1      28.055  45.197  54.147  1.00  0.00     0.214 C 
BRANCH  12  13
HETATM   13  C   UNL     1      29.178  44.767  55.065  1.00  0.00    -0.034 A 
HETATM   14  C   UNL     1      29.524  45.562  56.168  1.00  0.00     0.009 A 
HETATM   15  C   UNL     1      30.552  45.174  57.030  1.00  0.00     0.001 A 
HETATM   16  C   UNL     1      31.236  43.981  56.807  1.00  0.00     0.000 A 
HETATM   17  C   UNL     1      30.890  43.173  55.726  1.00  0.00     0.001 A 
HETATM   18  C   UNL     1      29.862  43.559  54.864  1.00  0.00     0.009 A 
ENDBRANCH  12  13
ENDBRANCH  11  12
ENDBRANCH   8  11
ENDBRANCH   1   5
BRANCH   2  19
HETATM   19  C   UNL     1      21.450  45.475  48.631  1.00  0.00     0.156 A 
HETATM   20  N   UNL     1      20.523  44.567  48.769  1.00  0.00    -0.166 NA
HETATM   21  N   UNL     1      19.233  44.930  48.524  1.00  0.00    -0.242 N 
HETATM   22  C   UNL     1      18.802  46.179  48.144  1.00  0.00     0.272 A 
HETATM   23  H   UNL     1      18.527  44.204  48.608  1.00  0.00     0.192 HD
HETATM   24  O   UNL     1      17.619  46.427  47.934  1.00  0.00    -0.266 OA
HETATM   25  C   UNL     1      19.841  47.214  48.016  1.00  0.00     0.046 A 
HETATM   26  C   UNL     1      21.171  46.880  48.260  1.00  0.00     0.016 A 
HETATM   27  C   UNL     1      19.486  48.524  47.668  1.00  0.00     0.018 A 
HETATM   28  C   UNL     1      22.154  47.872  48.173  1.00  0.00     0.015 A 
HETATM   29  C   UNL     1      21.802  49.181  47.825  1.00  0.00     0.001 A 
HETATM   30  C   UNL     1      20.470  49.506  47.572  1.00  0.00     0.001 A 
ENDBRANCH   2  19
TORSDOF 5
ENDMDL
MODEL 10
REMARK VINA RESULT:      -8.7      2.842     10.539
REMARK  5 active torsions:
REMARK  status: ('A' for Active; 'I' for Inactive)
REMARK    1  A    between atoms: C_4  and  C_5 
REMARK    2  A    between atoms: C_5  and  O_6 
REMARK    3  A    between atoms: O_6  and  C_7 
REMARK    4  A    between atoms: C_10  and  N_11 
REMARK       I    between atoms: N_11  and  C_12 
REMARK    5  A    between atoms: C_12  and  C_13 
ROOT
HETATM    1  N   UNL     1      23.765  47.685  49.894  1.00  0.00    -0.322 N 
HETATM    2  C   UNL     1      25.140  47.777  49.897  1.00  0.00     0.277 C 
HETATM    3  O   UNL     1      25.842  48.730  49.602  1.00  0.00    -0.266 OA
HETATM    4  H   UNL     1      23.394  46.845  50.330  1.00  0.00     0.169 HD
ENDROOT
BRANCH   1   5
HETATM    5  C   UNL     1      22.844  48.612  49.377  1.00  0.00     0.035 A 
HETATM    6  C   UNL     1      23.093  49.981  49.289  1.00  0.00     0.032 A 
HETATM    7  C   UNL     1      22.160  50.828  48.681  1.00  0.00     0.039 A 
HETATM    8  C   UNL     1      20.977  50.318  48.148  1.00  0.00     0.069 A 
HETATM    9  C   UNL     1      20.698  48.959  48.282  1.00  0.00     0.039 A 
HETATM   10  C   UNL     1      21.633  48.110  48.886  1.00  0.00     0.032 A 
BRANCH   8  11
HETATM   11  O   UNL     1      20.175  51.237  47.532  1.00  0.00    -0.347 OA
BRANCH  11  12
HETATM   12  C   UNL     1      18.875  50.782  47.147  1.00  0.00     0.214 C 
BRANCH  12  13
HETATM   13  C   UNL     1      17.831  51.368  48.071  1.00  0.00    -0.034 A 
HETATM   14  C   UNL     1      16.526  50.850  48.072  1.00  0.00     0.009 A 
HETATM   15  C   UNL     1      15.554  51.373  48.927  1.00  0.00     0.001 A 
HETATM   16  C   UNL     1      15.877  52.411  49.799  1.00  0.00     0.000 A 
HETATM   17  C   UNL     1      17.173  52.922  49.820  1.00  0.00     0.001 A 
HETATM   18  C   UNL     1      18.147  52.400  48.967  1.00  0.00     0.009 A 
ENDBRANCH  12  13
ENDBRANCH  11  12
ENDBRANCH   8  11
ENDBRANCH   1   5
BRANCH   2  19
HETATM   19  C   UNL     1      25.789  46.468  50.345  1.00  0.00     0.156 A 
HETATM   20  N   UNL     1      26.133  45.649  49.388  1.00  0.00    -0.166 NA
HETATM   21  N   UNL     1      26.734  44.478  49.737  1.00  0.00    -0.242 N 
HETATM   22  C   UNL     1      27.023  44.065  51.016  1.00  0.00     0.272 A 
HETATM   23  H   UNL     1      26.969  43.839  48.982  1.00  0.00     0.192 HD
HETATM   24  O   UNL     1      27.561  42.989  51.250  1.00  0.00    -0.266 OA
HETATM   25  C   UNL     1      26.664  44.999  52.096  1.00  0.00     0.046 A 
HETATM   26  C   UNL     1      26.049  46.208  51.778  1.00  0.00     0.016 A 
HETATM   27  C   UNL     1      26.957  44.675  53.428  1.00  0.00     0.018 A 
HETATM   28  C   UNL     1      25.740  47.111  52.802  1.00  0.00     0.015 A 
HETATM   29  C   UNL     1      26.031  46.789  54.132  1.00  0.00     0.001 A 
HETATM   30  C   UNL     1      26.637  45.573  54.445  1.00  0.00     0.001 A 
ENDBRANCH   2  19
TORSDOF 5
ENDMDL
