MODEL 1
REMARK VINA RESULT:      -8.6      0.000      0.000
REMARK  6 active torsions:
REMARK  status: ('A' for Active; 'I' for Inactive)
REMARK    1  A    between atoms: C_6  and  C_7 
REMARK    2  A    between atoms: C_10  and  C_11 
REMARK       I    between atoms: C_11  and  N_12 
REMARK    3  A    between atoms: N_12  and  C_13 
REMARK    4  A    between atoms: C_13  and  C_14 
REMARK    5  A    between atoms: C_17  and  C_18 
REMARK       I    between atoms: C_18  and  N_19 
REMARK    6  A    between atoms: N_19  and  C_20 
ROOT
HETATM    1  C   UNL     1      26.616  44.750  53.303  1.00  0.00     0.256 C 
HETATM    2  N   UNL     1      26.872  44.907  51.960  1.00  0.00    -0.353 N 
HETATM    3  O   UNL     1      25.576  44.239  53.709  1.00  0.00    -0.268 OA
HETATM    4  H   UNL     1      27.604  45.546  51.688  1.00  0.00     0.163 HD
ENDROOT
BRANCH   2   5
HETATM    5  C   UNL     1      25.854  44.594  50.989  1.00  0.00     0.161 C 
BRANCH   5   6
HETATM    6  C   UNL     1      25.334  45.835  50.312  1.00  0.00    -0.040 A 
HETATM    7  C   UNL     1      24.031  45.853  49.791  1.00  0.00     0.010 A 
HETATM    8  C   UNL     1      23.520  47.011  49.200  1.00  0.00     0.017 A 
HETATM    9  C   UNL     1      24.306  48.167  49.127  1.00  0.00     0.032 A 
HETATM   10  C   UNL     1      25.623  48.142  49.600  1.00  0.00     0.017 A 
HETATM   11  C   UNL     1      26.133  46.980  50.189  1.00  0.00     0.010 A 
BRANCH   9  12
HETATM   12  C   UNL     1      23.705  49.393  48.535  1.00  0.00     0.252 C 
HETATM   13  N   UNL     1      22.571  49.871  49.167  1.00  0.00    -0.352 N 
HETATM   14  H   UNL     1      22.145  49.312  49.894  1.00  0.00     0.163 HD
HETATM   15  O   UNL     1      24.194  49.888  47.526  1.00  0.00    -0.268 OA
BRANCH  13  16
HETATM   16  C   UNL     1      21.823  50.973  48.648  1.00  0.00     0.084 A 
HETATM   17  C   UNL     1      20.593  50.732  47.819  1.00  0.00     0.027 A 
HETATM   18  C   UNL     1      20.464  51.305  49.200  1.00  0.00     0.027 A 
ENDBRANCH  13  16
ENDBRANCH   9  12
ENDBRANCH   5   6
ENDBRANCH   2   5
BRANCH   1  19
HETATM   19  C   UNL     1      27.621  45.285  54.218  1.00  0.00     0.082 A 
HETATM   20  C   UNL     1      27.563  46.569  54.842  1.00  0.00     0.068 A 
HETATM   21  C   UNL     1      26.505  47.605  54.712  1.00  0.00     0.073 C 
HETATM   22  N   UNL     1      28.633  46.805  55.608  1.00  0.00    -0.179 NA
HETATM   23  N   UNL     1      29.354  45.686  55.511  1.00  0.00    -0.281 N 
HETATM   24  H   UNL     1      30.219  45.636  56.037  1.00  0.00     0.189 HD
HETATM   25  C   UNL     1      28.794  44.719  54.713  1.00  0.00     0.049 A 
BRANCH  25  26
HETATM   26  C   UNL     1      29.448  43.374  54.553  1.00  0.00     0.030 C 
HETATM   27  C   UNL     1      29.902  43.166  53.106  1.00  0.00     0.016 C 
HETATM   28  C   UNL     1      30.627  43.185  55.514  1.00  0.00     0.016 C 
ENDBRANCH  25  26
ENDBRANCH   1  19
TORSDOF 6
ENDMDL
MODEL 2
REMARK VINA RESULT:      -8.4      2.108      8.892
REMARK  6 active torsions:
REMARK  status: ('A' for Active; 'I' for Inactive)
REMARK    1  A    between atoms: C_6  and  C_7 
REMARK    2  A    between atoms: C_10  and  C_11 
REMARK       I    between atoms: C_11  and  N_12 
REMARK    3  A    between atoms: N_12  and  C_13 
REMARK    4  A    between atoms: C_13  and  C_14 
REMARK    5  A    between atoms: C_17  and  C_18 
REMARK       I    between atoms: C_18  and  N_19 
REMARK    6  A    between atoms: N_19  and  C_20 
ROOT
HETATM    1  C   UNL     1      25.158  47.329  50.579  1.00  0.00     0.256 C 
HETATM    2  N   UNL     1      25.135  46.014  50.173  1.00  0.00    -0.353 N 
HETATM    3  O   UNL     1      25.048  47.644  51.760  1.00  0.00    -0.268 OA
HETATM    4  H   UNL     1      24.976  45.822  49.196  1.00  0.00     0.163 HD
ENDROOT
BRANCH   2   5
HETATM    5  C   UNL     1      24.843  44.970  51.122  1.00  0.00     0.161 C 
BRANCH   5   6
HETATM    6  C   UNL     1      26.073  44.551  51.882  1.00  0.00    -0.040 A 
HETATM    7  C   UNL     1      27.223  44.151  51.185  1.00  0.00     0.010 A 
HETATM    8  C   UNL     1      28.386  43.802  51.876  1.00  0.00     0.017 A 
HETATM    9  C   UNL     1      28.414  43.855  53.274  1.00  0.00     0.032 A 
HETATM   10  C   UNL     1      27.257  44.207  53.979  1.00  0.00     0.017 A 
HETATM   11  C   UNL     1      26.093  44.552  53.283  1.00  0.00     0.010 A 
BRANCH   9  12
HETATM   12  C   UNL     1      29.688  43.525  53.968  1.00  0.00     0.252 C 
HETATM   13  N   UNL     1      29.888  44.151  55.185  1.00  0.00    -0.352 N 
HETATM   14  H   UNL     1      29.244  44.877  55.473  1.00  0.00     0.163 HD
HETATM   15  O   UNL     1      30.497  42.772  53.437  1.00  0.00    -0.268 OA
BRANCH  13  16
HETATM   16  C   UNL     1      31.111  44.017  55.913  1.00  0.00     0.084 A 
HETATM   17  C   UNL     1      31.161  44.351  57.379  1.00  0.00     0.027 A 
HETATM   18  C   UNL     1      31.280  42.924  56.932  1.00  0.00     0.027 A 
ENDBRANCH  13  16
ENDBRANCH   9  12
ENDBRANCH   5   6
ENDBRANCH   2   5
BRANCH   1  19
HETATM   19  C   UNL     1      25.254  48.329  49.519  1.00  0.00     0.082 A 
HETATM   20  C   UNL     1      26.469  48.756  48.901  1.00  0.00     0.068 A 
HETATM   21  C   UNL     1      27.853  48.292  49.180  1.00  0.00     0.073 C 
HETATM   22  N   UNL     1      26.260  49.704  47.981  1.00  0.00    -0.179 NA
HETATM   23  N   UNL     1      24.935  49.863  47.977  1.00  0.00    -0.281 N 
HETATM   24  H   UNL     1      24.544  50.537  47.327  1.00  0.00     0.189 HD
HETATM   25  C   UNL     1      24.263  49.052  48.858  1.00  0.00     0.049 A 
BRANCH  25  26
HETATM   26  C   UNL     1      22.760  49.062  48.928  1.00  0.00     0.030 C 
HETATM   27  C   UNL     1      22.219  50.463  48.634  1.00  0.00     0.016 C 
HETATM   28  C   UNL     1      22.129  48.036  47.980  1.00  0.00     0.016 C 
ENDBRANCH  25  26
ENDBRANCH   1  19
TORSDOF 6
ENDMDL
MODEL 3
REMARK VINA RESULT:      -8.1      1.233      2.664
REMARK  6 active torsions:
REMARK  status: ('A' for Active; 'I' for Inactive)
REMARK    1  A    between atoms: C_6  and  C_7 
REMARK    2  A    between atoms: C_10  and  C_11 
REMARK       I    between atoms: C_11  and  N_12 
REMARK    3  A    between atoms: N_12  and  C_13 
REMARK    4  A    between atoms: C_13  and  C_14 
REMARK    5  A    between atoms: C_17  and  C_18 
REMARK       I    between atoms: C_18  and  N_19 
REMARK    6  A    between atoms: N_19  and  C_20 
ROOT
HETATM    1  C   UNL     1      27.246  44.041  52.385  1.00  0.00     0.256 C 
HETATM    2  N   UNL     1      27.710  44.514  51.179  1.00  0.00    -0.353 N 
HETATM    3  O   UNL     1      26.211  43.386  52.469  1.00  0.00    -0.268 OA
HETATM    4  H   UNL     1      28.407  45.243  51.192  1.00  0.00     0.163 HD
ENDROOT
BRANCH   2   5
HETATM    5  C   UNL     1      26.912  44.366  49.989  1.00  0.00     0.161 C 
BRANCH   5   6
HETATM    6  C   UNL     1      25.985  45.537  49.793  1.00  0.00    -0.040 A 
HETATM    7  C   UNL     1      24.619  45.317  49.561  1.00  0.00     0.010 A 
HETATM    8  C   UNL     1      23.741  46.394  49.422  1.00  0.00     0.017 A 
HETATM    9  C   UNL     1      24.218  47.705  49.518  1.00  0.00     0.032 A 
HETATM   10  C   UNL     1      25.587  47.934  49.700  1.00  0.00     0.017 A 
HETATM   11  C   UNL     1      26.465  46.853  49.836  1.00  0.00     0.010 A 
BRANCH   9  12
HETATM   12  C   UNL     1      23.241  48.822  49.414  1.00  0.00     0.252 C 
HETATM   13  N   UNL     1      21.909  48.452  49.368  1.00  0.00    -0.352 N 
HETATM   14  H   UNL     1      21.677  47.471  49.278  1.00  0.00     0.163 HD
HETATM   15  O   UNL     1      23.639  49.979  49.336  1.00  0.00    -0.268 OA
BRANCH  13  16
HETATM   16  C   UNL     1      20.865  49.406  49.159  1.00  0.00     0.084 A 
HETATM   17  C   UNL     1      20.523  49.864  47.768  1.00  0.00     0.027 A 
HETATM   18  C   UNL     1      19.564  48.993  48.525  1.00  0.00     0.027 A 
ENDBRANCH  13  16
ENDBRANCH   9  12
ENDBRANCH   5   6
ENDBRANCH   2   5
BRANCH   1  19
HETATM   19  C   UNL     1      28.018  44.417  53.565  1.00  0.00     0.082 A 
HETATM   20  C   UNL     1      29.242  43.805  53.976  1.00  0.00     0.068 A 
HETATM   21  C   UNL     1      29.980  42.696  53.315  1.00  0.00     0.073 C 
HETATM   22  N   UNL     1      29.714  44.333  55.110  1.00  0.00    -0.179 NA
HETATM   23  N   UNL     1      28.835  45.291  55.411  1.00  0.00    -0.281 N 
HETATM   24  H   UNL     1      29.009  45.845  56.242  1.00  0.00     0.189 HD
HETATM   25  C   UNL     1      27.803  45.416  54.513  1.00  0.00     0.049 A 
BRANCH  25  26
HETATM   26  C   UNL     1      26.764  46.492  54.673  1.00  0.00     0.030 C 
HETATM   27  C   UNL     1      27.260  47.579  55.629  1.00  0.00     0.016 C 
HETATM   28  C   UNL     1      26.356  47.108  53.330  1.00  0.00     0.016 C 
ENDBRANCH  25  26
ENDBRANCH   1  19
TORSDOF 6
ENDMDL
MODEL 4
REMARK VINA RESULT:      -7.9      2.220      9.378
REMARK  6 active torsions:
REMARK  status: ('A' for Active; 'I' for Inactive)
REMARK    1  A    between atoms: C_6  and  C_7 
REMARK    2  A    between atoms: C_10  and  C_11 
REMARK       I    between atoms: C_11  and  N_12 
REMARK    3  A    between atoms: N_12  and  C_13 
REMARK    4  A    between atoms: C_13  and  C_14 
REMARK    5  A    between atoms: C_17  and  C_18 
REMARK       I    between atoms: C_18  and  N_19 
REMARK    6  A    between atoms: N_19  and  C_20 
ROOT
HETATM    1  C   UNL     1      22.089  48.000  48.648  1.00  0.00     0.256 C 
HETATM    2  N   UNL     1      22.924  48.056  49.741  1.00  0.00    -0.353 N 
HETATM    3  O   UNL     1      22.522  47.855  47.508  1.00  0.00    -0.268 OA
HETATM    4  H   UNL     1      22.552  48.422  50.603  1.00  0.00     0.163 HD
ENDROOT
BRANCH   2   5
HETATM    5  C   UNL     1      24.353  48.080  49.558  1.00  0.00     0.161 C 
BRANCH   5   6
HETATM    6  C   UNL     1      25.022  46.931  50.264  1.00  0.00    -0.040 A 
HETATM    7  C   UNL     1      25.109  45.679  49.635  1.00  0.00     0.010 A 
HETATM    8  C   UNL     1      25.766  44.616  50.260  1.00  0.00     0.017 A 
HETATM    9  C   UNL     1      26.346  44.794  51.520  1.00  0.00     0.032 A 
HETATM   10  C   UNL     1      26.222  46.024  52.175  1.00  0.00     0.017 A 
HETATM   11  C   UNL     1      25.561  47.086  51.548  1.00  0.00     0.010 A 
BRANCH   9  12
HETATM   12  C   UNL     1      27.080  43.650  52.127  1.00  0.00     0.252 C 
HETATM   13  N   UNL     1      27.915  43.965  53.184  1.00  0.00    -0.352 N 
HETATM   14  H   UNL     1      28.082  44.939  53.401  1.00  0.00     0.163 HD
HETATM   15  O   UNL     1      26.952  42.523  51.660  1.00  0.00    -0.268 OA
BRANCH  13  16
HETATM   16  C   UNL     1      28.764  42.991  53.794  1.00  0.00     0.084 A 
HETATM   17  C   UNL     1      30.162  42.776  53.282  1.00  0.00     0.027 A 
HETATM   18  C   UNL     1      29.947  43.415  54.622  1.00  0.00     0.027 A 
ENDBRANCH  13  16
ENDBRANCH   9  12
ENDBRANCH   5   6
ENDBRANCH   2   5
BRANCH   1  19
HETATM   19  C   UNL     1      20.666  48.190  48.913  1.00  0.00     0.082 A 
HETATM   20  C   UNL     1      19.677  47.161  48.864  1.00  0.00     0.068 A 
HETATM   21  C   UNL     1      19.868  45.720  48.552  1.00  0.00     0.073 C 
HETATM   22  N   UNL     1      18.451  47.626  49.124  1.00  0.00    -0.179 NA
HETATM   23  N   UNL     1      18.644  48.923  49.371  1.00  0.00    -0.281 N 
HETATM   24  H   UNL     1      17.833  49.482  49.614  1.00  0.00     0.189 HD
HETATM   25  C   UNL     1      19.954  49.328  49.288  1.00  0.00     0.049 A 
BRANCH  25  26
HETATM   26  C   UNL     1      20.348  50.745  49.603  1.00  0.00     0.030 C 
HETATM   27  C   UNL     1      21.153  51.348  48.450  1.00  0.00     0.016 C 
HETATM   28  C   UNL     1      19.135  51.626  49.925  1.00  0.00     0.016 C 
ENDBRANCH  25  26
ENDBRANCH   1  19
TORSDOF 6
ENDMDL
MODEL 5
REMARK VINA RESULT:      -7.7     11.926     14.990
REMARK  6 active torsions:
REMARK  status: ('A' for Active; 'I' for Inactive)
REMARK    1  A    between atoms: C_6  and  C_7 
REMARK    2  A    between atoms: C_10  and  C_11 
REMARK       I    between atoms: C_11  and  N_12 
REMARK    3  A    between atoms: N_12  and  C_13 
REMARK    4  A    between atoms: C_13  and  C_14 
REMARK    5  A    between atoms: C_17  and  C_18 
REMARK       I    between atoms: C_18  and  N_19 
REMARK    6  A    between atoms: N_19  and  C_20 
ROOT
HETATM    1  C   UNL     1      29.883  49.336  40.202  1.00  0.00     0.256 C 
HETATM    2  N   UNL     1      29.900  49.596  41.553  1.00  0.00    -0.353 N 
HETATM    3  O   UNL     1      30.576  48.453  39.703  1.00  0.00    -0.268 OA
HETATM    4  H   UNL     1      29.518  50.473  41.872  1.00  0.00     0.163 HD
ENDROOT
BRANCH   2   5
HETATM    5  C   UNL     1      30.843  48.920  42.407  1.00  0.00     0.161 C 
BRANCH   5   6
HETATM    6  C   UNL     1      32.104  49.723  42.585  1.00  0.00    -0.040 A 
HETATM    7  C   UNL     1      33.235  49.431  41.807  1.00  0.00     0.010 A 
HETATM    8  C   UNL     1      34.397  50.197  41.930  1.00  0.00     0.017 A 
HETATM    9  C   UNL     1      34.441  51.266  42.831  1.00  0.00     0.032 A 
HETATM   10  C   UNL     1      33.334  51.534  43.645  1.00  0.00     0.017 A 
HETATM   11  C   UNL     1      32.173  50.764  43.522  1.00  0.00     0.010 A 
BRANCH   9  12
HETATM   12  C   UNL     1      35.680  52.087  42.893  1.00  0.00     0.252 C 
HETATM   13  N   UNL     1      36.360  52.056  44.098  1.00  0.00    -0.352 N 
HETATM   14  H   UNL     1      35.929  51.599  44.890  1.00  0.00     0.163 HD
HETATM   15  O   UNL     1      36.016  52.763  41.928  1.00  0.00    -0.268 OA
BRANCH  13  16
HETATM   16  C   UNL     1      37.504  52.877  44.342  1.00  0.00     0.084 A 
HETATM   17  C   UNL     1      37.371  54.147  45.137  1.00  0.00     0.027 A 
HETATM   18  C   UNL     1      38.100  52.972  45.720  1.00  0.00     0.027 A 
ENDBRANCH  13  16
ENDBRANCH   9  12
ENDBRANCH   5   6
ENDBRANCH   2   5
BRANCH   1  19
HETATM   19  C   UNL     1      29.046  50.211  39.387  1.00  0.00     0.082 A 
HETATM   20  C   UNL     1      27.887  49.798  38.661  1.00  0.00     0.068 A 
HETATM   21  C   UNL     1      27.292  48.438  38.581  1.00  0.00     0.073 C 
HETATM   22  N   UNL     1      27.332  50.806  37.980  1.00  0.00    -0.179 NA
HETATM   23  N   UNL     1      28.094  51.859  38.285  1.00  0.00    -0.281 N 
HETATM   24  H   UNL     1      27.840  52.755  37.883  1.00  0.00     0.189 HD
HETATM   25  C   UNL     1      29.127  51.582  39.146  1.00  0.00     0.049 A 
BRANCH  25  26
HETATM   26  C   UNL     1      30.037  52.673  39.639  1.00  0.00     0.030 C 
HETATM   27  C   UNL     1      29.668  53.075  41.069  1.00  0.00     0.016 C 
HETATM   28  C   UNL     1      31.515  52.275  39.562  1.00  0.00     0.016 C 
ENDBRANCH  25  26
ENDBRANCH   1  19
TORSDOF 6
ENDMDL
MODEL 6
REMARK VINA RESULT:      -7.6     11.981     12.953
REMARK  6 active torsions:
REMARK  status: ('A' for Active; 'I' for Inactive)
REMARK    1  A    between atoms: C_6  and  C_7 
REMARK    2  A    between atoms: C_10  and  C_11 
REMARK       I    between atoms: C_11  and  N_12 
REMARK    3  A    between atoms: N_12  and  C_13 
REMARK    4  A    between atoms: C_13  and  C_14 
REMARK    5  A    between atoms: C_17  and  C_18 
REMARK       I    between atoms: C_18  and  N_19 
REMARK    6  A    between atoms: N_19  and  C_20 
ROOT
HETATM    1  C   UNL     1      30.014  49.771  41.061  1.00  0.00     0.256 C 
HETATM    2  N   UNL     1      29.941  49.350  39.752  1.00  0.00    -0.353 N 
HETATM    3  O   UNL     1      29.467  49.155  41.971  1.00  0.00    -0.268 OA
HETATM    4  H   UNL     1      30.184  50.009  39.028  1.00  0.00     0.163 HD
ENDROOT
BRANCH   2   5
HETATM    5  C   UNL     1      29.097  48.238  39.397  1.00  0.00     0.161 C 
BRANCH   5   6
HETATM    6  C   UNL     1      27.684  48.679  39.121  1.00  0.00    -0.040 A 
HETATM    7  C   UNL     1      26.610  47.994  39.710  1.00  0.00     0.010 A 
HETATM    8  C   UNL     1      25.297  48.420  39.498  1.00  0.00     0.017 A 
HETATM    9  C   UNL     1      25.042  49.539  38.699  1.00  0.00     0.032 A 
HETATM   10  C   UNL     1      26.104  50.199  38.069  1.00  0.00     0.017 A 
HETATM   11  C   UNL     1      27.418  49.768  38.280  1.00  0.00     0.010 A 
BRANCH   9  12
HETATM   12  C   UNL     1      23.632  49.989  38.541  1.00  0.00     0.252 C 
HETATM   13  N   UNL     1      23.072  50.607  39.645  1.00  0.00    -0.352 N 
HETATM   14  H   UNL     1      23.585  50.606  40.517  1.00  0.00     0.163 HD
HETATM   15  O   UNL     1      23.032  49.766  37.495  1.00  0.00    -0.268 OA
BRANCH  13  16
HETATM   16  C   UNL     1      21.696  50.992  39.680  1.00  0.00     0.084 A 
HETATM   17  C   UNL     1      20.642  50.003  40.092  1.00  0.00     0.027 A 
HETATM   18  C   UNL     1      20.978  51.156  40.992  1.00  0.00     0.027 A 
ENDBRANCH  13  16
ENDBRANCH   9  12
ENDBRANCH   5   6
ENDBRANCH   2   5
BRANCH   1  19
HETATM   19  C   UNL     1      30.723  51.026  41.295  1.00  0.00     0.082 A 
HETATM   20  C   UNL     1      32.068  51.134  41.765  1.00  0.00     0.068 A 
HETATM   21  C   UNL     1      33.013  50.037  42.099  1.00  0.00     0.073 C 
HETATM   22  N   UNL     1      32.449  52.407  41.915  1.00  0.00    -0.179 NA
HETATM   23  N   UNL     1      31.386  53.111  41.518  1.00  0.00    -0.281 N 
HETATM   24  H   UNL     1      31.459  54.122  41.532  1.00  0.00     0.189 HD
HETATM   25  C   UNL     1      30.321  52.347  41.108  1.00  0.00     0.049 A 
BRANCH  25  26
HETATM   26  C   UNL     1      29.072  52.988  40.568  1.00  0.00     0.030 C 
HETATM   27  C   UNL     1      29.018  52.862  39.044  1.00  0.00     0.016 C 
HETATM   28  C   UNL     1      27.802  52.402  41.197  1.00  0.00     0.016 C 
ENDBRANCH  25  26
ENDBRANCH   1  19
TORSDOF 6
ENDMDL
MODEL 7
REMARK VINA RESULT:      -7.6      4.508      8.212
REMARK  6 active torsions:
REMARK  status: ('A' for Active; 'I' for Inactive)
REMARK    1  A    between atoms: C_6  and  C_7 
REMARK    2  A    between atoms: C_10  and  C_11 
REMARK       I    between atoms: C_11  and  N_12 
REMARK    3  A    between atoms: N_12  and  C_13 
REMARK    4  A    between atoms: C_13  and  C_14 
REMARK    5  A    between atoms: C_17  and  C_18 
REMARK       I    between atoms: C_18  and  N_19 
REMARK    6  A    between atoms: N_19  and  C_20 
ROOT
HETATM    1  C   UNL     1      23.014  48.733  48.728  1.00  0.00     0.256 C 
HETATM    2  N   UNL     1      22.398  49.528  49.668  1.00  0.00    -0.353 N 
HETATM    3  O   UNL     1      23.452  49.192  47.677  1.00  0.00    -0.268 OA
HETATM    4  H   UNL     1      21.843  49.078  50.379  1.00  0.00     0.163 HD
ENDROOT
BRANCH   2   5
HETATM    5  C   UNL     1      22.127  50.913  49.376  1.00  0.00     0.161 C 
BRANCH   5   6
HETATM    6  C   UNL     1      20.648  51.189  49.320  1.00  0.00    -0.040 A 
HETATM    7  C   UNL     1      20.140  52.086  48.369  1.00  0.00     0.010 A 
HETATM    8  C   UNL     1      18.765  52.318  48.276  1.00  0.00     0.017 A 
HETATM    9  C   UNL     1      17.882  51.651  49.131  1.00  0.00     0.032 A 
HETATM   10  C   UNL     1      18.384  50.791  50.115  1.00  0.00     0.017 A 
HETATM   11  C   UNL     1      19.761  50.563  50.207  1.00  0.00     0.010 A 
BRANCH   9  12
HETATM   12  C   UNL     1      16.422  51.889  48.965  1.00  0.00     0.252 C 
HETATM   13  N   UNL     1      16.012  53.204  49.079  1.00  0.00    -0.352 N 
HETATM   14  H   UNL     1      16.678  53.899  49.389  1.00  0.00     0.163 HD
HETATM   15  O   UNL     1      15.665  50.942  48.780  1.00  0.00    -0.268 OA
BRANCH  13  16
HETATM   16  C   UNL     1      14.630  53.571  49.052  1.00  0.00     0.084 A 
HETATM   17  C   UNL     1      13.829  53.603  50.324  1.00  0.00     0.027 A 
HETATM   18  C   UNL     1      14.174  54.885  49.625  1.00  0.00     0.027 A 
ENDBRANCH  13  16
ENDBRANCH   9  12
ENDBRANCH   5   6
ENDBRANCH   2   5
BRANCH   1  19
HETATM   19  C   UNL     1      23.060  47.304  49.023  1.00  0.00     0.082 A 
HETATM   20  C   UNL     1      24.078  46.654  49.786  1.00  0.00     0.068 A 
HETATM   21  C   UNL     1      25.269  47.264  50.433  1.00  0.00     0.073 C 
HETATM   22  N   UNL     1      23.879  45.335  49.873  1.00  0.00    -0.179 NA
HETATM   23  N   UNL     1      22.738  45.136  49.210  1.00  0.00    -0.281 N 
HETATM   24  H   UNL     1      22.380  44.188  49.162  1.00  0.00     0.189 HD
HETATM   25  C   UNL     1      22.175  46.278  48.694  1.00  0.00     0.049 A 
BRANCH  25  26
HETATM   26  C   UNL     1      20.854  46.234  47.977  1.00  0.00     0.030 C 
HETATM   27  C   UNL     1      19.817  47.089  48.708  1.00  0.00     0.016 C 
HETATM   28  C   UNL     1      20.974  46.675  46.514  1.00  0.00     0.016 C 
ENDBRANCH  25  26
ENDBRANCH   1  19
TORSDOF 6
ENDMDL
MODEL 8
REMARK VINA RESULT:      -7.3      2.521      9.468
REMARK  6 active torsions:
REMARK  status: ('A' for Active; 'I' for Inactive)
REMARK    1  A    between atoms: C_6  and  C_7 
REMARK    2  A    between atoms: C_10  and  C_11 
REMARK       I    between atoms: C_11  and  N_12 
REMARK    3  A    between atoms: N_12  and  C_13 
REMARK    4  A    between atoms: C_13  and  C_14 
REMARK    5  A    between atoms: C_17  and  C_18 
REMARK       I    between atoms: C_18  and  N_19 
REMARK    6  A    between atoms: N_19  and  C_20 
ROOT
HETATM    1  C   UNL     1      21.696  48.248  48.602  1.00  0.00     0.256 C 
HETATM    2  N   UNL     1      22.536  47.758  49.575  1.00  0.00    -0.353 N 
HETATM    3  O   UNL     1      22.064  48.388  47.438  1.00  0.00    -0.268 OA
HETATM    4  H   UNL     1      22.277  47.897  50.540  1.00  0.00     0.163 HD
ENDROOT
BRANCH   2   5
HETATM    5  C   UNL     1      23.926  47.521  49.277  1.00  0.00     0.161 C 
BRANCH   5   6
HETATM    6  C   UNL     1      24.587  46.685  50.342  1.00  0.00    -0.040 A 
HETATM    7  C   UNL     1      25.471  47.284  51.252  1.00  0.00     0.010 A 
HETATM    8  C   UNL     1      26.056  46.529  52.272  1.00  0.00     0.017 A 
HETATM    9  C   UNL     1      25.760  45.168  52.397  1.00  0.00     0.032 A 
HETATM   10  C   UNL     1      24.917  44.553  51.464  1.00  0.00     0.017 A 
HETATM   11  C   UNL     1      24.335  45.310  50.442  1.00  0.00     0.010 A 
BRANCH   9  12
HETATM   12  C   UNL     1      26.365  44.414  53.528  1.00  0.00     0.252 C 
HETATM   13  N   UNL     1      27.731  44.211  53.451  1.00  0.00    -0.352 N 
HETATM   14  H   UNL     1      28.215  44.461  52.599  1.00  0.00     0.163 HD
HETATM   15  O   UNL     1      25.652  43.983  54.427  1.00  0.00    -0.268 OA
BRANCH  13  16
HETATM   16  C   UNL     1      28.433  43.412  54.406  1.00  0.00     0.084 A 
HETATM   17  C   UNL     1      29.678  42.670  54.006  1.00  0.00     0.027 A 
HETATM   18  C   UNL     1      29.773  43.846  54.933  1.00  0.00     0.027 A 
ENDBRANCH  13  16
ENDBRANCH   9  12
ENDBRANCH   5   6
ENDBRANCH   2   5
BRANCH   1  19
HETATM   19  C   UNL     1      20.365  48.653  49.044  1.00  0.00     0.082 A 
HETATM   20  C   UNL     1      20.065  49.860  49.747  1.00  0.00     0.068 A 
HETATM   21  C   UNL     1      21.002  50.937  50.162  1.00  0.00     0.073 C 
HETATM   22  N   UNL     1      18.766  49.958  50.049  1.00  0.00    -0.179 NA
HETATM   23  N   UNL     1      18.229  48.855  49.525  1.00  0.00    -0.281 N 
HETATM   24  H   UNL     1      17.227  48.727  49.622  1.00  0.00     0.189 HD
HETATM   25  C   UNL     1      19.125  48.037  48.882  1.00  0.00     0.049 A 
BRANCH  25  26
HETATM   26  C   UNL     1      18.668  46.788  48.180  1.00  0.00     0.030 C 
HETATM   27  C   UNL     1      17.192  46.514  48.479  1.00  0.00     0.016 C 
HETATM   28  C   UNL     1      18.903  46.854  46.667  1.00  0.00     0.016 C 
ENDBRANCH  25  26
ENDBRANCH   1  19
TORSDOF 6
ENDMDL
MODEL 9
REMARK VINA RESULT:      -7.2      3.002      8.564
REMARK  6 active torsions:
REMARK  status: ('A' for Active; 'I' for Inactive)
REMARK    1  A    between atoms: C_6  and  C_7 
REMARK    2  A    between atoms: C_10  and  C_11 
REMARK       I    between atoms: C_11  and  N_12 
REMARK    3  A    between atoms: N_12  and  C_13 
REMARK    4  A    between atoms: C_13  and  C_14 
REMARK    5  A    between atoms: C_17  and  C_18 
REMARK       I    between atoms: C_18  and  N_19 
REMARK    6  A    between atoms: N_19  and  C_20 
ROOT
HETATM    1  C   UNL     1      24.716  44.120  50.530  1.00  0.00     0.256 C 
HETATM    2  N   UNL     1      26.053  43.944  50.253  1.00  0.00    -0.353 N 
HETATM    3  O   UNL     1      24.094  43.339  51.245  1.00  0.00    -0.268 OA
HETATM    4  H   UNL     1      26.448  44.453  49.478  1.00  0.00     0.163 HD
ENDROOT
BRANCH   2   5
HETATM    5  C   UNL     1      26.730  42.750  50.692  1.00  0.00     0.161 C 
BRANCH   5   6
HETATM    6  C   UNL     1      27.597  43.015  51.895  1.00  0.00    -0.040 A 
HETATM    7  C   UNL     1      28.657  42.147  52.197  1.00  0.00     0.010 A 
HETATM    8  C   UNL     1      29.497  42.404  53.284  1.00  0.00     0.017 A 
HETATM    9  C   UNL     1      29.288  43.537  54.078  1.00  0.00     0.032 A 
HETATM   10  C   UNL     1      28.204  44.381  53.813  1.00  0.00     0.017 A 
HETATM   11  C   UNL     1      27.364  44.119  52.726  1.00  0.00     0.010 A 
BRANCH   9  12
HETATM   12  C   UNL     1      30.236  43.800  55.195  1.00  0.00     0.252 C 
HETATM   13  N   UNL     1      29.885  44.829  56.050  1.00  0.00    -0.352 N 
HETATM   14  H   UNL     1      29.097  45.417  55.810  1.00  0.00     0.163 HD
HETATM   15  O   UNL     1      31.271  43.149  55.285  1.00  0.00    -0.268 OA
BRANCH  13  16
HETATM   16  C   UNL     1      30.749  45.268  57.100  1.00  0.00     0.084 A 
HETATM   17  C   UNL     1      30.302  46.347  58.049  1.00  0.00     0.027 A 
HETATM   18  C   UNL     1      30.444  44.934  58.535  1.00  0.00     0.027 A 
ENDBRANCH  13  16
ENDBRANCH   9  12
ENDBRANCH   5   6
ENDBRANCH   2   5
BRANCH   1  19
HETATM   19  C   UNL     1      24.066  45.250  49.873  1.00  0.00     0.082 A 
HETATM   20  C   UNL     1      22.962  45.151  48.971  1.00  0.00     0.068 A 
HETATM   21  C   UNL     1      22.251  43.925  48.523  1.00  0.00     0.073 C 
HETATM   22  N   UNL     1      22.589  46.345  48.499  1.00  0.00    -0.179 NA
HETATM   23  N   UNL     1      23.409  47.204  49.107  1.00  0.00    -0.281 N 
HETATM   24  H   UNL     1      23.291  48.191  48.906  1.00  0.00     0.189 HD
HETATM   25  C   UNL     1      24.306  46.619  49.967  1.00  0.00     0.049 A 
BRANCH  25  26
HETATM   26  C   UNL     1      25.256  47.455  50.781  1.00  0.00     0.030 C 
HETATM   27  C   UNL     1      25.339  46.931  52.216  1.00  0.00     0.016 C 
HETATM   28  C   UNL     1      26.653  47.520  50.154  1.00  0.00     0.016 C 
ENDBRANCH  25  26
ENDBRANCH   1  19
TORSDOF 6
ENDMDL
MODEL 10
REMARK VINA RESULT:      -7.2     11.588     14.567
REMARK  6 active torsions:
REMARK  status: ('A' for Active; 'I' for Inactive)
REMARK    1  A    between atoms: C_6  and  C_7 
REMARK    2  A    between atoms: C_10  and  C_11 
REMARK       I    between atoms: C_11  and  N_12 
REMARK    3  A    between atoms: N_12  and  C_13 
REMARK    4  A    between atoms: C_13  and  C_14 
REMARK    5  A    between atoms: C_17  and  C_18 
REMARK       I    between atoms: C_18  and  N_19 
REMARK    6  A    between atoms: N_19  and  C_20 
ROOT
HETATM    1  C   UNL     1      28.776  49.667  41.195  1.00  0.00     0.256 C 
HETATM    2  N   UNL     1      30.075  49.217  41.267  1.00  0.00    -0.353 N 
HETATM    3  O   UNL     1      28.177  50.078  42.185  1.00  0.00    -0.268 OA
HETATM    4  H   UNL     1      30.429  48.666  40.501  1.00  0.00     0.163 HD
ENDROOT
BRANCH   2   5
HETATM    5  C   UNL     1      30.725  49.089  42.547  1.00  0.00     0.161 C 
BRANCH   5   6
HETATM    6  C   UNL     1      32.014  49.868  42.594  1.00  0.00    -0.040 A 
HETATM    7  C   UNL     1      32.167  50.912  43.518  1.00  0.00     0.010 A 
HETATM    8  C   UNL     1      33.372  51.613  43.603  1.00  0.00     0.017 A 
HETATM    9  C   UNL     1      34.441  51.275  42.766  1.00  0.00     0.032 A 
HETATM   10  C   UNL     1      34.280  50.267  41.808  1.00  0.00     0.017 A 
HETATM   11  C   UNL     1      33.071  49.568  41.724  1.00  0.00     0.010 A 
BRANCH   9  12
HETATM   12  C   UNL     1      35.723  52.014  42.924  1.00  0.00     0.252 C 
HETATM   13  N   UNL     1      36.386  51.814  44.121  1.00  0.00    -0.352 N 
HETATM   14  H   UNL     1      35.922  51.299  44.857  1.00  0.00     0.163 HD
HETATM   15  O   UNL     1      36.106  52.772  42.040  1.00  0.00    -0.268 OA
BRANCH  13  16
HETATM   16  C   UNL     1      37.571  52.539  44.460  1.00  0.00     0.084 A 
HETATM   17  C   UNL     1      37.488  53.991  44.843  1.00  0.00     0.027 A 
HETATM   18  C   UNL     1      37.832  52.962  45.880  1.00  0.00     0.027 A 
ENDBRANCH  13  16
ENDBRANCH   9  12
ENDBRANCH   5   6
ENDBRANCH   2   5
BRANCH   1  19
HETATM   19  C   UNL     1      28.131  49.567  39.890  1.00  0.00     0.082 A 
HETATM   20  C   UNL     1      27.985  50.642  38.961  1.00  0.00     0.068 A 
HETATM   21  C   UNL     1      28.446  52.048  39.105  1.00  0.00     0.073 C 
HETATM   22  N   UNL     1      27.328  50.269  37.857  1.00  0.00    -0.179 NA
HETATM   23  N   UNL     1      27.083  48.972  38.050  1.00  0.00    -0.281 N 
HETATM   24  H   UNL     1      26.599  48.469  37.314  1.00  0.00     0.189 HD
HETATM   25  C   UNL     1      27.560  48.475  39.239  1.00  0.00     0.049 A 
BRANCH  25  26
HETATM   26  C   UNL     1      27.424  47.015  39.577  1.00  0.00     0.030 C 
HETATM   27  C   UNL     1      26.463  46.326  38.606  1.00  0.00     0.016 C 
HETATM   28  C   UNL     1      28.777  46.295  39.591  1.00  0.00     0.016 C 
ENDBRANCH  25  26
ENDBRANCH   1  19
TORSDOF 6
ENDMDL
