MODEL 1
REMARK VINA RESULT:      -9.1      0.000      0.000
REMARK  3 active torsions:
REMARK  status: ('A' for Active; 'I' for Inactive)
REMARK    1  A    between atoms: C_6  and  N_7 
REMARK       I    between atoms: N_7  and  C_8 
REMARK    2  A    between atoms: C_8  and  C_9 
REMARK    3  A    between atoms: C_9  and  C_10 
ROOT
HETATM    1  C   UNL     1      26.722  46.092  54.528  1.00  0.00     0.286 C 
HETATM    2  N   UNL     1      27.787  45.221  53.856  1.00  0.00    -0.056 N 
HETATM    3  H   UNL     1      27.274  44.518  53.285  1.00  0.00     0.278 HD
HETATM    4  H   UNL     1      28.340  45.780  53.195  1.00  0.00     0.278 HD
HETATM    5  C   UNL     1      28.656  44.560  54.880  1.00  0.00     0.209 C 
HETATM    6  C   UNL     1      29.364  45.663  55.699  1.00  0.00     0.115 C 
HETATM    7  N   UNL     1      28.427  46.645  56.243  1.00  0.00    -0.353 N 
HETATM    8  C   UNL     1      27.333  47.092  55.530  1.00  0.00     0.249 C 
HETATM    9  O   UNL     1      26.838  48.186  55.774  1.00  0.00    -0.271 OA
HETATM   10  C   UNL     1      29.670  43.645  54.207  1.00  0.00     0.035 C 
HETATM   11  C   UNL     1      30.569  43.001  55.265  1.00  0.00     0.002 C 
HETATM   12  C   UNL     1      31.229  44.038  56.179  1.00  0.00     0.002 C 
HETATM   13  C   UNL     1      30.222  45.019  56.788  1.00  0.00     0.027 C 
HETATM   14  H   UNL     1      28.798  47.356  56.872  1.00  0.00     0.163 HD
ENDROOT
BRANCH   1  15
HETATM   15  C   UNL     1      25.842  46.762  53.469  1.00  0.00     0.146 C 
BRANCH  15  16
HETATM   16  C   UNL     1      25.374  45.692  52.514  1.00  0.00     0.224 C 
HETATM   17  N   UNL     1      25.237  45.865  51.179  1.00  0.00    -0.327 N 
HETATM   18  H   UNL     1      25.149  44.972  50.700  1.00  0.00     0.169 HD
HETATM   19  O   UNL     1      25.217  44.551  52.978  1.00  0.00    -0.273 OA
BRANCH  17  20
HETATM   20  C   UNL     1      25.163  46.983  50.327  1.00  0.00     0.035 A 
HETATM   21  C   UNL     1      26.230  47.808  49.973  1.00  0.00     0.037 A 
HETATM   22  C   UNL     1      26.047  48.919  49.124  1.00  0.00    -0.054 A 
HETATM   23  C   UNL     1      24.762  49.216  48.633  1.00  0.00    -0.056 A 
HETATM   24  C   UNL     1      27.238  49.762  48.747  1.00  0.00     0.049 C 
HETATM   25  C   UNL     1      24.507  50.401  47.741  1.00  0.00     0.049 C 
HETATM   26  C   UNL     1      23.685  48.420  49.033  1.00  0.00     0.009 A 
HETATM   27  C   UNL     1      23.884  47.320  49.871  1.00  0.00     0.030 A 
ENDBRANCH  17  20
ENDBRANCH  15  16
ENDBRANCH   1  15
TORSDOF 3
ENDMDL
MODEL 2
REMARK VINA RESULT:      -9.0      3.557      7.366
REMARK  3 active torsions:
REMARK  status: ('A' for Active; 'I' for Inactive)
REMARK    1  A    between atoms: C_6  and  N_7 
REMARK       I    between atoms: N_7  and  C_8 
REMARK    2  A    between atoms: C_8  and  C_9 
REMARK    3  A    between atoms: C_9  and  C_10 
ROOT
HETATM    1  C   UNL     1      26.185  43.953  52.651  1.00  0.00     0.286 C 
HETATM    2  N   UNL     1      26.919  42.622  52.829  1.00  0.00    -0.056 N 
HETATM    3  H   UNL     1      27.784  42.833  53.367  1.00  0.00     0.278 HD
HETATM    4  H   UNL     1      26.365  41.985  53.415  1.00  0.00     0.278 HD
HETATM    5  C   UNL     1      27.240  42.009  51.502  1.00  0.00     0.209 C 
HETATM    6  C   UNL     1      25.911  41.746  50.756  1.00  0.00     0.115 C 
HETATM    7  N   UNL     1      25.063  42.934  50.685  1.00  0.00    -0.353 N 
HETATM    8  C   UNL     1      24.948  43.821  51.738  1.00  0.00     0.249 C 
HETATM    9  O   UNL     1      23.950  44.520  51.854  1.00  0.00    -0.271 OA
HETATM   10  C   UNL     1      28.026  40.718  51.686  1.00  0.00     0.035 C 
HETATM   11  C   UNL     1      28.319  40.091  50.322  1.00  0.00     0.002 C 
HETATM   12  C   UNL     1      27.052  39.892  49.487  1.00  0.00     0.002 C 
HETATM   13  C   UNL     1      26.209  41.165  49.373  1.00  0.00     0.027 C 
HETATM   14  H   UNL     1      24.209  42.876  50.132  1.00  0.00     0.163 HD
ENDROOT
BRANCH   1  15
HETATM   15  C   UNL     1      25.862  44.567  54.016  1.00  0.00     0.146 C 
BRANCH  15  16
HETATM   16  C   UNL     1      26.436  45.962  54.042  1.00  0.00     0.224 C 
HETATM   17  N   UNL     1      27.692  46.264  54.441  1.00  0.00    -0.327 N 
HETATM   18  H   UNL     1      27.953  47.205  54.155  1.00  0.00     0.169 HD
HETATM   19  O   UNL     1      25.740  46.867  53.554  1.00  0.00    -0.273 OA
BRANCH  17  20
HETATM   20  C   UNL     1      28.688  45.592  55.174  1.00  0.00     0.035 A 
HETATM   21  C   UNL     1      29.195  45.988  56.412  1.00  0.00     0.037 A 
HETATM   22  C   UNL     1      30.209  45.252  57.058  1.00  0.00    -0.054 A 
HETATM   23  C   UNL     1      30.736  44.102  56.441  1.00  0.00    -0.056 A 
HETATM   24  C   UNL     1      30.701  45.705  58.408  1.00  0.00     0.049 C 
HETATM   25  C   UNL     1      31.833  43.292  57.077  1.00  0.00     0.049 C 
HETATM   26  C   UNL     1      30.265  43.738  55.177  1.00  0.00     0.009 A 
HETATM   27  C   UNL     1      29.257  44.476  54.552  1.00  0.00     0.030 A 
ENDBRANCH  17  20
ENDBRANCH  15  16
ENDBRANCH   1  15
TORSDOF 3
ENDMDL
MODEL 3
REMARK VINA RESULT:      -8.9      1.822      2.990
REMARK  3 active torsions:
REMARK  status: ('A' for Active; 'I' for Inactive)
REMARK    1  A    between atoms: C_6  and  N_7 
REMARK       I    between atoms: N_7  and  C_8 
REMARK    2  A    between atoms: C_8  and  C_9 
REMARK    3  A    between atoms: C_9  and  C_10 
ROOT
HETATM    1  C   UNL     1      27.383  43.934  51.637  1.00  0.00     0.286 C 
HETATM    2  N   UNL     1      27.282  44.499  53.056  1.00  0.00    -0.056 N 
HETATM    3  H   UNL     1      26.907  45.465  52.962  1.00  0.00     0.278 HD
HETATM    4  H   UNL     1      26.586  43.973  53.600  1.00  0.00     0.278 HD
HETATM    5  C   UNL     1      28.620  44.498  53.726  1.00  0.00     0.209 C 
HETATM    6  C   UNL     1      29.119  43.037  53.809  1.00  0.00     0.115 C 
HETATM    7  N   UNL     1      29.090  42.360  52.514  1.00  0.00    -0.353 N 
HETATM    8  C   UNL     1      28.068  42.552  51.606  1.00  0.00     0.249 C 
HETATM    9  O   UNL     1      27.810  41.694  50.771  1.00  0.00    -0.271 OA
HETATM   10  C   UNL     1      28.522  45.120  55.112  1.00  0.00     0.035 C 
HETATM   11  C   UNL     1      29.892  45.084  55.794  1.00  0.00     0.002 C 
HETATM   12  C   UNL     1      30.492  43.676  55.823  1.00  0.00     0.002 C 
HETATM   13  C   UNL     1      30.509  43.008  54.445  1.00  0.00     0.027 C 
HETATM   14  H   UNL     1      29.487  41.423  52.459  1.00  0.00     0.163 HD
ENDROOT
BRANCH   1  15
HETATM   15  C   UNL     1      26.007  43.940  50.965  1.00  0.00     0.146 C 
BRANCH  15  16
HETATM   16  C   UNL     1      25.068  44.727  51.845  1.00  0.00     0.224 C 
HETATM   17  N   UNL     1      24.593  45.958  51.548  1.00  0.00    -0.327 N 
HETATM   18  H   UNL     1      23.803  46.200  52.140  1.00  0.00     0.169 HD
HETATM   19  O   UNL     1      24.618  44.149  52.848  1.00  0.00    -0.273 OA
BRANCH  17  20
HETATM   20  C   UNL     1      24.961  46.970  50.641  1.00  0.00     0.035 A 
HETATM   21  C   UNL     1      26.256  47.443  50.431  1.00  0.00     0.037 A 
HETATM   22  C   UNL     1      26.518  48.477  49.508  1.00  0.00    -0.054 A 
HETATM   23  C   UNL     1      25.455  49.058  48.793  1.00  0.00    -0.056 A 
HETATM   24  C   UNL     1      27.939  48.932  49.296  1.00  0.00     0.049 C 
HETATM   25  C   UNL     1      25.676  50.178  47.812  1.00  0.00     0.049 C 
HETATM   26  C   UNL     1      24.152  48.619  49.045  1.00  0.00     0.009 A 
HETATM   27  C   UNL     1      23.910  47.591  49.959  1.00  0.00     0.030 A 
ENDBRANCH  17  20
ENDBRANCH  15  16
ENDBRANCH   1  15
TORSDOF 3
ENDMDL
MODEL 4
REMARK VINA RESULT:      -8.8      2.399      8.248
REMARK  3 active torsions:
REMARK  status: ('A' for Active; 'I' for Inactive)
REMARK    1  A    between atoms: C_6  and  N_7 
REMARK       I    between atoms: N_7  and  C_8 
REMARK    2  A    between atoms: C_8  and  C_9 
REMARK    3  A    between atoms: C_9  and  C_10 
ROOT
HETATM    1  C   UNL     1      25.791  47.401  49.573  1.00  0.00     0.286 C 
HETATM    2  N   UNL     1      24.309  47.536  49.929  1.00  0.00    -0.056 N 
HETATM    3  H   UNL     1      23.939  46.567  50.018  1.00  0.00     0.278 HD
HETATM    4  H   UNL     1      24.203  47.970  50.854  1.00  0.00     0.278 HD
HETATM    5  C   UNL     1      23.575  48.303  48.874  1.00  0.00     0.209 C 
HETATM    6  C   UNL     1      24.193  49.717  48.785  1.00  0.00     0.115 C 
HETATM    7  N   UNL     1      25.645  49.685  48.612  1.00  0.00    -0.353 N 
HETATM    8  C   UNL     1      26.443  48.764  49.261  1.00  0.00     0.249 C 
HETATM    9  O   UNL     1      27.625  49.007  49.472  1.00  0.00    -0.271 OA
HETATM   10  C   UNL     1      22.091  48.376  49.203  1.00  0.00     0.035 C 
HETATM   11  C   UNL     1      21.362  49.188  48.131  1.00  0.00     0.002 C 
HETATM   12  C   UNL     1      21.985  50.570  47.921  1.00  0.00     0.002 C 
HETATM   13  C   UNL     1      23.496  50.509  47.679  1.00  0.00     0.027 C 
HETATM   14  H   UNL     1      26.123  50.570  48.452  1.00  0.00     0.163 HD
ENDROOT
BRANCH   1  15
HETATM   15  C   UNL     1      26.529  46.616  50.661  1.00  0.00     0.146 C 
BRANCH  15  16
HETATM   16  C   UNL     1      26.176  45.159  50.497  1.00  0.00     0.224 C 
HETATM   17  N   UNL     1      26.537  44.183  51.362  1.00  0.00    -0.327 N 
HETATM   18  H   UNL     1      26.002  43.333  51.201  1.00  0.00     0.169 HD
HETATM   19  O   UNL     1      25.407  44.865  49.567  1.00  0.00    -0.273 OA
BRANCH  17  20
HETATM   20  C   UNL     1      27.487  44.075  52.394  1.00  0.00     0.035 A 
HETATM   21  C   UNL     1      27.538  44.870  53.539  1.00  0.00     0.037 A 
HETATM   22  C   UNL     1      28.546  44.694  54.509  1.00  0.00    -0.054 A 
HETATM   23  C   UNL     1      29.533  43.709  54.318  1.00  0.00    -0.056 A 
HETATM   24  C   UNL     1      28.539  45.558  55.744  1.00  0.00     0.049 C 
HETATM   25  C   UNL     1      30.643  43.493  55.311  1.00  0.00     0.049 C 
HETATM   26  C   UNL     1      29.511  42.951  53.143  1.00  0.00     0.009 A 
HETATM   27  C   UNL     1      28.503  43.135  52.194  1.00  0.00     0.030 A 
ENDBRANCH  17  20
ENDBRANCH  15  16
ENDBRANCH   1  15
TORSDOF 3
ENDMDL
MODEL 5
REMARK VINA RESULT:      -8.6      2.516      7.571
REMARK  3 active torsions:
REMARK  status: ('A' for Active; 'I' for Inactive)
REMARK    1  A    between atoms: C_6  and  N_7 
REMARK       I    between atoms: N_7  and  C_8 
REMARK    2  A    between atoms: C_8  and  C_9 
REMARK    3  A    between atoms: C_9  and  C_10 
ROOT
HETATM    1  C   UNL     1      25.487  44.539  51.374  1.00  0.00     0.286 C 
HETATM    2  N   UNL     1      26.447  45.350  50.501  1.00  0.00    -0.056 N 
HETATM    3  H   UNL     1      27.370  45.329  50.981  1.00  0.00     0.278 HD
HETATM    4  H   UNL     1      26.584  44.886  49.595  1.00  0.00     0.278 HD
HETATM    5  C   UNL     1      25.955  46.754  50.332  1.00  0.00     0.209 C 
HETATM    6  C   UNL     1      24.576  46.702  49.634  1.00  0.00     0.115 C 
HETATM    7  N   UNL     1      23.638  45.809  50.313  1.00  0.00    -0.353 N 
HETATM    8  C   UNL     1      24.033  44.606  50.862  1.00  0.00     0.249 C 
HETATM    9  O   UNL     1      23.226  43.697  51.011  1.00  0.00    -0.271 OA
HETATM   10  C   UNL     1      26.947  47.572  49.516  1.00  0.00     0.035 C 
HETATM   11  C   UNL     1      26.415  48.994  49.328  1.00  0.00     0.002 C 
HETATM   12  C   UNL     1      25.006  49.015  48.730  1.00  0.00     0.002 C 
HETATM   13  C   UNL     1      24.023  48.121  49.493  1.00  0.00     0.027 C 
HETATM   14  H   UNL     1      22.677  45.785  49.975  1.00  0.00     0.163 HD
ENDROOT
BRANCH   1  15
HETATM   15  C   UNL     1      26.002  43.106  51.537  1.00  0.00     0.146 C 
BRANCH  15  16
HETATM   16  C   UNL     1      27.328  43.009  50.824  1.00  0.00     0.224 C 
HETATM   17  N   UNL     1      28.531  43.007  51.442  1.00  0.00    -0.327 N 
HETATM   18  H   UNL     1      29.267  42.694  50.814  1.00  0.00     0.169 HD
HETATM   19  O   UNL     1      27.296  42.802  49.599  1.00  0.00    -0.273 OA
BRANCH  17  20
HETATM   20  C   UNL     1      28.985  43.363  52.726  1.00  0.00     0.035 A 
HETATM   21  C   UNL     1      28.438  44.358  53.536  1.00  0.00     0.037 A 
HETATM   22  C   UNL     1      28.981  44.651  54.804  1.00  0.00    -0.054 A 
HETATM   23  C   UNL     1      30.107  43.942  55.261  1.00  0.00    -0.056 A 
HETATM   24  C   UNL     1      28.334  45.715  55.653  1.00  0.00     0.049 C 
HETATM   25  C   UNL     1      30.738  44.228  56.596  1.00  0.00     0.049 C 
HETATM   26  C   UNL     1      30.686  42.983  54.425  1.00  0.00     0.009 A 
HETATM   27  C   UNL     1      30.134  42.702  53.173  1.00  0.00     0.030 A 
ENDBRANCH  17  20
ENDBRANCH  15  16
ENDBRANCH   1  15
TORSDOF 3
ENDMDL
MODEL 6
REMARK VINA RESULT:      -8.4      3.524      5.165
REMARK  3 active torsions:
REMARK  status: ('A' for Active; 'I' for Inactive)
REMARK    1  A    between atoms: C_6  and  N_7 
REMARK       I    between atoms: N_7  and  C_8 
REMARK    2  A    between atoms: C_8  and  C_9 
REMARK    3  A    between atoms: C_9  and  C_10 
ROOT
HETATM    1  C   UNL     1      27.188  44.835  53.482  1.00  0.00     0.286 C 
HETATM    2  N   UNL     1      28.565  44.165  53.456  1.00  0.00    -0.056 N 
HETATM    3  H   UNL     1      28.430  43.233  53.015  1.00  0.00     0.278 HD
HETATM    4  H   UNL     1      29.202  44.684  52.839  1.00  0.00     0.278 HD
HETATM    5  C   UNL     1      29.120  44.037  54.840  1.00  0.00     0.209 C 
HETATM    6  C   UNL     1      29.271  45.457  55.434  1.00  0.00     0.115 C 
HETATM    7  N   UNL     1      28.036  46.235  55.346  1.00  0.00    -0.353 N 
HETATM    8  C   UNL     1      27.204  46.174  54.246  1.00  0.00     0.249 C 
HETATM    9  O   UNL     1      26.460  47.109  53.978  1.00  0.00    -0.271 OA
HETATM   10  C   UNL     1      30.459  43.313  54.812  1.00  0.00     0.035 C 
HETATM   11  C   UNL     1      31.025  43.218  56.231  1.00  0.00     0.002 C 
HETATM   12  C   UNL     1      31.111  44.583  56.918  1.00  0.00     0.002 C 
HETATM   13  C   UNL     1      29.790  45.356  56.869  1.00  0.00     0.027 C 
HETATM   14  H   UNL     1      28.019  47.149  55.796  1.00  0.00     0.163 HD
ENDROOT
BRANCH   1  15
HETATM   15  C   UNL     1      26.634  44.960  52.060  1.00  0.00     0.146 C 
BRANCH  15  16
HETATM   16  C   UNL     1      25.410  44.082  51.963  1.00  0.00     0.224 C 
HETATM   17  N   UNL     1      25.417  42.808  51.510  1.00  0.00    -0.327 N 
HETATM   18  H   UNL     1      24.555  42.327  51.752  1.00  0.00     0.169 HD
HETATM   19  O   UNL     1      24.355  44.531  52.441  1.00  0.00    -0.273 OA
BRANCH  17  20
HETATM   20  C   UNL     1      26.322  42.025  50.769  1.00  0.00     0.035 A 
HETATM   21  C   UNL     1      26.336  41.892  49.381  1.00  0.00     0.037 A 
HETATM   22  C   UNL     1      27.276  41.065  48.733  1.00  0.00    -0.054 A 
HETATM   23  C   UNL     1      28.212  40.343  49.496  1.00  0.00    -0.056 A 
HETATM   24  C   UNL     1      27.269  40.980  47.228  1.00  0.00     0.049 C 
HETATM   25  C   UNL     1      29.223  39.430  48.858  1.00  0.00     0.049 C 
HETATM   26  C   UNL     1      28.160  40.435  50.890  1.00  0.00     0.009 A 
HETATM   27  C   UNL     1      27.226  41.262  51.516  1.00  0.00     0.030 A 
ENDBRANCH  17  20
ENDBRANCH  15  16
ENDBRANCH   1  15
TORSDOF 3
ENDMDL
MODEL 7
REMARK VINA RESULT:      -8.4      4.352      9.256
REMARK  3 active torsions:
REMARK  status: ('A' for Active; 'I' for Inactive)
REMARK    1  A    between atoms: C_6  and  N_7 
REMARK       I    between atoms: N_7  and  C_8 
REMARK    2  A    between atoms: C_8  and  C_9 
REMARK    3  A    between atoms: C_9  and  C_10 
ROOT
HETATM    1  C   UNL     1      22.140  48.488  48.423  1.00  0.00     0.286 C 
HETATM    2  N   UNL     1      21.166  48.670  49.589  1.00  0.00    -0.056 N 
HETATM    3  H   UNL     1      20.769  47.730  49.790  1.00  0.00     0.278 HD
HETATM    4  H   UNL     1      21.673  48.954  50.437  1.00  0.00     0.278 HD
HETATM    5  C   UNL     1      20.091  49.650  49.237  1.00  0.00     0.209 C 
HETATM    6  C   UNL     1      20.758  51.011  48.932  1.00  0.00     0.115 C 
HETATM    7  N   UNL     1      21.827  50.902  47.940  1.00  0.00    -0.353 N 
HETATM    8  C   UNL     1      22.700  49.832  47.913  1.00  0.00     0.249 C 
HETATM    9  O   UNL     1      23.812  49.951  47.415  1.00  0.00    -0.271 OA
HETATM   10  C   UNL     1      19.090  49.777  50.377  1.00  0.00     0.035 C 
HETATM   11  C   UNL     1      18.016  50.804  50.012  1.00  0.00     0.002 C 
HETATM   12  C   UNL     1      18.614  52.153  49.602  1.00  0.00     0.002 C 
HETATM   13  C   UNL     1      19.688  52.022  48.518  1.00  0.00     0.027 C 
HETATM   14  H   UNL     1      22.260  51.764  47.612  1.00  0.00     0.163 HD
ENDROOT
BRANCH   1  15
HETATM   15  C   UNL     1      23.234  47.485  48.798  1.00  0.00     0.146 C 
BRANCH  15  16
HETATM   16  C   UNL     1      22.622  46.106  48.777  1.00  0.00     0.224 C 
HETATM   17  N   UNL     1      23.073  45.057  49.503  1.00  0.00    -0.327 N 
HETATM   18  H   UNL     1      22.388  44.307  49.530  1.00  0.00     0.169 HD
HETATM   19  O   UNL     1      21.567  45.967  48.136  1.00  0.00    -0.273 OA
BRANCH  17  20
HETATM   20  C   UNL     1      24.266  44.769  50.191  1.00  0.00     0.035 A 
HETATM   21  C   UNL     1      24.458  44.877  51.568  1.00  0.00     0.037 A 
HETATM   22  C   UNL     1      25.703  44.580  52.161  1.00  0.00    -0.054 A 
HETATM   23  C   UNL     1      26.783  44.183  51.351  1.00  0.00    -0.056 A 
HETATM   24  C   UNL     1      25.849  44.683  53.657  1.00  0.00     0.049 C 
HETATM   25  C   UNL     1      28.138  43.876  51.929  1.00  0.00     0.049 C 
HETATM   26  C   UNL     1      26.603  44.129  49.966  1.00  0.00     0.009 A 
HETATM   27  C   UNL     1      25.363  44.421  49.395  1.00  0.00     0.030 A 
ENDBRANCH  17  20
ENDBRANCH  15  16
ENDBRANCH   1  15
TORSDOF 3
ENDMDL
MODEL 8
REMARK VINA RESULT:      -8.2      2.320      7.986
REMARK  3 active torsions:
REMARK  status: ('A' for Active; 'I' for Inactive)
REMARK    1  A    between atoms: C_6  and  N_7 
REMARK       I    between atoms: N_7  and  C_8 
REMARK    2  A    between atoms: C_8  and  C_9 
REMARK    3  A    between atoms: C_9  and  C_10 
ROOT
HETATM    1  C   UNL     1      26.155  45.333  51.465  1.00  0.00     0.286 C 
HETATM    2  N   UNL     1      25.079  44.439  50.845  1.00  0.00    -0.056 N 
HETATM    3  H   UNL     1      25.537  43.527  50.640  1.00  0.00     0.278 HD
HETATM    4  H   UNL     1      24.341  44.240  51.532  1.00  0.00     0.278 HD
HETATM    5  C   UNL     1      24.522  45.060  49.602  1.00  0.00     0.209 C 
HETATM    6  C   UNL     1      23.881  46.414  49.983  1.00  0.00     0.115 C 
HETATM    7  N   UNL     1      24.794  47.275  50.734  1.00  0.00    -0.353 N 
HETATM    8  C   UNL     1      25.658  46.776  51.688  1.00  0.00     0.249 C 
HETATM    9  O   UNL     1      26.067  47.495  52.592  1.00  0.00    -0.271 OA
HETATM   10  C   UNL     1      23.499  44.135  48.957  1.00  0.00     0.035 C 
HETATM   11  C   UNL     1      22.919  44.798  47.705  1.00  0.00     0.002 C 
HETATM   12  C   UNL     1      22.353  46.191  47.993  1.00  0.00     0.002 C 
HETATM   13  C   UNL     1      23.347  47.097  48.724  1.00  0.00     0.027 C 
HETATM   14  H   UNL     1      24.485  48.222  50.947  1.00  0.00     0.163 HD
ENDROOT
BRANCH   1  15
HETATM   15  C   UNL     1      26.714  44.686  52.735  1.00  0.00     0.146 C 
BRANCH  15  16
HETATM   16  C   UNL     1      27.889  43.828  52.337  1.00  0.00     0.224 C 
HETATM   17  N   UNL     1      28.920  43.514  53.155  1.00  0.00    -0.327 N 
HETATM   18  H   UNL     1      29.468  42.745  52.778  1.00  0.00     0.169 HD
HETATM   19  O   UNL     1      27.839  43.286  51.220  1.00  0.00    -0.273 OA
BRANCH  17  20
HETATM   20  C   UNL     1      29.410  44.025  54.371  1.00  0.00     0.035 A 
HETATM   21  C   UNL     1      30.415  43.451  55.149  1.00  0.00     0.037 A 
HETATM   22  C   UNL     1      30.823  44.033  56.367  1.00  0.00    -0.054 A 
HETATM   23  C   UNL     1      30.197  45.209  56.821  1.00  0.00    -0.056 A 
HETATM   24  C   UNL     1      31.934  43.390  57.155  1.00  0.00     0.049 C 
HETATM   25  C   UNL     1      30.578  45.860  58.122  1.00  0.00     0.049 C 
HETATM   26  C   UNL     1      29.152  45.752  56.067  1.00  0.00     0.009 A 
HETATM   27  C   UNL     1      28.763  45.165  54.861  1.00  0.00     0.030 A 
ENDBRANCH  17  20
ENDBRANCH  15  16
ENDBRANCH   1  15
TORSDOF 3
ENDMDL
MODEL 9
REMARK VINA RESULT:      -8.1      2.094      3.353
REMARK  3 active torsions:
REMARK  status: ('A' for Active; 'I' for Inactive)
REMARK    1  A    between atoms: C_6  and  N_7 
REMARK       I    between atoms: N_7  and  C_8 
REMARK    2  A    between atoms: C_8  and  C_9 
REMARK    3  A    between atoms: C_9  and  C_10 
ROOT
HETATM    1  C   UNL     1      25.299  45.327  51.740  1.00  0.00     0.286 C 
HETATM    2  N   UNL     1      26.475  44.369  51.537  1.00  0.00    -0.056 N 
HETATM    3  H   UNL     1      26.095  43.538  51.040  1.00  0.00     0.278 HD
HETATM    4  H   UNL     1      27.170  44.787  50.906  1.00  0.00     0.278 HD
HETATM    5  C   UNL     1      27.083  43.988  52.850  1.00  0.00     0.209 C 
HETATM    6  C   UNL     1      27.603  45.273  53.535  1.00  0.00     0.115 C 
HETATM    7  N   UNL     1      26.581  46.315  53.620  1.00  0.00    -0.353 N 
HETATM    8  C   UNL     1      25.681  46.549  52.600  1.00  0.00     0.249 C 
HETATM    9  O   UNL     1      25.158  47.649  52.474  1.00  0.00    -0.271 OA
HETATM   10  C   UNL     1      28.211  42.986  52.644  1.00  0.00     0.035 C 
HETATM   11  C   UNL     1      28.840  42.629  53.993  1.00  0.00     0.002 C 
HETATM   12  C   UNL     1      29.291  43.868  54.771  1.00  0.00     0.002 C 
HETATM   13  C   UNL     1      28.186  44.921  54.903  1.00  0.00     0.027 C 
HETATM   14  H   UNL     1      26.810  47.162  54.139  1.00  0.00     0.163 HD
ENDROOT
BRANCH   1  15
HETATM   15  C   UNL     1      24.688  45.710  50.389  1.00  0.00     0.146 C 
BRANCH  15  16
HETATM   16  C   UNL     1      25.670  46.606  49.676  1.00  0.00     0.224 C 
HETATM   17  N   UNL     1      25.409  47.878  49.298  1.00  0.00    -0.327 N 
HETATM   18  H   UNL     1      26.264  48.375  49.060  1.00  0.00     0.169 HD
HETATM   19  O   UNL     1      26.827  46.177  49.536  1.00  0.00    -0.273 OA
BRANCH  17  20
HETATM   20  C   UNL     1      24.238  48.643  49.136  1.00  0.00     0.035 A 
HETATM   21  C   UNL     1      22.933  48.168  49.256  1.00  0.00     0.037 A 
HETATM   22  C   UNL     1      21.823  49.015  49.055  1.00  0.00    -0.054 A 
HETATM   23  C   UNL     1      22.029  50.364  48.712  1.00  0.00    -0.056 A 
HETATM   24  C   UNL     1      20.433  48.460  49.226  1.00  0.00     0.049 C 
HETATM   25  C   UNL     1      20.882  51.306  48.466  1.00  0.00     0.049 C 
HETATM   26  C   UNL     1      23.338  50.824  48.539  1.00  0.00     0.009 A 
HETATM   27  C   UNL     1      24.426  49.973  48.745  1.00  0.00     0.030 A 
ENDBRANCH  17  20
ENDBRANCH  15  16
ENDBRANCH   1  15
TORSDOF 3
ENDMDL
MODEL 10
REMARK VINA RESULT:      -8.1      3.622      7.602
REMARK  3 active torsions:
REMARK  status: ('A' for Active; 'I' for Inactive)
REMARK    1  A    between atoms: C_6  and  N_7 
REMARK       I    between atoms: N_7  and  C_8 
REMARK    2  A    between atoms: C_8  and  C_9 
REMARK    3  A    between atoms: C_9  and  C_10 
ROOT
HETATM    1  C   UNL     1      26.382  44.391  50.323  1.00  0.00     0.286 C 
HETATM    2  N   UNL     1      26.451  42.927  50.762  1.00  0.00    -0.056 N 
HETATM    3  H   UNL     1      27.298  42.838  51.360  1.00  0.00     0.278 HD
HETATM    4  H   UNL     1      25.650  42.697  51.364  1.00  0.00     0.278 HD
HETATM    5  C   UNL     1      26.526  42.018  49.575  1.00  0.00     0.209 C 
HETATM    6  C   UNL     1      25.248  42.221  48.728  1.00  0.00     0.115 C 
HETATM    7  N   UNL     1      25.011  43.627  48.402  1.00  0.00    -0.353 N 
HETATM    8  C   UNL     1      25.252  44.643  49.304  1.00  0.00     0.249 C 
HETATM    9  O   UNL     1      24.657  45.710  49.211  1.00  0.00    -0.271 OA
HETATM   10  C   UNL     1      26.658  40.568  50.021  1.00  0.00     0.035 C 
HETATM   11  C   UNL     1      26.704  39.652  48.796  1.00  0.00     0.002 C 
HETATM   12  C   UNL     1      25.513  39.871  47.860  1.00  0.00     0.002 C 
HETATM   13  C   UNL     1      25.319  41.342  47.480  1.00  0.00     0.027 C 
HETATM   14  H   UNL     1      24.241  43.843  47.769  1.00  0.00     0.163 HD
ENDROOT
BRANCH   1  15
HETATM   15  C   UNL     1      26.305  45.308  51.547  1.00  0.00     0.146 C 
BRANCH  15  16
HETATM   16  C   UNL     1      25.540  44.577  52.623  1.00  0.00     0.224 C 
HETATM   17  N   UNL     1      26.054  44.230  53.824  1.00  0.00    -0.327 N 
HETATM   18  H   UNL     1      25.319  43.971  54.478  1.00  0.00     0.169 HD
HETATM   19  O   UNL     1      24.328  44.390  52.425  1.00  0.00    -0.273 OA
BRANCH  17  20
HETATM   20  C   UNL     1      27.354  44.121  54.352  1.00  0.00     0.035 A 
HETATM   21  C   UNL     1      28.024  45.108  55.075  1.00  0.00     0.037 A 
HETATM   22  C   UNL     1      29.338  44.907  55.546  1.00  0.00    -0.054 A 
HETATM   23  C   UNL     1      29.999  43.695  55.271  1.00  0.00    -0.056 A 
HETATM   24  C   UNL     1      30.007  45.993  56.349  1.00  0.00     0.049 C 
HETATM   25  C   UNL     1      31.408  43.436  55.732  1.00  0.00     0.049 C 
HETATM   26  C   UNL     1      29.346  42.730  54.500  1.00  0.00     0.009 A 
HETATM   27  C   UNL     1      28.043  42.943  54.044  1.00  0.00     0.030 A 
ENDBRANCH  17  20
ENDBRANCH  15  16
ENDBRANCH   1  15
TORSDOF 3
ENDMDL
