MODEL 1
REMARK VINA RESULT:      -9.9      0.000      0.000
REMARK  3 active torsions:
REMARK  status: ('A' for Active; 'I' for Inactive)
REMARK    1  A    between atoms: C_3  and  C_4 
REMARK       I    between atoms: C_4  and  N_5 
REMARK    2  A    between atoms: N_5  and  C_6 
REMARK    3  A    between atoms: C_13  and  C_14 
REMARK       I    between atoms: C_14  and  N_15 
ROOT
HETATM    1  C   UNL     1      26.112  47.581  49.991  1.00  0.00     0.035 A 
HETATM    2  C   UNL     1      24.756  47.692  49.643  1.00  0.00     0.046 A 
HETATM    3  C   UNL     1      24.334  48.740  48.797  1.00  0.00     0.030 A 
HETATM    4  C   UNL     1      25.278  49.645  48.333  1.00  0.00     0.063 A 
HETATM    5  N   UNL     1      24.583  50.528  47.556  1.00  0.00    -0.277 N 
HETATM    6  H   UNL     1      24.952  51.330  47.056  1.00  0.00     0.189 HD
HETATM    7  N   UNL     1      23.265  50.272  47.466  1.00  0.00    -0.168 NA
HETATM    8  C   UNL     1      23.099  49.168  48.229  1.00  0.00     0.156 A 
HETATM    9  C   UNL     1      26.633  49.565  48.662  1.00  0.00     0.034 A 
HETATM   10  C   UNL     1      27.029  48.512  49.499  1.00  0.00     0.032 A 
ENDROOT
BRANCH   1  11
HETATM   11  N   UNL     1      26.461  46.511  50.837  1.00  0.00    -0.325 N 
HETATM   12  C   UNL     1      26.334  45.152  50.600  1.00  0.00     0.252 C 
HETATM   13  O   UNL     1      25.854  44.626  49.600  1.00  0.00    -0.270 OA
HETATM   14  H   UNL     1      26.897  46.751  51.724  1.00  0.00     0.169 HD
BRANCH  12  15
HETATM   15  C   UNL     1      26.789  44.298  51.790  1.00  0.00     0.229 C 
HETATM   16  C   UNL     1      26.949  45.177  53.044  1.00  0.00     0.056 C 
HETATM   17  C   UNL     1      25.698  45.203  53.909  1.00  0.00     0.018 C 
HETATM   18  C   UNL     1      28.122  44.497  53.656  1.00  0.00    -0.018 A 
HETATM   19  C   UNL     1      28.712  43.671  52.710  1.00  0.00     0.076 A 
HETATM   20  C   UNL     1      28.676  44.629  54.917  1.00  0.00     0.010 A 
HETATM   21  O   UNL     1      28.063  43.660  51.504  1.00  0.00    -0.335 OA
HETATM   22  C   UNL     1      29.861  42.955  52.975  1.00  0.00     0.037 A 
HETATM   23  C   UNL     1      30.422  43.070  54.247  1.00  0.00     0.003 A 
HETATM   24  C   UNL     1      29.832  43.902  55.213  1.00  0.00     0.001 A 
ENDBRANCH  12  15
ENDBRANCH   1  11
BRANCH   8  25
HETATM   25  C   UNL     1      21.779  48.546  48.397  1.00  0.00     0.270 C 
HETATM   26  N   UNL     1      21.215  48.752  49.627  1.00  0.00    -0.365 N 
HETATM   27  H   UNL     1      21.727  49.301  50.308  1.00  0.00     0.159 HD
HETATM   28  H   UNL     1      20.307  48.370  49.834  1.00  0.00     0.159 HD
HETATM   29  O   UNL     1      21.203  47.895  47.532  1.00  0.00    -0.266 OA
ENDBRANCH   8  25
TORSDOF 3
ENDMDL
MODEL 2
REMARK VINA RESULT:      -9.8      2.394      4.054
REMARK  3 active torsions:
REMARK  status: ('A' for Active; 'I' for Inactive)
REMARK    1  A    between atoms: C_3  and  C_4 
REMARK       I    between atoms: C_4  and  N_5 
REMARK    2  A    between atoms: N_5  and  C_6 
REMARK    3  A    between atoms: C_13  and  C_14 
REMARK       I    between atoms: C_14  and  N_15 
ROOT
HETATM    1  C   UNL     1      25.975  44.732  51.538  1.00  0.00     0.035 A 
HETATM    2  C   UNL     1      25.501  45.945  51.013  1.00  0.00     0.046 A 
HETATM    3  C   UNL     1      24.343  45.954  50.207  1.00  0.00     0.030 A 
HETATM    4  C   UNL     1      23.701  44.752  49.946  1.00  0.00     0.063 A 
HETATM    5  N   UNL     1      22.637  45.074  49.152  1.00  0.00    -0.277 N 
HETATM    6  H   UNL     1      21.946  44.440  48.764  1.00  0.00     0.189 HD
HETATM    7  N   UNL     1      22.524  46.386  48.878  1.00  0.00    -0.168 NA
HETATM    8  C   UNL     1      23.573  46.942  49.525  1.00  0.00     0.156 A 
HETATM    9  C   UNL     1      24.146  43.528  50.450  1.00  0.00     0.034 A 
HETATM   10  C   UNL     1      25.295  43.545  51.254  1.00  0.00     0.032 A 
ENDROOT
BRANCH   1  11
HETATM   11  N   UNL     1      27.133  44.798  52.336  1.00  0.00    -0.325 N 
HETATM   12  C   UNL     1      27.263  44.528  53.687  1.00  0.00     0.252 C 
HETATM   13  O   UNL     1      26.362  44.206  54.458  1.00  0.00    -0.270 OA
HETATM   14  H   UNL     1      28.001  45.039  51.862  1.00  0.00     0.169 HD
BRANCH  12  15
HETATM   15  C   UNL     1      28.687  44.758  54.205  1.00  0.00     0.229 C 
HETATM   16  C   UNL     1      29.377  43.407  54.479  1.00  0.00     0.056 C 
HETATM   17  C   UNL     1      30.194  42.912  53.295  1.00  0.00     0.018 C 
HETATM   18  C   UNL     1      30.173  43.791  55.674  1.00  0.00    -0.018 A 
HETATM   19  C   UNL     1      29.692  44.993  56.173  1.00  0.00     0.076 A 
HETATM   20  C   UNL     1      31.196  43.121  56.322  1.00  0.00     0.010 A 
HETATM   21  O   UNL     1      28.667  45.526  55.438  1.00  0.00    -0.335 OA
HETATM   22  C   UNL     1      30.200  45.569  57.319  1.00  0.00     0.037 A 
HETATM   23  C   UNL     1      31.240  44.909  57.974  1.00  0.00     0.003 A 
HETATM   24  C   UNL     1      31.736  43.692  57.478  1.00  0.00     0.001 A 
ENDBRANCH  12  15
ENDBRANCH   1  11
BRANCH   8  25
HETATM   25  C   UNL     1      23.818  48.390  49.485  1.00  0.00     0.270 C 
HETATM   26  N   UNL     1      22.690  49.153  49.616  1.00  0.00    -0.365 N 
HETATM   27  H   UNL     1      21.799  48.684  49.730  1.00  0.00     0.159 HD
HETATM   28  H   UNL     1      22.759  50.157  49.608  1.00  0.00     0.159 HD
HETATM   29  O   UNL     1      24.924  48.903  49.350  1.00  0.00    -0.266 OA
ENDBRANCH   8  25
TORSDOF 3
ENDMDL
MODEL 3
REMARK VINA RESULT:      -9.4      6.018      7.823
REMARK  3 active torsions:
REMARK  status: ('A' for Active; 'I' for Inactive)
REMARK    1  A    between atoms: C_3  and  C_4 
REMARK       I    between atoms: C_4  and  N_5 
REMARK    2  A    between atoms: N_5  and  C_6 
REMARK    3  A    between atoms: C_13  and  C_14 
REMARK       I    between atoms: C_14  and  N_15 
ROOT
HETATM    1  C   UNL     1      27.853  41.968  51.381  1.00  0.00     0.035 A 
HETATM    2  C   UNL     1      28.371  40.705  51.051  1.00  0.00     0.046 A 
HETATM    3  C   UNL     1      28.174  40.184  49.754  1.00  0.00     0.030 A 
HETATM    4  C   UNL     1      27.460  40.938  48.833  1.00  0.00     0.063 A 
HETATM    5  N   UNL     1      27.432  40.185  47.693  1.00  0.00    -0.277 N 
HETATM    6  H   UNL     1      26.990  40.423  46.811  1.00  0.00     0.189 HD
HETATM    7  N   UNL     1      28.074  39.007  47.788  1.00  0.00    -0.168 NA
HETATM    8  C   UNL     1      28.537  38.994  49.058  1.00  0.00     0.156 A 
HETATM    9  C   UNL     1      26.929  42.195  49.129  1.00  0.00     0.034 A 
HETATM   10  C   UNL     1      27.144  42.694  50.421  1.00  0.00     0.032 A 
ENDROOT
BRANCH   1  11
HETATM   11  N   UNL     1      28.089  42.425  52.691  1.00  0.00    -0.325 N 
HETATM   12  C   UNL     1      29.240  42.997  53.207  1.00  0.00     0.252 C 
HETATM   13  O   UNL     1      30.295  43.184  52.607  1.00  0.00    -0.270 OA
HETATM   14  H   UNL     1      27.311  42.366  53.344  1.00  0.00     0.169 HD
BRANCH  12  15
HETATM   15  C   UNL     1      29.122  43.325  54.700  1.00  0.00     0.229 C 
HETATM   16  C   UNL     1      28.910  44.839  54.896  1.00  0.00     0.056 C 
HETATM   17  C   UNL     1      27.440  45.220  54.989  1.00  0.00     0.018 C 
HETATM   18  C   UNL     1      29.687  45.021  56.150  1.00  0.00    -0.018 A 
HETATM   19  C   UNL     1      30.484  43.905  56.357  1.00  0.00     0.076 A 
HETATM   20  C   UNL     1      29.749  46.100  57.016  1.00  0.00     0.010 A 
HETATM   21  O   UNL     1      30.328  42.931  55.408  1.00  0.00    -0.335 OA
HETATM   22  C   UNL     1      31.363  43.816  57.417  1.00  0.00     0.037 A 
HETATM   23  C   UNL     1      31.425  44.892  58.304  1.00  0.00     0.003 A 
HETATM   24  C   UNL     1      30.622  46.027  58.105  1.00  0.00     0.001 A 
ENDBRANCH  12  15
ENDBRANCH   1  11
BRANCH   8  25
HETATM   25  C   UNL     1      29.314  37.861  49.579  1.00  0.00     0.270 C 
HETATM   26  N   UNL     1      28.567  36.928  50.244  1.00  0.00    -0.365 N 
HETATM   27  H   UNL     1      27.567  37.077  50.326  1.00  0.00     0.159 HD
HETATM   28  H   UNL     1      29.010  36.111  50.631  1.00  0.00     0.159 HD
HETATM   29  O   UNL     1      30.526  37.730  49.444  1.00  0.00    -0.266 OA
ENDBRANCH   8  25
TORSDOF 3
ENDMDL
MODEL 4
REMARK VINA RESULT:      -9.3      1.907      2.822
REMARK  3 active torsions:
REMARK  status: ('A' for Active; 'I' for Inactive)
REMARK    1  A    between atoms: C_3  and  C_4 
REMARK       I    between atoms: C_4  and  N_5 
REMARK    2  A    between atoms: N_5  and  C_6 
REMARK    3  A    between atoms: C_13  and  C_14 
REMARK       I    between atoms: C_14  and  N_15 
ROOT
HETATM    1  C   UNL     1      24.387  45.405  50.808  1.00  0.00     0.035 A 
HETATM    2  C   UNL     1      24.410  46.741  50.377  1.00  0.00     0.046 A 
HETATM    3  C   UNL     1      23.621  47.135  49.275  1.00  0.00     0.030 A 
HETATM    4  C   UNL     1      22.842  46.181  48.637  1.00  0.00     0.063 A 
HETATM    5  N   UNL     1      22.208  46.847  47.627  1.00  0.00    -0.277 N 
HETATM    6  H   UNL     1      21.557  46.462  46.950  1.00  0.00     0.189 HD
HETATM    7  N   UNL     1      22.500  48.158  47.556  1.00  0.00    -0.168 NA
HETATM    8  C   UNL     1      23.374  48.349  48.570  1.00  0.00     0.156 A 
HETATM    9  C   UNL     1      22.797  44.844  49.038  1.00  0.00     0.034 A 
HETATM   10  C   UNL     1      23.584  44.478  50.139  1.00  0.00     0.032 A 
ENDROOT
BRANCH   1  11
HETATM   11  N   UNL     1      25.197  45.084  51.914  1.00  0.00    -0.325 N 
HETATM   12  C   UNL     1      26.537  44.736  51.926  1.00  0.00     0.252 C 
HETATM   13  O   UNL     1      27.268  44.612  50.947  1.00  0.00    -0.270 OA
HETATM   14  H   UNL     1      24.763  45.147  52.833  1.00  0.00     0.169 HD
BRANCH  12  15
HETATM   15  C   UNL     1      27.055  44.415  53.333  1.00  0.00     0.229 C 
HETATM   16  C   UNL     1      27.613  45.688  53.997  1.00  0.00     0.056 C 
HETATM   17  C   UNL     1      26.581  46.406  54.853  1.00  0.00     0.018 C 
HETATM   18  C   UNL     1      28.741  45.080  54.752  1.00  0.00    -0.018 A 
HETATM   19  C   UNL     1      28.977  43.803  54.265  1.00  0.00     0.076 A 
HETATM   20  C   UNL     1      29.546  45.615  55.743  1.00  0.00     0.010 A 
HETATM   21  O   UNL     1      28.113  43.421  53.274  1.00  0.00    -0.335 OA
HETATM   22  C   UNL     1      30.008  43.016  54.735  1.00  0.00     0.037 A 
HETATM   23  C   UNL     1      30.819  43.539  55.744  1.00  0.00     0.003 A 
HETATM   24  C   UNL     1      30.588  44.831  56.245  1.00  0.00     0.001 A 
ENDBRANCH  12  15
ENDBRANCH   1  11
BRANCH   8  25
HETATM   25  C   UNL     1      23.948  49.672  48.848  1.00  0.00     0.270 C 
HETATM   26  N   UNL     1      25.107  49.935  48.170  1.00  0.00    -0.365 N 
HETATM   27  H   UNL     1      25.473  49.225  47.544  1.00  0.00     0.159 HD
HETATM   28  H   UNL     1      25.570  50.820  48.290  1.00  0.00     0.159 HD
HETATM   29  O   UNL     1      23.456  50.495  49.613  1.00  0.00    -0.266 OA
ENDBRANCH   8  25
TORSDOF 3
ENDMDL
MODEL 5
REMARK VINA RESULT:      -9.0      4.631      6.197
REMARK  3 active torsions:
REMARK  status: ('A' for Active; 'I' for Inactive)
REMARK    1  A    between atoms: C_3  and  C_4 
REMARK       I    between atoms: C_4  and  N_5 
REMARK    2  A    between atoms: N_5  and  C_6 
REMARK    3  A    between atoms: C_13  and  C_14 
REMARK       I    between atoms: C_14  and  N_15 
ROOT
HETATM    1  C   UNL     1      26.366  43.711  51.470  1.00  0.00     0.035 A 
HETATM    2  C   UNL     1      26.463  42.484  50.794  1.00  0.00     0.046 A 
HETATM    3  C   UNL     1      25.434  42.085  49.915  1.00  0.00     0.030 A 
HETATM    4  C   UNL     1      24.339  42.920  49.745  1.00  0.00     0.063 A 
HETATM    5  N   UNL     1      23.526  42.276  48.857  1.00  0.00    -0.277 N 
HETATM    6  H   UNL     1      22.630  42.594  48.502  1.00  0.00     0.189 HD
HETATM    7  N   UNL     1      24.000  41.094  48.424  1.00  0.00    -0.168 NA
HETATM    8  C   UNL     1      25.180  40.964  49.071  1.00  0.00     0.156 A 
HETATM    9  C   UNL     1      24.209  44.145  50.404  1.00  0.00     0.034 A 
HETATM   10  C   UNL     1      25.247  44.523  51.267  1.00  0.00     0.032 A 
ENDROOT
BRANCH   1  11
HETATM   11  N   UNL     1      27.430  44.046  52.329  1.00  0.00    -0.325 N 
HETATM   12  C   UNL     1      27.433  44.099  53.712  1.00  0.00     0.252 C 
HETATM   13  O   UNL     1      26.477  43.890  54.454  1.00  0.00    -0.270 OA
HETATM   14  H   UNL     1      28.328  44.241  51.891  1.00  0.00     0.169 HD
BRANCH  12  15
HETATM   15  C   UNL     1      28.781  44.550  54.286  1.00  0.00     0.229 C 
HETATM   16  C   UNL     1      29.629  43.324  54.675  1.00  0.00     0.056 C 
HETATM   17  C   UNL     1      30.573  42.885  53.565  1.00  0.00     0.018 C 
HETATM   18  C   UNL     1      30.296  43.877  55.884  1.00  0.00    -0.018 A 
HETATM   19  C   UNL     1      29.629  45.025  56.285  1.00  0.00     0.076 A 
HETATM   20  C   UNL     1      31.361  43.388  56.621  1.00  0.00     0.010 A 
HETATM   21  O   UNL     1      28.586  45.372  55.468  1.00  0.00    -0.335 OA
HETATM   22  C   UNL     1      29.987  45.725  57.418  1.00  0.00     0.037 A 
HETATM   23  C   UNL     1      31.067  45.250  58.163  1.00  0.00     0.003 A 
HETATM   24  C   UNL     1      31.751  44.089  57.766  1.00  0.00     0.001 A 
ENDBRANCH  12  15
ENDBRANCH   1  11
BRANCH   8  25
HETATM   25  C   UNL     1      26.038  39.788  48.872  1.00  0.00     0.270 C 
HETATM   26  N   UNL     1      26.147  38.981  49.972  1.00  0.00    -0.365 N 
HETATM   27  H   UNL     1      25.645  39.241  50.814  1.00  0.00     0.159 HD
HETATM   28  H   UNL     1      26.707  38.146  49.929  1.00  0.00     0.159 HD
HETATM   29  O   UNL     1      26.617  39.521  47.825  1.00  0.00    -0.266 OA
ENDBRANCH   8  25
TORSDOF 3
ENDMDL
MODEL 6
REMARK VINA RESULT:      -9.0      2.449      8.333
REMARK  3 active torsions:
REMARK  status: ('A' for Active; 'I' for Inactive)
REMARK    1  A    between atoms: C_3  and  C_4 
REMARK       I    between atoms: C_4  and  N_5 
REMARK    2  A    between atoms: N_5  and  C_6 
REMARK    3  A    between atoms: C_13  and  C_14 
REMARK       I    between atoms: C_14  and  N_15 
ROOT
HETATM    1  C   UNL     1      25.663  46.558  52.124  1.00  0.00     0.035 A 
HETATM    2  C   UNL     1      26.148  45.251  51.960  1.00  0.00     0.046 A 
HETATM    3  C   UNL     1      26.865  44.633  53.007  1.00  0.00     0.030 A 
HETATM    4  C   UNL     1      27.080  45.344  54.179  1.00  0.00     0.063 A 
HETATM    5  N   UNL     1      27.792  44.504  54.987  1.00  0.00    -0.277 N 
HETATM    6  H   UNL     1      28.128  44.693  55.926  1.00  0.00     0.189 HD
HETATM    7  N   UNL     1      28.053  43.300  54.447  1.00  0.00    -0.168 NA
HETATM    8  C   UNL     1      27.486  43.368  53.221  1.00  0.00     0.156 A 
HETATM    9  C   UNL     1      26.614  46.646  54.374  1.00  0.00     0.034 A 
HETATM   10  C   UNL     1      25.899  47.236  53.322  1.00  0.00     0.032 A 
ENDROOT
BRANCH   1  11
HETATM   11  N   UNL     1      24.955  47.110  51.039  1.00  0.00    -0.325 N 
HETATM   12  C   UNL     1      25.459  47.625  49.857  1.00  0.00     0.252 C 
HETATM   13  O   UNL     1      26.643  47.724  49.549  1.00  0.00    -0.270 OA
HETATM   14  H   UNL     1      23.939  47.103  51.104  1.00  0.00     0.169 HD
BRANCH  12  15
HETATM   15  C   UNL     1      24.364  48.177  48.936  1.00  0.00     0.229 C 
HETATM   16  C   UNL     1      24.439  49.715  48.883  1.00  0.00     0.056 C 
HETATM   17  C   UNL     1      25.275  50.224  47.719  1.00  0.00     0.018 C 
HETATM   18  C   UNL     1      22.985  50.014  48.791  1.00  0.00    -0.018 A 
HETATM   19  C   UNL     1      22.265  48.879  49.133  1.00  0.00     0.076 A 
HETATM   20  C   UNL     1      22.333  51.199  48.496  1.00  0.00     0.010 A 
HETATM   21  O   UNL     1      23.048  47.793  49.418  1.00  0.00    -0.335 OA
HETATM   22  C   UNL     1      20.887  48.875  49.194  1.00  0.00     0.037 A 
HETATM   23  C   UNL     1      20.217  50.059  48.887  1.00  0.00     0.003 A 
HETATM   24  C   UNL     1      20.936  51.215  48.539  1.00  0.00     0.001 A 
ENDBRANCH  12  15
ENDBRANCH   1  11
BRANCH   8  25
HETATM   25  C   UNL     1      27.540  42.234  52.288  1.00  0.00     0.270 C 
HETATM   26  N   UNL     1      27.318  41.017  52.871  1.00  0.00    -0.365 N 
HETATM   27  H   UNL     1      27.136  40.984  53.868  1.00  0.00     0.159 HD
HETATM   28  H   UNL     1      27.328  40.181  52.310  1.00  0.00     0.159 HD
HETATM   29  O   UNL     1      27.761  42.336  51.086  1.00  0.00    -0.266 OA
ENDBRANCH   8  25
TORSDOF 3
ENDMDL
MODEL 7
REMARK VINA RESULT:      -8.9      3.630      4.618
REMARK  3 active torsions:
REMARK  status: ('A' for Active; 'I' for Inactive)
REMARK    1  A    between atoms: C_3  and  C_4 
REMARK       I    between atoms: C_4  and  N_5 
REMARK    2  A    between atoms: N_5  and  C_6 
REMARK    3  A    between atoms: C_13  and  C_14 
REMARK       I    between atoms: C_14  and  N_15 
ROOT
HETATM    1  C   UNL     1      25.017  42.439  50.631  1.00  0.00     0.035 A 
HETATM    2  C   UNL     1      23.967  43.299  50.266  1.00  0.00     0.046 A 
HETATM    3  C   UNL     1      23.232  43.045  49.088  1.00  0.00     0.030 A 
HETATM    4  C   UNL     1      23.573  41.948  48.311  1.00  0.00     0.063 A 
HETATM    5  N   UNL     1      22.705  41.966  47.257  1.00  0.00    -0.277 N 
HETATM    6  H   UNL     1      22.663  41.311  46.483  1.00  0.00     0.189 HD
HETATM    7  N   UNL     1      21.818  42.978  47.283  1.00  0.00    -0.168 NA
HETATM    8  C   UNL     1      22.134  43.653  48.411  1.00  0.00     0.156 A 
HETATM    9  C   UNL     1      24.612  41.076  48.643  1.00  0.00     0.034 A 
HETATM   10  C   UNL     1      25.324  41.344  49.820  1.00  0.00     0.032 A 
ENDROOT
BRANCH   1  11
HETATM   11  N   UNL     1      25.705  42.751  51.818  1.00  0.00    -0.325 N 
HETATM   12  C   UNL     1      26.914  43.410  51.963  1.00  0.00     0.252 C 
HETATM   13  O   UNL     1      27.635  43.822  51.058  1.00  0.00    -0.270 OA
HETATM   14  H   UNL     1      25.248  42.498  52.692  1.00  0.00     0.169 HD
BRANCH  12  15
HETATM   15  C   UNL     1      27.358  43.521  53.427  1.00  0.00     0.229 C 
HETATM   16  C   UNL     1      27.540  45.001  53.815  1.00  0.00     0.056 C 
HETATM   17  C   UNL     1      26.293  45.600  54.448  1.00  0.00     0.018 C 
HETATM   18  C   UNL     1      28.702  44.858  54.732  1.00  0.00    -0.018 A 
HETATM   19  C   UNL     1      29.274  43.607  54.550  1.00  0.00     0.076 A 
HETATM   20  C   UNL     1      29.264  45.767  55.612  1.00  0.00     0.010 A 
HETATM   21  O   UNL     1      28.619  42.829  53.633  1.00  0.00    -0.335 OA
HETATM   22  C   UNL     1      30.411  43.214  55.225  1.00  0.00     0.037 A 
HETATM   23  C   UNL     1      30.979  44.116  56.125  1.00  0.00     0.003 A 
HETATM   24  C   UNL     1      30.408  45.385  56.318  1.00  0.00     0.001 A 
ENDBRANCH  12  15
ENDBRANCH   1  11
BRANCH   8  25
HETATM   25  C   UNL     1      21.389  44.850  48.822  1.00  0.00     0.270 C 
HETATM   26  N   UNL     1      22.159  45.974  48.949  1.00  0.00    -0.365 N 
HETATM   27  H   UNL     1      23.152  45.905  48.756  1.00  0.00     0.159 HD
HETATM   28  H   UNL     1      21.735  46.846  49.219  1.00  0.00     0.159 HD
HETATM   29  O   UNL     1      20.182  44.876  49.037  1.00  0.00    -0.266 OA
ENDBRANCH   8  25
TORSDOF 3
ENDMDL
MODEL 8
REMARK VINA RESULT:      -8.5      4.525      5.861
REMARK  3 active torsions:
REMARK  status: ('A' for Active; 'I' for Inactive)
REMARK    1  A    between atoms: C_3  and  C_4 
REMARK       I    between atoms: C_4  and  N_5 
REMARK    2  A    between atoms: N_5  and  C_6 
REMARK    3  A    between atoms: C_13  and  C_14 
REMARK       I    between atoms: C_14  and  N_15 
ROOT
HETATM    1  C   UNL     1      26.434  41.060  50.659  1.00  0.00     0.035 A 
HETATM    2  C   UNL     1      25.450  41.748  49.931  1.00  0.00     0.046 A 
HETATM    3  C   UNL     1      24.997  41.228  48.700  1.00  0.00     0.030 A 
HETATM    4  C   UNL     1      25.547  40.043  48.233  1.00  0.00     0.063 A 
HETATM    5  N   UNL     1      24.926  39.800  47.041  1.00  0.00    -0.277 N 
HETATM    6  H   UNL     1      25.081  39.017  46.415  1.00  0.00     0.189 HD
HETATM    7  N   UNL     1      24.010  40.722  46.692  1.00  0.00    -0.168 NA
HETATM    8  C   UNL     1      24.045  41.611  47.710  1.00  0.00     0.156 A 
HETATM    9  C   UNL     1      26.529  39.335  48.929  1.00  0.00     0.034 A 
HETATM   10  C   UNL     1      26.958  39.867  50.153  1.00  0.00     0.032 A 
ENDROOT
BRANCH   1  11
HETATM   11  N   UNL     1      26.836  41.635  51.879  1.00  0.00    -0.325 N 
HETATM   12  C   UNL     1      27.471  42.847  52.090  1.00  0.00     0.252 C 
HETATM   13  O   UNL     1      27.833  43.642  51.226  1.00  0.00    -0.270 OA
HETATM   14  H   UNL     1      26.605  41.121  52.726  1.00  0.00     0.169 HD
BRANCH  12  15
HETATM   15  C   UNL     1      27.784  43.104  53.568  1.00  0.00     0.229 C 
HETATM   16  C   UNL     1      27.799  44.619  53.852  1.00  0.00     0.056 C 
HETATM   17  C   UNL     1      26.456  45.138  54.343  1.00  0.00     0.018 C 
HETATM   18  C   UNL     1      28.892  44.655  54.859  1.00  0.00    -0.018 A 
HETATM   19  C   UNL     1      29.588  43.455  54.818  1.00  0.00     0.076 A 
HETATM   20  C   UNL     1      29.297  45.673  55.705  1.00  0.00     0.010 A 
HETATM   21  O   UNL     1      29.083  42.554  53.919  1.00  0.00    -0.335 OA
HETATM   22  C   UNL     1      30.698  43.223  55.603  1.00  0.00     0.037 A 
HETATM   23  C   UNL     1      31.108  44.237  56.469  1.00  0.00     0.003 A 
HETATM   24  C   UNL     1      30.411  45.455  56.520  1.00  0.00     0.001 A 
ENDBRANCH  12  15
ENDBRANCH   1  11
BRANCH   8  25
HETATM   25  C   UNL     1      23.175  42.794  47.724  1.00  0.00     0.270 C 
HETATM   26  N   UNL     1      23.680  43.869  47.044  1.00  0.00    -0.365 N 
HETATM   27  H   UNL     1      24.584  43.776  46.594  1.00  0.00     0.159 HD
HETATM   28  H   UNL     1      23.152  44.724  46.991  1.00  0.00     0.159 HD
HETATM   29  O   UNL     1      22.084  42.848  48.283  1.00  0.00    -0.266 OA
ENDBRANCH   8  25
TORSDOF 3
ENDMDL
MODEL 9
REMARK VINA RESULT:      -8.5      3.402      9.294
REMARK  3 active torsions:
REMARK  status: ('A' for Active; 'I' for Inactive)
REMARK    1  A    between atoms: C_3  and  C_4 
REMARK       I    between atoms: C_4  and  N_5 
REMARK    2  A    between atoms: N_5  and  C_6 
REMARK    3  A    between atoms: C_13  and  C_14 
REMARK       I    between atoms: C_14  and  N_15 
ROOT
HETATM    1  C   UNL     1      23.228  49.495  49.198  1.00  0.00     0.035 A 
HETATM    2  C   UNL     1      23.928  48.393  49.714  1.00  0.00     0.046 A 
HETATM    3  C   UNL     1      25.299  48.233  49.420  1.00  0.00     0.030 A 
HETATM    4  C   UNL     1      25.923  49.175  48.615  1.00  0.00     0.063 A 
HETATM    5  N   UNL     1      27.219  48.758  48.507  1.00  0.00    -0.277 N 
HETATM    6  H   UNL     1      27.967  49.205  47.987  1.00  0.00     0.189 HD
HETATM    7  N   UNL     1      27.498  47.627  49.181  1.00  0.00    -0.168 NA
HETATM    8  C   UNL     1      26.318  47.293  49.750  1.00  0.00     0.156 A 
HETATM    9  C   UNL     1      25.256  50.280  48.082  1.00  0.00     0.034 A 
HETATM   10  C   UNL     1      23.897  50.421  48.394  1.00  0.00     0.032 A 
ENDROOT
BRANCH   1  11
HETATM   11  N   UNL     1      21.864  49.592  49.534  1.00  0.00    -0.325 N 
HETATM   12  C   UNL     1      20.805  48.841  49.053  1.00  0.00     0.252 C 
HETATM   13  O   UNL     1      20.863  47.956  48.203  1.00  0.00    -0.270 OA
HETATM   14  H   UNL     1      21.616  50.273  50.248  1.00  0.00     0.169 HD
BRANCH  12  15
HETATM   15  C   UNL     1      19.455  49.278  49.633  1.00  0.00     0.229 C 
HETATM   16  C   UNL     1      18.326  48.989  48.625  1.00  0.00     0.056 C 
HETATM   17  C   UNL     1      17.663  47.640  48.856  1.00  0.00     0.018 C 
HETATM   18  C   UNL     1      17.462  50.169  48.901  1.00  0.00    -0.018 A 
HETATM   19  C   UNL     1      18.188  51.104  49.623  1.00  0.00     0.076 A 
HETATM   20  C   UNL     1      16.165  50.441  48.502  1.00  0.00     0.010 A 
HETATM   21  O   UNL     1      19.461  50.701  49.927  1.00  0.00    -0.335 OA
HETATM   22  C   UNL     1      17.663  52.331  49.973  1.00  0.00     0.037 A 
HETATM   23  C   UNL     1      16.352  52.612  49.587  1.00  0.00     0.003 A 
HETATM   24  C   UNL     1      15.607  51.672  48.857  1.00  0.00     0.001 A 
ENDBRANCH  12  15
ENDBRANCH   1  11
BRANCH   8  25
HETATM   25  C   UNL     1      26.186  46.097  50.593  1.00  0.00     0.270 C 
HETATM   26  N   UNL     1      26.196  46.354  51.937  1.00  0.00    -0.365 N 
HETATM   27  H   UNL     1      26.288  47.316  52.245  1.00  0.00     0.159 HD
HETATM   28  H   UNL     1      26.104  45.598  52.595  1.00  0.00     0.159 HD
HETATM   29  O   UNL     1      26.073  44.954  50.164  1.00  0.00    -0.266 OA
ENDBRANCH   8  25
TORSDOF 3
ENDMDL
MODEL 10
REMARK VINA RESULT:      -8.5      3.260      5.746
REMARK  3 active torsions:
REMARK  status: ('A' for Active; 'I' for Inactive)
REMARK    1  A    between atoms: C_3  and  C_4 
REMARK       I    between atoms: C_4  and  N_5 
REMARK    2  A    between atoms: N_5  and  C_6 
REMARK    3  A    between atoms: C_13  and  C_14 
REMARK       I    between atoms: C_14  and  N_15 
ROOT
HETATM    1  C   UNL     1      20.865  49.351  49.353  1.00  0.00     0.035 A 
HETATM    2  C   UNL     1      19.706  48.638  49.004  1.00  0.00     0.046 A 
HETATM    3  C   UNL     1      18.490  49.328  48.816  1.00  0.00     0.030 A 
HETATM    4  C   UNL     1      18.468  50.704  48.990  1.00  0.00     0.063 A 
HETATM    5  N   UNL     1      17.177  51.080  48.749  1.00  0.00    -0.277 N 
HETATM    6  H   UNL     1      16.793  52.018  48.788  1.00  0.00     0.189 HD
HETATM    7  N   UNL     1      16.354  50.067  48.424  1.00  0.00    -0.168 NA
HETATM    8  C   UNL     1      17.154  48.978  48.462  1.00  0.00     0.156 A 
HETATM    9  C   UNL     1      19.600  51.443  49.340  1.00  0.00     0.034 A 
HETATM   10  C   UNL     1      20.799  50.737  49.514  1.00  0.00     0.032 A 
ENDROOT
BRANCH   1  11
HETATM   11  N   UNL     1      22.043  48.599  49.522  1.00  0.00    -0.325 N 
HETATM   12  C   UNL     1      23.149  48.537  48.693  1.00  0.00     0.252 C 
HETATM   13  O   UNL     1      23.291  49.118  47.620  1.00  0.00    -0.270 OA
HETATM   14  H   UNL     1      22.119  48.053  50.378  1.00  0.00     0.169 HD
BRANCH  12  15
HETATM   15  C   UNL     1      24.219  47.564  49.201  1.00  0.00     0.229 C 
HETATM   16  C   UNL     1      23.570  46.226  49.607  1.00  0.00     0.056 C 
HETATM   17  C   UNL     1      23.582  45.202  48.483  1.00  0.00     0.018 C 
HETATM   18  C   UNL     1      24.435  45.893  50.770  1.00  0.00    -0.018 A 
HETATM   19  C   UNL     1      25.142  47.025  51.150  1.00  0.00     0.076 A 
HETATM   20  C   UNL     1      24.554  44.716  51.488  1.00  0.00     0.010 A 
HETATM   21  O   UNL     1      24.905  48.116  50.357  1.00  0.00    -0.335 OA
HETATM   22  C   UNL     1      25.984  47.033  52.242  1.00  0.00     0.037 A 
HETATM   23  C   UNL     1      26.123  45.848  52.967  1.00  0.00     0.003 A 
HETATM   24  C   UNL     1      25.412  44.696  52.591  1.00  0.00     0.001 A 
ENDBRANCH  12  15
ENDBRANCH   1  11
BRANCH   8  25
HETATM   25  C   UNL     1      16.636  47.637  48.158  1.00  0.00     0.270 C 
HETATM   26  N   UNL     1      15.806  47.588  47.072  1.00  0.00    -0.365 N 
HETATM   27  H   UNL     1      15.616  48.449  46.570  1.00  0.00     0.159 HD
HETATM   28  H   UNL     1      15.408  46.711  46.782  1.00  0.00     0.159 HD
HETATM   29  O   UNL     1      16.907  46.627  48.800  1.00  0.00    -0.266 OA
ENDBRANCH   8  25
TORSDOF 3
ENDMDL
