MODEL 1
REMARK VINA RESULT:      -8.4      0.000      0.000
REMARK  2 active torsions:
REMARK  status: ('A' for Active; 'I' for Inactive)
REMARK    1  A    between atoms: C_10  and  C_11 
REMARK    2  A    between atoms: C_12  and  O_13 
ROOT
HETATM    1  C   UNL     1      21.564  44.841  49.228  1.00  0.00     0.076 C 
HETATM    2  C   UNL     1      22.725  43.962  48.982  1.00  0.00     0.050 A 
HETATM    3  O   UNL     1      23.579  43.768  50.025  1.00  0.00    -0.312 OA
HETATM    4  C   UNL     1      24.575  42.925  49.597  1.00  0.00     0.121 A 
HETATM    5  C   UNL     1      25.640  42.490  50.442  1.00  0.00     0.163 A 
HETATM    6  N   UNL     1      26.628  41.695  50.089  1.00  0.00    -0.221 NA
HETATM    7  C   UNL     1      27.383  41.497  51.232  1.00  0.00     0.149 A 
HETATM    8  C   UNL     1      26.825  42.200  52.290  1.00  0.00     0.046 A 
HETATM    9  C   UNL     1      27.182  42.211  53.733  1.00  0.00     0.070 C 
HETATM   10  C   UNL     1      28.665  42.510  54.030  1.00  0.00     0.045 C 
HETATM   11  C   UNL     1      29.659  42.218  52.884  1.00  0.00     0.132 C 
HETATM   12  N   UNL     1      29.502  40.911  52.271  1.00  0.00    -0.355 N 
HETATM   13  C   UNL     1      28.565  40.631  51.294  1.00  0.00     0.272 C 
HETATM   14  O   UNL     1      28.762  39.688  50.530  1.00  0.00    -0.266 OA
HETATM   15  N   UNL     1      25.735  42.842  51.762  1.00  0.00    -0.340 N 
HETATM   16  H   UNL     1      25.067  43.423  52.250  1.00  0.00     0.167 HD
HETATM   17  C   UNL     1      24.338  42.594  48.275  1.00  0.00     0.043 A 
HETATM   18  C   UNL     1      23.152  43.256  47.881  1.00  0.00     0.035 A 
HETATM   19  H   UNL     1      30.323  40.325  52.178  1.00  0.00     0.162 HD
ENDROOT
BRANCH  10  20
HETATM   20  C   UNL     1      28.829  43.932  54.573  1.00  0.00    -0.019 A 
HETATM   21  C   UNL     1      29.889  44.256  55.450  1.00  0.00     0.074 A 
HETATM   22  C   UNL     1      30.019  45.566  55.926  1.00  0.00     0.037 A 
HETATM   23  C   UNL     1      29.102  46.551  55.558  1.00  0.00     0.003 A 
HETATM   24  C   UNL     1      28.039  46.234  54.720  1.00  0.00     0.001 A 
HETATM   25  C   UNL     1      27.898  44.934  54.236  1.00  0.00     0.010 A 
BRANCH  21  26
HETATM   26  O   UNL     1      30.734  43.230  55.782  1.00  0.00    -0.355 OA
HETATM   27  C   UNL     1      31.474  43.346  56.989  1.00  0.00     0.210 C 
ENDBRANCH  21  26
ENDBRANCH  10  20
TORSDOF 2
ENDMDL
MODEL 2
REMARK VINA RESULT:      -8.4      2.201      4.813
REMARK  2 active torsions:
REMARK  status: ('A' for Active; 'I' for Inactive)
REMARK    1  A    between atoms: C_10  and  C_11 
REMARK    2  A    between atoms: C_12  and  O_13 
ROOT
HETATM    1  C   UNL     1      30.240  37.826  48.910  1.00  0.00     0.076 C 
HETATM    2  C   UNL     1      28.885  38.350  49.172  1.00  0.00     0.050 A 
HETATM    3  O   UNL     1      28.805  39.572  49.767  1.00  0.00    -0.312 OA
HETATM    4  C   UNL     1      27.475  39.878  49.915  1.00  0.00     0.121 A 
HETATM    5  C   UNL     1      27.019  41.102  50.491  1.00  0.00     0.163 A 
HETATM    6  N   UNL     1      25.762  41.448  50.672  1.00  0.00    -0.221 NA
HETATM    7  C   UNL     1      25.791  42.727  51.199  1.00  0.00     0.149 A 
HETATM    8  C   UNL     1      27.106  43.147  51.336  1.00  0.00     0.046 A 
HETATM    9  C   UNL     1      27.658  44.469  51.730  1.00  0.00     0.070 C 
HETATM   10  C   UNL     1      27.109  45.030  53.058  1.00  0.00     0.045 C 
HETATM   11  C   UNL     1      25.737  44.483  53.510  1.00  0.00     0.132 C 
HETATM   12  N   UNL     1      24.716  44.495  52.476  1.00  0.00    -0.355 N 
HETATM   13  C   UNL     1      24.593  43.512  51.511  1.00  0.00     0.272 C 
HETATM   14  O   UNL     1      23.503  43.341  50.969  1.00  0.00    -0.266 OA
HETATM   15  N   UNL     1      27.869  42.092  50.905  1.00  0.00    -0.340 N 
HETATM   16  H   UNL     1      28.876  42.050  50.834  1.00  0.00     0.167 HD
HETATM   17  C   UNL     1      26.721  38.835  49.408  1.00  0.00     0.043 A 
HETATM   18  C   UNL     1      27.624  37.856  48.930  1.00  0.00     0.035 A 
HETATM   19  H   UNL     1      23.822  44.919  52.691  1.00  0.00     0.162 HD
ENDROOT
BRANCH  10  20
HETATM   20  C   UNL     1      28.158  44.911  54.167  1.00  0.00    -0.019 A 
HETATM   21  C   UNL     1      28.197  45.839  55.232  1.00  0.00     0.074 A 
HETATM   22  C   UNL     1      29.163  45.702  56.236  1.00  0.00     0.037 A 
HETATM   23  C   UNL     1      30.099  44.669  56.186  1.00  0.00     0.003 A 
HETATM   24  C   UNL     1      30.088  43.769  55.127  1.00  0.00     0.001 A 
HETATM   25  C   UNL     1      29.130  43.892  54.121  1.00  0.00     0.010 A 
BRANCH  21  26
HETATM   26  O   UNL     1      27.259  46.837  55.198  1.00  0.00    -0.355 OA
HETATM   27  C   UNL     1      27.693  48.140  54.830  1.00  0.00     0.210 C 
ENDBRANCH  21  26
ENDBRANCH  10  20
TORSDOF 2
ENDMDL
MODEL 3
REMARK VINA RESULT:      -8.0      5.038     10.154
REMARK  2 active torsions:
REMARK  status: ('A' for Active; 'I' for Inactive)
REMARK    1  A    between atoms: C_10  and  C_11 
REMARK    2  A    between atoms: C_12  and  O_13 
ROOT
HETATM    1  C   UNL     1      26.958  47.857  54.468  1.00  0.00     0.076 C 
HETATM    2  C   UNL     1      26.338  46.931  53.500  1.00  0.00     0.050 A 
HETATM    3  O   UNL     1      25.615  47.492  52.491  1.00  0.00    -0.312 OA
HETATM    4  C   UNL     1      25.134  46.474  51.706  1.00  0.00     0.121 A 
HETATM    5  C   UNL     1      24.343  46.700  50.540  1.00  0.00     0.163 A 
HETATM    6  N   UNL     1      23.843  45.770  49.755  1.00  0.00    -0.221 NA
HETATM    7  C   UNL     1      23.206  46.441  48.726  1.00  0.00     0.149 A 
HETATM    8  C   UNL     1      23.331  47.811  48.912  1.00  0.00     0.046 A 
HETATM    9  C   UNL     1      22.939  48.942  48.032  1.00  0.00     0.070 C 
HETATM   10  C   UNL     1      21.469  48.918  47.566  1.00  0.00     0.045 C 
HETATM   11  C   UNL     1      20.773  47.539  47.583  1.00  0.00     0.132 C 
HETATM   12  N   UNL     1      21.537  46.473  46.958  1.00  0.00    -0.355 N 
HETATM   13  C   UNL     1      22.545  45.777  47.599  1.00  0.00     0.272 C 
HETATM   14  O   UNL     1      22.836  44.649  47.204  1.00  0.00    -0.266 OA
HETATM   15  N   UNL     1      24.035  47.953  50.081  1.00  0.00    -0.340 N 
HETATM   16  H   UNL     1      24.340  48.814  50.514  1.00  0.00     0.167 HD
HETATM   17  C   UNL     1      25.560  45.268  52.234  1.00  0.00     0.043 A 
HETATM   18  C   UNL     1      26.333  45.560  53.382  1.00  0.00     0.035 A 
HETATM   19  H   UNL     1      21.078  45.903  46.258  1.00  0.00     0.162 HD
ENDROOT
BRANCH  10  20
HETATM   20  C   UNL     1      20.650  49.975  48.313  1.00  0.00    -0.019 A 
HETATM   21  C   UNL     1      19.649  50.720  47.650  1.00  0.00     0.074 A 
HETATM   22  C   UNL     1      18.911  51.675  48.359  1.00  0.00     0.037 A 
HETATM   23  C   UNL     1      19.166  51.911  49.710  1.00  0.00     0.003 A 
HETATM   24  C   UNL     1      20.169  51.204  50.363  1.00  0.00     0.001 A 
HETATM   25  C   UNL     1      20.911  50.248  49.669  1.00  0.00     0.010 A 
BRANCH  21  26
HETATM   26  O   UNL     1      19.475  50.446  46.318  1.00  0.00    -0.355 OA
HETATM   27  C   UNL     1      18.213  49.938  45.907  1.00  0.00     0.210 C 
ENDBRANCH  21  26
ENDBRANCH  10  20
TORSDOF 2
ENDMDL
MODEL 4
REMARK VINA RESULT:      -8.0      2.417      7.974
REMARK  2 active torsions:
REMARK  status: ('A' for Active; 'I' for Inactive)
REMARK    1  A    between atoms: C_10  and  C_11 
REMARK    2  A    between atoms: C_12  and  O_13 
ROOT
HETATM    1  C   UNL     1      31.431  43.052  56.985  1.00  0.00     0.076 C 
HETATM    2  C   UNL     1      30.648  44.161  56.404  1.00  0.00     0.050 A 
HETATM    3  O   UNL     1      29.693  43.826  55.493  1.00  0.00    -0.312 OA
HETATM    4  C   UNL     1      29.081  44.985  55.084  1.00  0.00     0.121 A 
HETATM    5  C   UNL     1      28.013  45.007  54.137  1.00  0.00     0.163 A 
HETATM    6  N   UNL     1      27.395  46.083  53.697  1.00  0.00    -0.221 NA
HETATM    7  C   UNL     1      26.399  45.629  52.850  1.00  0.00     0.149 A 
HETATM    8  C   UNL     1      26.432  44.243  52.787  1.00  0.00     0.046 A 
HETATM    9  C   UNL     1      25.505  43.288  52.128  1.00  0.00     0.070 C 
HETATM   10  C   UNL     1      25.241  43.568  50.634  1.00  0.00     0.045 C 
HETATM   11  C   UNL     1      25.485  45.019  50.163  1.00  0.00     0.132 C 
HETATM   12  N   UNL     1      24.872  46.035  51.002  1.00  0.00    -0.355 N 
HETATM   13  C   UNL     1      25.439  46.505  52.172  1.00  0.00     0.272 C 
HETATM   14  O   UNL     1      25.121  47.619  52.583  1.00  0.00    -0.266 OA
HETATM   15  N   UNL     1      27.478  43.871  53.591  1.00  0.00    -0.340 N 
HETATM   16  H   UNL     1      27.781  42.932  53.811  1.00  0.00     0.167 HD
HETATM   17  C   UNL     1      29.663  46.051  55.746  1.00  0.00     0.043 A 
HETATM   18  C   UNL     1      30.665  45.524  56.594  1.00  0.00     0.035 A 
HETATM   19  H   UNL     1      24.297  46.739  50.557  1.00  0.00     0.162 HD
ENDROOT
BRANCH  10  20
HETATM   20  C   UNL     1      25.983  42.556  49.757  1.00  0.00    -0.019 A 
HETATM   21  C   UNL     1      25.393  42.049  48.578  1.00  0.00     0.074 A 
HETATM   22  C   UNL     1      26.097  41.129  47.790  1.00  0.00     0.037 A 
HETATM   23  C   UNL     1      27.368  40.696  48.168  1.00  0.00     0.003 A 
HETATM   24  C   UNL     1      27.943  41.166  49.343  1.00  0.00     0.001 A 
HETATM   25  C   UNL     1      27.255  42.084  50.135  1.00  0.00     0.010 A 
BRANCH  21  26
HETATM   26  O   UNL     1      24.135  42.506  48.286  1.00  0.00    -0.355 OA
HETATM   27  C   UNL     1      23.050  41.599  48.434  1.00  0.00     0.210 C 
ENDBRANCH  21  26
ENDBRANCH  10  20
TORSDOF 2
ENDMDL
MODEL 5
REMARK VINA RESULT:      -7.9      3.928      8.772
REMARK  2 active torsions:
REMARK  status: ('A' for Active; 'I' for Inactive)
REMARK    1  A    between atoms: C_10  and  C_11 
REMARK    2  A    between atoms: C_12  and  O_13 
ROOT
HETATM    1  C   UNL     1      27.748  46.882  54.866  1.00  0.00     0.076 C 
HETATM    2  C   UNL     1      26.857  45.894  54.226  1.00  0.00     0.050 A 
HETATM    3  O   UNL     1      26.180  46.305  53.119  1.00  0.00    -0.312 OA
HETATM    4  C   UNL     1      25.422  45.250  52.676  1.00  0.00     0.121 A 
HETATM    5  C   UNL     1      24.592  45.321  51.517  1.00  0.00     0.163 A 
HETATM    6  N   UNL     1      23.835  44.351  51.050  1.00  0.00    -0.221 NA
HETATM    7  C   UNL     1      23.262  44.841  49.889  1.00  0.00     0.149 A 
HETATM    8  C   UNL     1      23.693  46.142  49.666  1.00  0.00     0.046 A 
HETATM    9  C   UNL     1      23.470  47.044  48.508  1.00  0.00     0.070 C 
HETATM   10  C   UNL     1      21.991  47.232  48.110  1.00  0.00     0.045 C 
HETATM   11  C   UNL     1      21.023  46.110  48.546  1.00  0.00     0.132 C 
HETATM   12  N   UNL     1      21.481  44.767  48.235  1.00  0.00    -0.355 N 
HETATM   13  C   UNL     1      22.374  44.062  49.021  1.00  0.00     0.272 C 
HETATM   14  O   UNL     1      22.380  42.834  48.962  1.00  0.00    -0.266 OA
HETATM   15  N   UNL     1      24.516  46.434  50.723  1.00  0.00    -0.340 N 
HETATM   16  H   UNL     1      25.036  47.287  50.880  1.00  0.00     0.167 HD
HETATM   17  C   UNL     1      25.629  44.172  53.518  1.00  0.00     0.043 A 
HETATM   18  C   UNL     1      26.550  44.583  54.510  1.00  0.00     0.035 A 
HETATM   19  H   UNL     1      20.849  44.148  47.743  1.00  0.00     0.162 HD
ENDROOT
BRANCH  10  20
HETATM   20  C   UNL     1      21.489  48.613  48.541  1.00  0.00    -0.019 A 
HETATM   21  C   UNL     1      22.167  49.788  48.146  1.00  0.00     0.074 A 
HETATM   22  C   UNL     1      21.682  51.038  48.549  1.00  0.00     0.037 A 
HETATM   23  C   UNL     1      20.546  51.133  49.352  1.00  0.00     0.003 A 
HETATM   24  C   UNL     1      19.890  49.982  49.772  1.00  0.00     0.001 A 
HETATM   25  C   UNL     1      20.361  48.730  49.376  1.00  0.00     0.010 A 
BRANCH  21  26
HETATM   26  O   UNL     1      23.287  49.609  47.376  1.00  0.00    -0.355 OA
HETATM   27  C   UNL     1      24.468  50.302  47.755  1.00  0.00     0.210 C 
ENDBRANCH  21  26
ENDBRANCH  10  20
TORSDOF 2
ENDMDL
MODEL 6
REMARK VINA RESULT:      -7.9     12.476     15.286
REMARK  2 active torsions:
REMARK  status: ('A' for Active; 'I' for Inactive)
REMARK    1  A    between atoms: C_10  and  C_11 
REMARK    2  A    between atoms: C_12  and  O_13 
ROOT
HETATM    1  C   UNL     1      36.324  50.892  39.694  1.00  0.00     0.076 C 
HETATM    2  C   UNL     1      35.010  51.565  39.734  1.00  0.00     0.050 A 
HETATM    3  O   UNL     1      33.950  50.818  40.148  1.00  0.00    -0.312 OA
HETATM    4  C   UNL     1      32.837  51.620  40.121  1.00  0.00     0.121 A 
HETATM    5  C   UNL     1      31.542  51.166  40.512  1.00  0.00     0.163 A 
HETATM    6  N   UNL     1      30.437  51.881  40.497  1.00  0.00    -0.221 NA
HETATM    7  C   UNL     1      29.447  51.061  41.010  1.00  0.00     0.149 A 
HETATM    8  C   UNL     1      29.984  49.824  41.335  1.00  0.00     0.046 A 
HETATM    9  C   UNL     1      29.371  48.659  42.025  1.00  0.00     0.070 C 
HETATM   10  C   UNL     1      28.045  48.168  41.410  1.00  0.00     0.045 C 
HETATM   11  C   UNL     1      27.261  49.201  40.572  1.00  0.00     0.132 C 
HETATM   12  N   UNL     1      27.091  50.493  41.216  1.00  0.00    -0.355 N 
HETATM   13  C   UNL     1      28.057  51.482  41.211  1.00  0.00     0.272 C 
HETATM   14  O   UNL     1      27.713  52.652  41.370  1.00  0.00    -0.266 OA
HETATM   15  N   UNL     1      31.308  49.904  40.988  1.00  0.00    -0.340 N 
HETATM   16  H   UNL     1      32.020  49.196  41.111  1.00  0.00     0.167 HD
HETATM   17  C   UNL     1      33.209  52.879  39.684  1.00  0.00     0.043 A 
HETATM   18  C   UNL     1      34.602  52.846  39.438  1.00  0.00     0.035 A 
HETATM   19  H   UNL     1      26.159  50.883  41.266  1.00  0.00     0.162 HD
ENDROOT
BRANCH  10  20
HETATM   20  C   UNL     1      28.260  46.861  40.642  1.00  0.00    -0.019 A 
HETATM   21  C   UNL     1      27.396  45.759  40.828  1.00  0.00     0.074 A 
HETATM   22  C   UNL     1      27.612  44.578  40.107  1.00  0.00     0.037 A 
HETATM   23  C   UNL     1      28.683  44.474  39.219  1.00  0.00     0.003 A 
HETATM   24  C   UNL     1      29.556  45.542  39.052  1.00  0.00     0.001 A 
HETATM   25  C   UNL     1      29.352  46.725  39.763  1.00  0.00     0.010 A 
BRANCH  21  26
HETATM   26  O   UNL     1      26.382  45.933  41.733  1.00  0.00    -0.355 OA
HETATM   27  C   UNL     1      25.981  44.807  42.502  1.00  0.00     0.210 C 
ENDBRANCH  21  26
ENDBRANCH  10  20
TORSDOF 2
ENDMDL
MODEL 7
REMARK VINA RESULT:      -7.8      6.728     11.662
REMARK  2 active torsions:
REMARK  status: ('A' for Active; 'I' for Inactive)
REMARK    1  A    between atoms: C_10  and  C_11 
REMARK    2  A    between atoms: C_12  and  O_13 
ROOT
HETATM    1  C   UNL     1      26.962  49.828  48.988  1.00  0.00     0.076 C 
HETATM    2  C   UNL     1      26.040  48.690  49.174  1.00  0.00     0.050 A 
HETATM    3  O   UNL     1      24.743  48.885  48.811  1.00  0.00    -0.312 OA
HETATM    4  C   UNL     1      24.060  47.719  49.055  1.00  0.00     0.121 A 
HETATM    5  C   UNL     1      22.670  47.559  48.773  1.00  0.00     0.163 A 
HETATM    6  N   UNL     1      21.958  46.474  48.995  1.00  0.00    -0.221 NA
HETATM    7  C   UNL     1      20.689  46.748  48.517  1.00  0.00     0.149 A 
HETATM    8  C   UNL     1      20.650  48.036  48.001  1.00  0.00     0.046 A 
HETATM    9  C   UNL     1      19.571  48.747  47.267  1.00  0.00     0.070 C 
HETATM   10  C   UNL     1      18.202  48.754  47.978  1.00  0.00     0.045 C 
HETATM   11  C   UNL     1      17.966  47.628  49.009  1.00  0.00     0.132 C 
HETATM   12  N   UNL     1      18.300  46.297  48.531  1.00  0.00    -0.355 N 
HETATM   13  C   UNL     1      19.584  45.785  48.527  1.00  0.00     0.272 C 
HETATM   14  O   UNL     1      19.740  44.565  48.536  1.00  0.00    -0.266 OA
HETATM   15  N   UNL     1      21.910  48.540  48.195  1.00  0.00    -0.340 N 
HETATM   16  H   UNL     1      22.260  49.447  47.915  1.00  0.00     0.167 HD
HETATM   17  C   UNL     1      24.943  46.790  49.577  1.00  0.00     0.043 A 
HETATM   18  C   UNL     1      26.212  47.410  49.652  1.00  0.00     0.035 A 
HETATM   19  H   UNL     1      17.607  45.565  48.633  1.00  0.00     0.162 HD
ENDROOT
BRANCH  10  20
HETATM   20  C   UNL     1      17.912  50.136  48.572  1.00  0.00    -0.019 A 
HETATM   21  C   UNL     1      16.671  50.774  48.351  1.00  0.00     0.074 A 
HETATM   22  C   UNL     1      16.430  52.034  48.912  1.00  0.00     0.037 A 
HETATM   23  C   UNL     1      17.410  52.673  49.672  1.00  0.00     0.003 A 
HETATM   24  C   UNL     1      18.645  52.066  49.869  1.00  0.00     0.001 A 
HETATM   25  C   UNL     1      18.898  50.810  49.318  1.00  0.00     0.010 A 
BRANCH  21  26
HETATM   26  O   UNL     1      15.770  50.092  47.577  1.00  0.00    -0.355 OA
HETATM   27  C   UNL     1      15.357  50.694  46.357  1.00  0.00     0.210 C 
ENDBRANCH  21  26
ENDBRANCH  10  20
TORSDOF 2
ENDMDL
MODEL 8
REMARK VINA RESULT:      -7.6     12.587     13.461
REMARK  2 active torsions:
REMARK  status: ('A' for Active; 'I' for Inactive)
REMARK    1  A    between atoms: C_10  and  C_11 
REMARK    2  A    between atoms: C_12  and  O_13 
ROOT
HETATM    1  C   UNL     1      21.241  48.716  40.562  1.00  0.00     0.076 C 
HETATM    2  C   UNL     1      22.374  47.888  40.103  1.00  0.00     0.050 A 
HETATM    3  O   UNL     1      23.620  48.295  40.473  1.00  0.00    -0.312 OA
HETATM    4  C   UNL     1      24.522  47.398  39.957  1.00  0.00     0.121 A 
HETATM    5  C   UNL     1      25.930  47.507  40.165  1.00  0.00     0.163 A 
HETATM    6  N   UNL     1      26.845  46.689  39.689  1.00  0.00    -0.221 NA
HETATM    7  C   UNL     1      28.055  47.139  40.188  1.00  0.00     0.149 A 
HETATM    8  C   UNL     1      27.847  48.259  40.980  1.00  0.00     0.046 A 
HETATM    9  C   UNL     1      28.794  49.025  41.831  1.00  0.00     0.070 C 
HETATM   10  C   UNL     1      30.072  49.501  41.110  1.00  0.00     0.045 C 
HETATM   11  C   UNL     1      30.474  48.707  39.847  1.00  0.00     0.132 C 
HETATM   12  N   UNL     1      30.477  47.265  40.019  1.00  0.00    -0.355 N 
HETATM   13  C   UNL     1      29.341  46.482  39.936  1.00  0.00     0.272 C 
HETATM   14  O   UNL     1      29.456  45.290  39.656  1.00  0.00    -0.266 OA
HETATM   15  N   UNL     1      26.496  48.489  40.932  1.00  0.00    -0.340 N 
HETATM   16  H   UNL     1      25.977  49.208  41.418  1.00  0.00     0.167 HD
HETATM   17  C   UNL     1      23.830  46.425  39.258  1.00  0.00     0.043 A 
HETATM   18  C   UNL     1      22.453  46.737  39.354  1.00  0.00     0.035 A 
HETATM   19  H   UNL     1      31.304  46.752  39.739  1.00  0.00     0.162 HD
ENDROOT
BRANCH  10  20
HETATM   20  C   UNL     1      30.007  51.006  40.837  1.00  0.00    -0.019 A 
HETATM   21  C   UNL     1      30.979  51.882  41.369  1.00  0.00     0.074 A 
HETATM   22  C   UNL     1      30.899  53.254  41.097  1.00  0.00     0.037 A 
HETATM   23  C   UNL     1      29.859  53.765  40.321  1.00  0.00     0.003 A 
HETATM   24  C   UNL     1      28.882  52.914  39.818  1.00  0.00     0.001 A 
HETATM   25  C   UNL     1      28.950  51.546  40.079  1.00  0.00     0.010 A 
BRANCH  21  26
HETATM   26  O   UNL     1      31.954  51.307  42.140  1.00  0.00    -0.355 OA
HETATM   27  C   UNL     1      32.019  51.676  43.511  1.00  0.00     0.210 C 
ENDBRANCH  21  26
ENDBRANCH  10  20
TORSDOF 2
ENDMDL
MODEL 9
REMARK VINA RESULT:      -7.5     13.809     15.339
REMARK  2 active torsions:
REMARK  status: ('A' for Active; 'I' for Inactive)
REMARK    1  A    between atoms: C_10  and  C_11 
REMARK    2  A    between atoms: C_12  and  O_13 
ROOT
HETATM    1  C   UNL     1      29.518  43.906  38.320  1.00  0.00     0.076 C 
HETATM    2  C   UNL     1      28.917  45.029  39.066  1.00  0.00     0.050 A 
HETATM    3  O   UNL     1      29.599  46.208  39.055  1.00  0.00    -0.312 OA
HETATM    4  C   UNL     1      28.878  47.115  39.791  1.00  0.00     0.121 A 
HETATM    5  C   UNL     1      29.293  48.468  39.978  1.00  0.00     0.163 A 
HETATM    6  N   UNL     1      28.654  49.380  40.680  1.00  0.00    -0.221 NA
HETATM    7  C   UNL     1      29.380  50.549  40.535  1.00  0.00     0.149 A 
HETATM    8  C   UNL     1      30.483  50.318  39.724  1.00  0.00     0.046 A 
HETATM    9  C   UNL     1      31.485  51.265  39.171  1.00  0.00     0.070 C 
HETATM   10  C   UNL     1      32.168  52.169  40.218  1.00  0.00     0.045 C 
HETATM   11  C   UNL     1      31.393  52.385  41.537  1.00  0.00     0.132 C 
HETATM   12  N   UNL     1      29.998  52.751  41.361  1.00  0.00    -0.355 N 
HETATM   13  C   UNL     1      28.991  51.834  41.124  1.00  0.00     0.272 C 
HETATM   14  O   UNL     1      27.834  52.130  41.416  1.00  0.00    -0.266 OA
HETATM   15  N   UNL     1      30.421  48.987  39.402  1.00  0.00    -0.340 N 
HETATM   16  H   UNL     1      31.047  48.471  38.799  1.00  0.00     0.167 HD
HETATM   17  C   UNL     1      27.737  46.493  40.266  1.00  0.00     0.043 A 
HETATM   18  C   UNL     1      27.760  45.158  39.800  1.00  0.00     0.035 A 
HETATM   19  H   UNL     1      29.652  53.565  41.853  1.00  0.00     0.162 HD
ENDROOT
BRANCH  10  20
HETATM   20  C   UNL     1      33.605  51.705  40.475  1.00  0.00    -0.019 A 
HETATM   21  C   UNL     1      34.700  52.374  39.884  1.00  0.00     0.074 A 
HETATM   22  C   UNL     1      36.003  51.933  40.142  1.00  0.00     0.037 A 
HETATM   23  C   UNL     1      36.230  50.827  40.962  1.00  0.00     0.003 A 
HETATM   24  C   UNL     1      35.157  50.144  41.523  1.00  0.00     0.001 A 
HETATM   25  C   UNL     1      33.854  50.574  41.277  1.00  0.00     0.010 A 
BRANCH  21  26
HETATM   26  O   UNL     1      34.393  53.436  39.074  1.00  0.00    -0.355 OA
HETATM   27  C   UNL     1      35.280  54.546  39.074  1.00  0.00     0.210 C 
ENDBRANCH  21  26
ENDBRANCH  10  20
TORSDOF 2
ENDMDL
MODEL 10
REMARK VINA RESULT:      -7.4     11.522     13.675
REMARK  2 active torsions:
REMARK  status: ('A' for Active; 'I' for Inactive)
REMARK    1  A    between atoms: C_10  and  C_11 
REMARK    2  A    between atoms: C_12  and  O_13 
ROOT
HETATM    1  C   UNL     1      28.070  41.732  41.596  1.00  0.00     0.076 C 
HETATM    2  C   UNL     1      27.169  42.866  41.311  1.00  0.00     0.050 A 
HETATM    3  O   UNL     1      27.757  44.059  41.021  1.00  0.00    -0.312 OA
HETATM    4  C   UNL     1      26.758  44.970  40.783  1.00  0.00     0.121 A 
HETATM    5  C   UNL     1      27.015  46.329  40.430  1.00  0.00     0.163 A 
HETATM    6  N   UNL     1      26.104  47.252  40.201  1.00  0.00    -0.221 NA
HETATM    7  C   UNL     1      26.800  48.391  39.837  1.00  0.00     0.149 A 
HETATM    8  C   UNL     1      28.163  48.133  39.854  1.00  0.00     0.046 A 
HETATM    9  C   UNL     1      29.308  48.978  39.425  1.00  0.00     0.070 C 
HETATM   10  C   UNL     1      29.344  50.386  40.053  1.00  0.00     0.045 C 
HETATM   11  C   UNL     1      27.994  50.935  40.566  1.00  0.00     0.132 C 
HETATM   12  N   UNL     1      26.897  50.811  39.622  1.00  0.00    -0.355 N 
HETATM   13  C   UNL     1      26.161  49.653  39.451  1.00  0.00     0.272 C 
HETATM   14  O   UNL     1      25.022  49.732  38.995  1.00  0.00    -0.266 OA
HETATM   15  N   UNL     1      28.278  46.828  40.256  1.00  0.00    -0.340 N 
HETATM   16  H   UNL     1      29.127  46.286  40.352  1.00  0.00     0.167 HD
HETATM   17  C   UNL     1      25.537  44.338  40.928  1.00  0.00     0.043 A 
HETATM   18  C   UNL     1      25.799  42.989  41.264  1.00  0.00     0.035 A 
HETATM   19  H   UNL     1      26.345  51.636  39.420  1.00  0.00     0.162 HD
ENDROOT
BRANCH  10  20
HETATM   20  C   UNL     1      30.434  50.470  41.124  1.00  0.00    -0.019 A 
HETATM   21  C   UNL     1      31.269  51.606  41.223  1.00  0.00     0.074 A 
HETATM   22  C   UNL     1      32.253  51.659  42.217  1.00  0.00     0.037 A 
HETATM   23  C   UNL     1      32.430  50.593  43.100  1.00  0.00     0.003 A 
HETATM   24  C   UNL     1      31.633  49.459  42.991  1.00  0.00     0.001 A 
HETATM   25  C   UNL     1      30.647  49.394  42.007  1.00  0.00     0.010 A 
BRANCH  21  26
HETATM   26  O   UNL     1      31.048  52.599  40.306  1.00  0.00    -0.355 OA
HETATM   27  C   UNL     1      30.922  53.930  40.789  1.00  0.00     0.210 C 
ENDBRANCH  21  26
ENDBRANCH  10  20
TORSDOF 2
ENDMDL
