MODEL 1
REMARK VINA RESULT:     -10.3      0.000      0.000
REMARK  6 active torsions:
REMARK  status: ('A' for Active; 'I' for Inactive)
REMARK    1  A    between atoms: C_2  and  C_3 
REMARK    2  A    between atoms: C_3  and  N_4 
REMARK    3  A    between atoms: N_8  and  C_10 
REMARK    4  A    between atoms: C_10  and  C_11 
REMARK    5  A    between atoms: C_11  and  C_12 
REMARK    6  A    between atoms: C_20  and  N_21 
ROOT
HETATM    1  N   UNL     1      27.046  43.882  53.444  1.00  0.00    -0.064 N 
HETATM    2  H   UNL     1      27.194  43.194  54.200  1.00  0.00     0.280 HD
HETATM    3  C   UNL     1      27.516  43.228  52.153  1.00  0.00     0.263 C 
HETATM    4  C   UNL     1      27.144  44.072  50.902  1.00  0.00     0.262 C 
HETATM    5  N   UNL     1      25.664  44.473  50.875  1.00  0.00    -0.068 N 
HETATM    6  H   UNL     1      25.106  43.632  50.651  1.00  0.00     0.280 HD
HETATM    7  C   UNL     1      25.147  45.027  52.214  1.00  0.00     0.262 C 
HETATM    8  C   UNL     1      25.544  44.132  53.406  1.00  0.00     0.263 C 
ENDROOT
BRANCH   5   9
HETATM    9  C   UNL     1      25.339  45.486  49.764  1.00  0.00     0.238 C 
BRANCH   9  10
HETATM   10  C   UNL     1      26.489  46.459  49.536  1.00  0.00     0.070 C 
BRANCH  10  11
HETATM   11  C   UNL     1      26.128  47.864  50.055  1.00  0.00     0.222 C 
HETATM   12  O   UNL     1      24.720  47.902  50.214  1.00  0.00    -0.334 OA
HETATM   13  C   UNL     1      24.047  48.728  49.360  1.00  0.00     0.099 A 
HETATM   14  C   UNL     1      24.666  49.631  48.492  1.00  0.00     0.068 A 
HETATM   15  C   UNL     1      22.657  48.632  49.396  1.00  0.00     0.075 A 
HETATM   16  N   UNL     1      26.057  49.716  48.444  1.00  0.00    -0.323 N 
HETATM   17  C   UNL     1      23.900  50.446  47.657  1.00  0.00     0.035 A 
HETATM   18  C   UNL     1      26.856  48.893  49.178  1.00  0.00     0.251 C 
HETATM   19  H   UNL     1      26.516  50.393  47.842  1.00  0.00     0.169 HD
HETATM   20  O   UNL     1      28.081  48.911  49.093  1.00  0.00    -0.270 OA
HETATM   21  C   UNL     1      22.504  50.345  47.675  1.00  0.00     0.038 A 
HETATM   22  C   UNL     1      21.889  49.433  48.542  1.00  0.00     0.105 A 
BRANCH  22  23
HETATM   23  N   UNL     1      20.430  49.285  48.541  1.00  0.00    -0.116 N 
HETATM   24  O   UNL     1      19.924  48.662  49.487  1.00  0.00    -0.532 OA
HETATM   25  O   UNL     1      19.803  49.764  47.589  1.00  0.00    -0.532 OA
ENDBRANCH  22  23
ENDBRANCH  10  11
ENDBRANCH   9  10
ENDBRANCH   5   9
BRANCH   1  26
HETATM   26  C   UNL     1      27.917  45.068  53.854  1.00  0.00     0.273 C 
BRANCH  26  27
HETATM   27  C   UNL     1      28.955  44.741  54.888  1.00  0.00    -0.030 A 
HETATM   28  C   UNL     1      29.764  43.587  54.745  1.00  0.00     0.012 A 
HETATM   29  C   UNL     1      30.751  43.276  55.686  1.00  0.00     0.040 A 
HETATM   30  C   UNL     1      30.905  44.125  56.758  1.00  0.00     0.105 A 
HETATM   31  C   UNL     1      30.120  45.240  56.912  1.00  0.00     0.105 A 
HETATM   32  O   UNL     1      31.803  43.979  57.764  1.00  0.00    -0.323 OA
HETATM   33  C   UNL     1      29.139  45.577  56.003  1.00  0.00     0.048 A 
HETATM   34  O   UNL     1      30.427  45.937  58.036  1.00  0.00    -0.323 OA
HETATM   35  C   UNL     1      31.460  45.100  58.609  1.00  0.00     0.352 A 
ENDBRANCH  26  27
ENDBRANCH   1  26
TORSDOF 6
ENDMDL
MODEL 2
REMARK VINA RESULT:      -9.3      2.246      3.271
REMARK  6 active torsions:
REMARK  status: ('A' for Active; 'I' for Inactive)
REMARK    1  A    between atoms: C_2  and  C_3 
REMARK    2  A    between atoms: C_3  and  N_4 
REMARK    3  A    between atoms: N_8  and  C_10 
REMARK    4  A    between atoms: C_10  and  C_11 
REMARK    5  A    between atoms: C_11  and  C_12 
REMARK    6  A    between atoms: C_20  and  N_21 
ROOT
HETATM    1  N   UNL     1      26.659  45.227  54.170  1.00  0.00    -0.064 N 
HETATM    2  H   UNL     1      26.748  45.217  55.199  1.00  0.00     0.280 HD
HETATM    3  C   UNL     1      25.574  44.223  53.810  1.00  0.00     0.263 C 
HETATM    4  C   UNL     1      25.184  44.298  52.309  1.00  0.00     0.262 C 
HETATM    5  N   UNL     1      24.867  45.726  51.848  1.00  0.00    -0.068 N 
HETATM    6  H   UNL     1      23.952  45.998  52.247  1.00  0.00     0.280 HD
HETATM    7  C   UNL     1      25.899  46.770  52.308  1.00  0.00     0.262 C 
HETATM    8  C   UNL     1      26.226  46.642  53.810  1.00  0.00     0.263 C 
ENDROOT
BRANCH   5   9
HETATM    9  C   UNL     1      24.698  45.840  50.323  1.00  0.00     0.238 C 
BRANCH   9  10
HETATM   10  C   UNL     1      23.616  44.901  49.806  1.00  0.00     0.070 C 
BRANCH  10  11
HETATM   11  C   UNL     1      22.951  45.477  48.540  1.00  0.00     0.222 C 
HETATM   12  O   UNL     1      22.937  46.888  48.681  1.00  0.00    -0.334 OA
HETATM   13  C   UNL     1      21.705  47.458  48.829  1.00  0.00     0.099 A 
HETATM   14  C   UNL     1      20.498  46.769  48.678  1.00  0.00     0.068 A 
HETATM   15  C   UNL     1      21.701  48.815  49.145  1.00  0.00     0.075 A 
HETATM   16  N   UNL     1      20.502  45.407  48.378  1.00  0.00    -0.323 N 
HETATM   17  C   UNL     1      19.281  47.433  48.838  1.00  0.00     0.035 A 
HETATM   18  C   UNL     1      21.657  44.691  48.286  1.00  0.00     0.251 C 
HETATM   19  H   UNL     1      19.632  44.905  48.232  1.00  0.00     0.169 HD
HETATM   20  O   UNL     1      21.671  43.479  48.091  1.00  0.00    -0.270 OA
HETATM   21  C   UNL     1      19.268  48.793  49.172  1.00  0.00     0.038 A 
HETATM   22  C   UNL     1      20.480  49.477  49.328  1.00  0.00     0.105 A 
BRANCH  22  23
HETATM   23  N   UNL     1      20.483  50.890  49.720  1.00  0.00    -0.116 N 
HETATM   24  O   UNL     1      19.651  51.629  49.173  1.00  0.00    -0.532 OA
HETATM   25  O   UNL     1      21.325  51.257  50.546  1.00  0.00    -0.532 OA
ENDBRANCH  22  23
ENDBRANCH  10  11
ENDBRANCH   9  10
ENDBRANCH   5   9
BRANCH   1  26
HETATM   26  C   UNL     1      28.042  44.799  53.682  1.00  0.00     0.273 C 
BRANCH  26  27
HETATM   27  C   UNL     1      29.041  44.574  54.780  1.00  0.00    -0.030 A 
HETATM   28  C   UNL     1      29.882  43.434  54.754  1.00  0.00     0.012 A 
HETATM   29  C   UNL     1      30.834  43.218  55.756  1.00  0.00     0.040 A 
HETATM   30  C   UNL     1      30.921  44.144  56.770  1.00  0.00     0.105 A 
HETATM   31  C   UNL     1      30.104  45.246  56.810  1.00  0.00     0.105 A 
HETATM   32  O   UNL     1      31.777  44.094  57.820  1.00  0.00    -0.323 OA
HETATM   33  C   UNL     1      29.156  45.492  55.838  1.00  0.00     0.048 A 
HETATM   34  O   UNL     1      30.345  46.030  57.892  1.00  0.00    -0.323 OA
HETATM   35  C   UNL     1      31.371  45.263  58.567  1.00  0.00     0.352 A 
ENDBRANCH  26  27
ENDBRANCH   1  26
TORSDOF 6
ENDMDL
MODEL 3
REMARK VINA RESULT:      -9.2      2.682      9.934
REMARK  6 active torsions:
REMARK  status: ('A' for Active; 'I' for Inactive)
REMARK    1  A    between atoms: C_2  and  C_3 
REMARK    2  A    between atoms: C_3  and  N_4 
REMARK    3  A    between atoms: N_8  and  C_10 
REMARK    4  A    between atoms: C_10  and  C_11 
REMARK    5  A    between atoms: C_11  and  C_12 
REMARK    6  A    between atoms: C_20  and  N_21 
ROOT
HETATM    1  N   UNL     1      23.712  46.538  50.116  1.00  0.00    -0.064 N 
HETATM    2  H   UNL     1      22.801  46.896  50.447  1.00  0.00     0.280 HD
HETATM    3  C   UNL     1      24.663  46.585  51.303  1.00  0.00     0.263 C 
HETATM    4  C   UNL     1      26.007  45.868  51.003  1.00  0.00     0.262 C 
HETATM    5  N   UNL     1      25.815  44.457  50.435  1.00  0.00    -0.068 N 
HETATM    6  H   UNL     1      25.493  43.842  51.202  1.00  0.00     0.280 HD
HETATM    7  C   UNL     1      24.766  44.377  49.311  1.00  0.00     0.262 C 
HETATM    8  C   UNL     1      23.456  45.100  49.687  1.00  0.00     0.263 C 
ENDROOT
BRANCH   5   9
HETATM    9  C   UNL     1      27.125  43.830  49.931  1.00  0.00     0.238 C 
BRANCH   9  10
HETATM   10  C   UNL     1      27.006  42.319  49.783  1.00  0.00     0.070 C 
BRANCH  10  11
HETATM   11  C   UNL     1      27.082  41.626  51.157  1.00  0.00     0.222 C 
HETATM   12  O   UNL     1      26.918  42.633  52.142  1.00  0.00    -0.334 OA
HETATM   13  C   UNL     1      28.015  42.895  52.912  1.00  0.00     0.099 A 
HETATM   14  C   UNL     1      29.185  42.132  52.896  1.00  0.00     0.068 A 
HETATM   15  C   UNL     1      27.911  44.000  53.755  1.00  0.00     0.075 A 
HETATM   16  N   UNL     1      29.295  41.036  52.041  1.00  0.00    -0.323 N 
HETATM   17  C   UNL     1      30.257  42.467  53.725  1.00  0.00     0.035 A 
HETATM   18  C   UNL     1      28.313  40.709  51.156  1.00  0.00     0.251 C 
HETATM   19  H   UNL     1      30.128  40.455  52.046  1.00  0.00     0.169 HD
HETATM   20  O   UNL     1      28.427  39.788  50.351  1.00  0.00    -0.270 OA
HETATM   21  C   UNL     1      30.168  43.584  54.562  1.00  0.00     0.038 A 
HETATM   22  C   UNL     1      28.995  44.350  54.570  1.00  0.00     0.105 A 
BRANCH  22  23
HETATM   23  N   UNL     1      28.903  45.548  55.409  1.00  0.00    -0.116 N 
HETATM   24  O   UNL     1      29.617  45.583  56.424  1.00  0.00    -0.532 OA
HETATM   25  O   UNL     1      28.107  46.430  55.069  1.00  0.00    -0.532 OA
ENDBRANCH  22  23
ENDBRANCH  10  11
ENDBRANCH   9  10
ENDBRANCH   5   9
BRANCH   1  26
HETATM   26  C   UNL     1      24.105  47.514  49.009  1.00  0.00     0.273 C 
BRANCH  26  27
HETATM   27  C   UNL     1      23.186  48.694  48.872  1.00  0.00    -0.030 A 
HETATM   28  C   UNL     1      23.715  49.979  48.596  1.00  0.00     0.012 A 
HETATM   29  C   UNL     1      22.875  51.087  48.443  1.00  0.00     0.040 A 
HETATM   30  C   UNL     1      21.520  50.888  48.579  1.00  0.00     0.105 A 
HETATM   31  C   UNL     1      20.998  49.650  48.857  1.00  0.00     0.105 A 
HETATM   32  O   UNL     1      20.562  51.842  48.469  1.00  0.00    -0.323 OA
HETATM   33  C   UNL     1      21.797  48.536  49.011  1.00  0.00     0.048 A 
HETATM   34  O   UNL     1      19.644  49.669  48.957  1.00  0.00    -0.323 OA
HETATM   35  C   UNL     1      19.372  51.078  48.768  1.00  0.00     0.352 A 
ENDBRANCH  26  27
ENDBRANCH   1  26
TORSDOF 6
ENDMDL
MODEL 4
REMARK VINA RESULT:      -9.2      2.405      3.808
REMARK  6 active torsions:
REMARK  status: ('A' for Active; 'I' for Inactive)
REMARK    1  A    between atoms: C_2  and  C_3 
REMARK    2  A    between atoms: C_3  and  N_4 
REMARK    3  A    between atoms: N_8  and  C_10 
REMARK    4  A    between atoms: C_10  and  C_11 
REMARK    5  A    between atoms: C_11  and  C_12 
REMARK    6  A    between atoms: C_20  and  N_21 
ROOT
HETATM    1  N   UNL     1      26.709  45.127  51.774  1.00  0.00    -0.064 N 
HETATM    2  H   UNL     1      27.336  45.844  52.174  1.00  0.00     0.280 HD
HETATM    3  C   UNL     1      25.305  45.712  51.784  1.00  0.00     0.263 C 
HETATM    4  C   UNL     1      24.296  44.824  51.006  1.00  0.00     0.262 C 
HETATM    5  N   UNL     1      24.789  44.455  49.601  1.00  0.00    -0.068 N 
HETATM    6  H   UNL     1      24.727  45.298  49.005  1.00  0.00     0.280 HD
HETATM    7  C   UNL     1      26.250  43.973  49.563  1.00  0.00     0.262 C 
HETATM    8  C   UNL     1      27.193  44.910  50.346  1.00  0.00     0.263 C 
ENDROOT
BRANCH   5   9
HETATM    9  C   UNL     1      23.905  43.402  48.913  1.00  0.00     0.238 C 
BRANCH   9  10
HETATM   10  C   UNL     1      22.433  43.787  48.958  1.00  0.00     0.070 C 
BRANCH  10  11
HETATM   11  C   UNL     1      22.090  44.775  47.826  1.00  0.00     0.222 C 
HETATM   12  O   UNL     1      22.768  45.988  48.111  1.00  0.00    -0.334 OA
HETATM   13  C   UNL     1      21.974  47.051  48.431  1.00  0.00     0.099 A 
HETATM   14  C   UNL     1      20.581  47.050  48.325  1.00  0.00     0.068 A 
HETATM   15  C   UNL     1      22.641  48.188  48.883  1.00  0.00     0.075 A 
HETATM   16  N   UNL     1      19.913  45.907  47.889  1.00  0.00    -0.323 N 
HETATM   17  C   UNL     1      19.846  48.187  48.666  1.00  0.00     0.035 A 
HETATM   18  C   UNL     1      20.570  44.746  47.616  1.00  0.00     0.251 C 
HETATM   19  H   UNL     1      18.904  45.906  47.775  1.00  0.00     0.169 HD
HETATM   20  O   UNL     1      19.986  43.713  47.298  1.00  0.00    -0.270 OA
HETATM   21  C   UNL     1      20.506  49.328  49.136  1.00  0.00     0.038 A 
HETATM   22  C   UNL     1      21.902  49.322  49.247  1.00  0.00     0.105 A 
BRANCH  22  23
HETATM   23  N   UNL     1      22.604  50.494  49.779  1.00  0.00    -0.116 N 
HETATM   24  O   UNL     1      23.697  50.779  49.265  1.00  0.00    -0.532 OA
HETATM   25  O   UNL     1      22.078  51.103  50.716  1.00  0.00    -0.532 OA
ENDBRANCH  22  23
ENDBRANCH  10  11
ENDBRANCH   9  10
ENDBRANCH   5   9
BRANCH   1  26
HETATM   26  C   UNL     1      26.859  43.941  52.725  1.00  0.00     0.273 C 
BRANCH  26  27
HETATM   27  C   UNL     1      27.969  44.090  53.725  1.00  0.00    -0.030 A 
HETATM   28  C   UNL     1      29.082  43.214  53.689  1.00  0.00     0.012 A 
HETATM   29  C   UNL     1      30.136  43.350  54.598  1.00  0.00     0.040 A 
HETATM   30  C   UNL     1      30.052  44.356  55.533  1.00  0.00     0.105 A 
HETATM   31  C   UNL     1      28.973  45.204  55.584  1.00  0.00     0.105 A 
HETATM   32  O   UNL     1      30.973  44.632  56.489  1.00  0.00    -0.323 OA
HETATM   33  C   UNL     1      27.918  45.100  54.702  1.00  0.00     0.048 A 
HETATM   34  O   UNL     1      29.081  46.120  56.580  1.00  0.00    -0.323 OA
HETATM   35  C   UNL     1      30.329  45.716  57.193  1.00  0.00     0.352 A 
ENDBRANCH  26  27
ENDBRANCH   1  26
TORSDOF 6
ENDMDL
MODEL 5
REMARK VINA RESULT:      -9.2      2.536      3.375
REMARK  6 active torsions:
REMARK  status: ('A' for Active; 'I' for Inactive)
REMARK    1  A    between atoms: C_2  and  C_3 
REMARK    2  A    between atoms: C_3  and  N_4 
REMARK    3  A    between atoms: N_8  and  C_10 
REMARK    4  A    between atoms: C_10  and  C_11 
REMARK    5  A    between atoms: C_11  and  C_12 
REMARK    6  A    between atoms: C_20  and  N_21 
ROOT
HETATM    1  N   UNL     1      26.750  43.132  52.491  1.00  0.00    -0.064 N 
HETATM    2  H   UNL     1      26.901  42.536  53.322  1.00  0.00     0.280 HD
HETATM    3  C   UNL     1      26.483  42.197  51.321  1.00  0.00     0.263 C 
HETATM    4  C   UNL     1      26.021  42.968  50.053  1.00  0.00     0.262 C 
HETATM    5  N   UNL     1      24.865  43.935  50.334  1.00  0.00    -0.068 N 
HETATM    6  H   UNL     1      24.006  43.378  50.483  1.00  0.00     0.280 HD
HETATM    7  C   UNL     1      25.073  44.804  51.587  1.00  0.00     0.262 C 
HETATM    8  C   UNL     1      25.518  43.970  52.806  1.00  0.00     0.263 C 
ENDROOT
BRANCH   5   9
HETATM    9  C   UNL     1      24.552  44.856  49.143  1.00  0.00     0.238 C 
BRANCH   9  10
HETATM   10  C   UNL     1      23.565  45.952  49.523  1.00  0.00     0.070 C 
BRANCH  10  11
HETATM   11  C   UNL     1      22.481  46.113  48.439  1.00  0.00     0.222 C 
HETATM   12  O   UNL     1      22.259  47.503  48.274  1.00  0.00    -0.334 OA
HETATM   13  C   UNL     1      21.037  47.962  48.676  1.00  0.00     0.099 A 
HETATM   14  C   UNL     1      19.978  47.136  49.063  1.00  0.00     0.068 A 
HETATM   15  C   UNL     1      20.883  49.347  48.681  1.00  0.00     0.075 A 
HETATM   16  N   UNL     1      20.137  45.751  49.074  1.00  0.00    -0.323 N 
HETATM   17  C   UNL     1      18.758  47.690  49.453  1.00  0.00     0.035 A 
HETATM   18  C   UNL     1      21.328  45.159  48.778  1.00  0.00     0.251 C 
HETATM   19  H   UNL     1      19.364  45.141  49.320  1.00  0.00     0.169 HD
HETATM   20  O   UNL     1      21.499  43.945  48.851  1.00  0.00    -0.270 OA
HETATM   21  C   UNL     1      18.599  49.080  49.476  1.00  0.00     0.038 A 
HETATM   22  C   UNL     1      19.666  49.903  49.094  1.00  0.00     0.105 A 
BRANCH  22  23
HETATM   23  N   UNL     1      19.530  51.362  49.156  1.00  0.00    -0.116 N 
HETATM   24  O   UNL     1      18.571  51.813  49.802  1.00  0.00    -0.532 OA
HETATM   25  O   UNL     1      20.357  52.044  48.541  1.00  0.00    -0.532 OA
ENDBRANCH  22  23
ENDBRANCH  10  11
ENDBRANCH   9  10
ENDBRANCH   5   9
BRANCH   1  26
HETATM   26  C   UNL     1      28.067  43.894  52.347  1.00  0.00     0.273 C 
BRANCH  26  27
HETATM   27  C   UNL     1      28.820  44.071  53.633  1.00  0.00    -0.030 A 
HETATM   28  C   UNL     1      29.872  43.184  53.970  1.00  0.00     0.012 A 
HETATM   29  C   UNL     1      30.601  43.346  55.153  1.00  0.00     0.040 A 
HETATM   30  C   UNL     1      30.256  44.390  55.982  1.00  0.00     0.105 A 
HETATM   31  C   UNL     1      29.232  45.249  55.670  1.00  0.00     0.105 A 
HETATM   32  O   UNL     1      30.847  44.694  57.164  1.00  0.00    -0.323 OA
HETATM   33  C   UNL     1      28.495  45.120  54.511  1.00  0.00     0.048 A 
HETATM   34  O   UNL     1      29.050  46.203  56.619  1.00  0.00    -0.323 OA
HETATM   35  C   UNL     1      30.042  45.812  57.598  1.00  0.00     0.352 A 
ENDBRANCH  26  27
ENDBRANCH   1  26
TORSDOF 6
ENDMDL
MODEL 6
REMARK VINA RESULT:      -9.1      2.534     10.967
REMARK  6 active torsions:
REMARK  status: ('A' for Active; 'I' for Inactive)
REMARK    1  A    between atoms: C_2  and  C_3 
REMARK    2  A    between atoms: C_3  and  N_4 
REMARK    3  A    between atoms: N_8  and  C_10 
REMARK    4  A    between atoms: C_10  and  C_11 
REMARK    5  A    between atoms: C_11  and  C_12 
REMARK    6  A    between atoms: C_20  and  N_21 
ROOT
HETATM    1  N   UNL     1      23.122  49.579  48.173  1.00  0.00    -0.064 N 
HETATM    2  H   UNL     1      22.665  49.936  47.318  1.00  0.00     0.280 HD
HETATM    3  C   UNL     1      22.781  48.099  48.272  1.00  0.00     0.263 C 
HETATM    4  C   UNL     1      23.586  47.388  49.393  1.00  0.00     0.262 C 
HETATM    5  N   UNL     1      25.094  47.658  49.304  1.00  0.00    -0.068 N 
HETATM    6  H   UNL     1      25.470  47.128  48.500  1.00  0.00     0.280 HD
HETATM    7  C   UNL     1      25.446  49.140  49.086  1.00  0.00     0.262 C 
HETATM    8  C   UNL     1      24.616  49.774  47.951  1.00  0.00     0.263 C 
ENDROOT
BRANCH   5   9
HETATM    9  C   UNL     1      25.867  47.143  50.530  1.00  0.00     0.238 C 
BRANCH   9  10
HETATM   10  C   UNL     1      26.643  45.872  50.213  1.00  0.00     0.070 C 
BRANCH  10  11
HETATM   11  C   UNL     1      26.321  44.764  51.235  1.00  0.00     0.222 C 
HETATM   12  O   UNL     1      26.544  45.309  52.525  1.00  0.00    -0.334 OA
HETATM   13  C   UNL     1      27.592  44.779  53.221  1.00  0.00     0.099 A 
HETATM   14  C   UNL     1      28.316  43.655  52.814  1.00  0.00     0.068 A 
HETATM   15  C   UNL     1      27.920  45.431  54.408  1.00  0.00     0.075 A 
HETATM   16  N   UNL     1      27.998  43.012  51.618  1.00  0.00    -0.323 N 
HETATM   17  C   UNL     1      29.370  43.174  53.592  1.00  0.00     0.035 A 
HETATM   18  C   UNL     1      27.032  43.482  50.781  1.00  0.00     0.251 C 
HETATM   19  H   UNL     1      28.495  42.175  51.330  1.00  0.00     0.169 HD
HETATM   20  O   UNL     1      26.790  42.965  49.693  1.00  0.00    -0.270 OA
HETATM   21  C   UNL     1      29.717  43.832  54.778  1.00  0.00     0.038 A 
HETATM   22  C   UNL     1      28.993  44.962  55.178  1.00  0.00     0.105 A 
BRANCH  22  23
HETATM   23  N   UNL     1      29.373  45.688  56.394  1.00  0.00    -0.116 N 
HETATM   24  O   UNL     1      28.454  46.057  57.141  1.00  0.00    -0.532 OA
HETATM   25  O   UNL     1      30.574  45.907  56.582  1.00  0.00    -0.532 OA
ENDBRANCH  22  23
ENDBRANCH  10  11
ENDBRANCH   9  10
ENDBRANCH   5   9
BRANCH   1  26
HETATM   26  C   UNL     1      22.493  50.404  49.294  1.00  0.00     0.273 C 
BRANCH  26  27
HETATM   27  C   UNL     1      21.069  50.806  49.038  1.00  0.00    -0.030 A 
HETATM   28  C   UNL     1      20.259  51.271  50.103  1.00  0.00     0.012 A 
HETATM   29  C   UNL     1      18.937  51.671  49.882  1.00  0.00     0.040 A 
HETATM   30  C   UNL     1      18.448  51.590  48.598  1.00  0.00     0.105 A 
HETATM   31  C   UNL     1      19.221  51.130  47.561  1.00  0.00     0.105 A 
HETATM   32  O   UNL     1      17.196  51.928  48.201  1.00  0.00    -0.323 OA
HETATM   33  C   UNL     1      20.528  50.731  47.743  1.00  0.00     0.048 A 
HETATM   34  O   UNL     1      18.551  51.123  46.380  1.00  0.00    -0.323 OA
HETATM   35  C   UNL     1      17.242  51.576  46.801  1.00  0.00     0.352 A 
ENDBRANCH  26  27
ENDBRANCH   1  26
TORSDOF 6
ENDMDL
MODEL 7
REMARK VINA RESULT:      -9.0      2.011      3.003
REMARK  6 active torsions:
REMARK  status: ('A' for Active; 'I' for Inactive)
REMARK    1  A    between atoms: C_2  and  C_3 
REMARK    2  A    between atoms: C_3  and  N_4 
REMARK    3  A    between atoms: N_8  and  C_10 
REMARK    4  A    between atoms: C_10  and  C_11 
REMARK    5  A    between atoms: C_11  and  C_12 
REMARK    6  A    between atoms: C_20  and  N_21 
ROOT
HETATM    1  N   UNL     1      28.198  42.317  53.392  1.00  0.00    -0.064 N 
HETATM    2  H   UNL     1      28.681  41.513  53.826  1.00  0.00     0.280 HD
HETATM    3  C   UNL     1      27.677  41.845  52.043  1.00  0.00     0.263 C 
HETATM    4  C   UNL     1      26.740  42.892  51.380  1.00  0.00     0.262 C 
HETATM    5  N   UNL     1      25.632  43.378  52.322  1.00  0.00    -0.068 N 
HETATM    6  H   UNL     1      24.942  42.615  52.429  1.00  0.00     0.280 HD
HETATM    7  C   UNL     1      26.131  43.747  53.730  1.00  0.00     0.262 C 
HETATM    8  C   UNL     1      27.045  42.656  54.327  1.00  0.00     0.263 C 
ENDROOT
BRANCH   5   9
HETATM    9  C   UNL     1      24.841  44.568  51.753  1.00  0.00     0.238 C 
BRANCH   9  10
HETATM   10  C   UNL     1      23.926  44.142  50.613  1.00  0.00     0.070 C 
BRANCH  10  11
HETATM   11  C   UNL     1      24.295  44.879  49.310  1.00  0.00     0.222 C 
HETATM   12  O   UNL     1      24.324  46.265  49.608  1.00  0.00    -0.334 OA
HETATM   13  C   UNL     1      23.350  47.020  49.022  1.00  0.00     0.099 A 
HETATM   14  C   UNL     1      22.469  46.545  48.047  1.00  0.00     0.068 A 
HETATM   15  C   UNL     1      23.270  48.343  49.453  1.00  0.00     0.075 A 
HETATM   16  N   UNL     1      22.538  45.217  47.628  1.00  0.00    -0.323 N 
HETATM   17  C   UNL     1      21.506  47.390  47.493  1.00  0.00     0.035 A 
HETATM   18  C   UNL     1      23.405  44.328  48.187  1.00  0.00     0.251 C 
HETATM   19  H   UNL     1      21.927  44.870  46.896  1.00  0.00     0.169 HD
HETATM   20  O   UNL     1      23.428  43.140  47.875  1.00  0.00    -0.270 OA
HETATM   21  C   UNL     1      21.408  48.716  47.931  1.00  0.00     0.038 A 
HETATM   22  C   UNL     1      22.288  49.185  48.914  1.00  0.00     0.105 A 
BRANCH  22  23
HETATM   23  N   UNL     1      22.169  50.558  49.414  1.00  0.00    -0.116 N 
HETATM   24  O   UNL     1      21.048  51.086  49.355  1.00  0.00    -0.532 OA
HETATM   25  O   UNL     1      23.192  51.108  49.836  1.00  0.00    -0.532 OA
ENDBRANCH  22  23
ENDBRANCH  10  11
ENDBRANCH   9  10
ENDBRANCH   5   9
BRANCH   1  26
HETATM   26  C   UNL     1      29.295  43.372  53.263  1.00  0.00     0.273 C 
BRANCH  26  27
HETATM   27  C   UNL     1      29.622  44.082  54.545  1.00  0.00    -0.030 A 
HETATM   28  C   UNL     1      29.000  45.317  54.853  1.00  0.00     0.012 A 
HETATM   29  C   UNL     1      29.274  45.983  56.052  1.00  0.00     0.040 A 
HETATM   30  C   UNL     1      30.173  45.403  56.918  1.00  0.00     0.105 A 
HETATM   31  C   UNL     1      30.789  44.212  56.624  1.00  0.00     0.105 A 
HETATM   32  O   UNL     1      30.561  45.906  58.116  1.00  0.00    -0.323 OA
HETATM   33  C   UNL     1      30.541  43.528  55.453  1.00  0.00     0.048 A 
HETATM   34  O   UNL     1      31.643  43.816  57.603  1.00  0.00    -0.323 OA
HETATM   35  C   UNL     1      31.540  44.927  58.526  1.00  0.00     0.352 A 
ENDBRANCH  26  27
ENDBRANCH   1  26
TORSDOF 6
ENDMDL
MODEL 8
REMARK VINA RESULT:      -8.8      2.670      3.755
REMARK  6 active torsions:
REMARK  status: ('A' for Active; 'I' for Inactive)
REMARK    1  A    between atoms: C_2  and  C_3 
REMARK    2  A    between atoms: C_3  and  N_4 
REMARK    3  A    between atoms: N_8  and  C_10 
REMARK    4  A    between atoms: C_10  and  C_11 
REMARK    5  A    between atoms: C_11  and  C_12 
REMARK    6  A    between atoms: C_20  and  N_21 
ROOT
HETATM    1  N   UNL     1      26.872  44.766  51.147  1.00  0.00    -0.064 N 
HETATM    2  H   UNL     1      27.885  44.971  51.170  1.00  0.00     0.280 HD
HETATM    3  C   UNL     1      26.153  46.102  51.034  1.00  0.00     0.263 C 
HETATM    4  C   UNL     1      24.633  45.927  50.768  1.00  0.00     0.262 C 
HETATM    5  N   UNL     1      24.341  44.980  49.597  1.00  0.00    -0.068 N 
HETATM    6  H   UNL     1      24.585  45.468  48.718  1.00  0.00     0.280 HD
HETATM    7  C   UNL     1      25.153  43.673  49.638  1.00  0.00     0.262 C 
HETATM    8  C   UNL     1      26.652  43.928  49.894  1.00  0.00     0.263 C 
ENDROOT
BRANCH   5   9
HETATM    9  C   UNL     1      22.849  44.629  49.469  1.00  0.00     0.238 C 
BRANCH   9  10
HETATM   10  C   UNL     1      22.400  44.600  48.014  1.00  0.00     0.070 C 
BRANCH  10  11
HETATM   11  C   UNL     1      22.376  46.022  47.420  1.00  0.00     0.222 C 
HETATM   12  O   UNL     1      21.995  46.904  48.463  1.00  0.00    -0.334 OA
HETATM   13  C   UNL     1      20.775  47.499  48.321  1.00  0.00     0.099 A 
HETATM   14  C   UNL     1      19.994  47.422  47.165  1.00  0.00     0.068 A 
HETATM   15  C   UNL     1      20.323  48.222  49.424  1.00  0.00     0.075 A 
HETATM   16  N   UNL     1      20.437  46.685  46.068  1.00  0.00    -0.323 N 
HETATM   17  C   UNL     1      18.759  48.071  47.102  1.00  0.00     0.035 A 
HETATM   18  C   UNL     1      21.596  45.969  46.100  1.00  0.00     0.251 C 
HETATM   19  H   UNL     1      19.894  46.651  45.211  1.00  0.00     0.169 HD
HETATM   20  O   UNL     1      21.963  45.262  45.165  1.00  0.00    -0.270 OA
HETATM   21  C   UNL     1      18.291  48.786  48.210  1.00  0.00     0.038 A 
HETATM   22  C   UNL     1      19.074  48.854  49.369  1.00  0.00     0.105 A 
BRANCH  22  23
HETATM   23  N   UNL     1      18.578  49.563  50.553  1.00  0.00    -0.116 N 
HETATM   24  O   UNL     1      18.594  48.945  51.629  1.00  0.00    -0.532 OA
HETATM   25  O   UNL     1      18.152  50.713  50.399  1.00  0.00    -0.532 OA
ENDBRANCH  22  23
ENDBRANCH  10  11
ENDBRANCH   9  10
ENDBRANCH   5   9
BRANCH   1  26
HETATM   26  C   UNL     1      26.613  44.068  52.480  1.00  0.00     0.273 C 
BRANCH  26  27
HETATM   27  C   UNL     1      27.795  44.048  53.406  1.00  0.00    -0.030 A 
HETATM   28  C   UNL     1      28.793  43.052  53.263  1.00  0.00     0.012 A 
HETATM   29  C   UNL     1      29.913  43.029  54.101  1.00  0.00     0.040 A 
HETATM   30  C   UNL     1      30.008  43.999  55.072  1.00  0.00     0.105 A 
HETATM   31  C   UNL     1      29.041  44.962  55.226  1.00  0.00     0.105 A 
HETATM   32  O   UNL     1      31.015  44.127  55.972  1.00  0.00    -0.323 OA
HETATM   33  C   UNL     1      27.926  45.016  54.416  1.00  0.00     0.048 A 
HETATM   34  O   UNL     1      29.321  45.818  56.242  1.00  0.00    -0.323 OA
HETATM   35  C   UNL     1      30.550  45.249  56.754  1.00  0.00     0.352 A 
ENDBRANCH  26  27
ENDBRANCH   1  26
TORSDOF 6
ENDMDL
MODEL 9
REMARK VINA RESULT:      -8.8      2.595      4.104
REMARK  6 active torsions:
REMARK  status: ('A' for Active; 'I' for Inactive)
REMARK    1  A    between atoms: C_2  and  C_3 
REMARK    2  A    between atoms: C_3  and  N_4 
REMARK    3  A    between atoms: N_8  and  C_10 
REMARK    4  A    between atoms: C_10  and  C_11 
REMARK    5  A    between atoms: C_11  and  C_12 
REMARK    6  A    between atoms: C_20  and  N_21 
ROOT
HETATM    1  N   UNL     1      25.450  44.617  50.904  1.00  0.00    -0.064 N 
HETATM    2  H   UNL     1      26.326  44.093  51.064  1.00  0.00     0.280 HD
HETATM    3  C   UNL     1      25.822  45.876  50.135  1.00  0.00     0.263 C 
HETATM    4  C   UNL     1      24.569  46.646  49.635  1.00  0.00     0.262 C 
HETATM    5  N   UNL     1      23.578  45.747  48.885  1.00  0.00    -0.068 N 
HETATM    6  H   UNL     1      23.985  45.520  47.961  1.00  0.00     0.280 HD
HETATM    7  C   UNL     1      23.286  44.415  49.599  1.00  0.00     0.262 C 
HETATM    8  C   UNL     1      24.577  43.703  50.054  1.00  0.00     0.263 C 
ENDROOT
BRANCH   5   9
HETATM    9  C   UNL     1      22.243  46.447  48.584  1.00  0.00     0.238 C 
BRANCH   9  10
HETATM   10  C   UNL     1      22.447  47.908  48.204  1.00  0.00     0.070 C 
BRANCH  10  11
HETATM   11  C   UNL     1      21.996  48.839  49.346  1.00  0.00     0.222 C 
HETATM   12  O   UNL     1      20.585  48.734  49.438  1.00  0.00    -0.334 OA
HETATM   13  C   UNL     1      19.882  49.851  49.090  1.00  0.00     0.099 A 
HETATM   14  C   UNL     1      20.464  51.095  48.828  1.00  0.00     0.068 A 
HETATM   15  C   UNL     1      18.500  49.695  49.009  1.00  0.00     0.075 A 
HETATM   16  N   UNL     1      21.848  51.247  48.893  1.00  0.00    -0.323 N 
HETATM   17  C   UNL     1      19.668  52.189  48.487  1.00  0.00     0.035 A 
HETATM   18  C   UNL     1      22.679  50.198  49.145  1.00  0.00     0.251 C 
HETATM   19  H   UNL     1      22.279  52.154  48.739  1.00  0.00     0.169 HD
HETATM   20  O   UNL     1      23.903  50.307  49.137  1.00  0.00    -0.270 OA
HETATM   21  C   UNL     1      18.280  52.037  48.387  1.00  0.00     0.038 A 
HETATM   22  C   UNL     1      17.702  50.787  48.644  1.00  0.00     0.105 A 
BRANCH  22  23
HETATM   23  N   UNL     1      16.255  50.602  48.501  1.00  0.00    -0.116 N 
HETATM   24  O   UNL     1      15.872  49.579  47.913  1.00  0.00    -0.532 OA
HETATM   25  O   UNL     1      15.514  51.484  48.948  1.00  0.00    -0.532 OA
ENDBRANCH  22  23
ENDBRANCH  10  11
ENDBRANCH   9  10
ENDBRANCH   5   9
BRANCH   1  26
HETATM   26  C   UNL     1      24.943  44.916  52.313  1.00  0.00     0.273 C 
BRANCH  26  27
HETATM   27  C   UNL     1      26.010  45.368  53.269  1.00  0.00    -0.030 A 
HETATM   28  C   UNL     1      25.938  46.654  53.858  1.00  0.00     0.012 A 
HETATM   29  C   UNL     1      26.910  47.085  54.768  1.00  0.00     0.040 A 
HETATM   30  C   UNL     1      27.940  46.222  55.064  1.00  0.00     0.105 A 
HETATM   31  C   UNL     1      28.024  44.978  54.490  1.00  0.00     0.105 A 
HETATM   32  O   UNL     1      28.967  46.472  55.914  1.00  0.00    -0.323 OA
HETATM   33  C   UNL     1      27.083  44.520  53.592  1.00  0.00     0.048 A 
HETATM   34  O   UNL     1      29.116  44.288  54.909  1.00  0.00    -0.323 OA
HETATM   35  C   UNL     1      29.747  45.265  55.772  1.00  0.00     0.352 A 
ENDBRANCH  26  27
ENDBRANCH   1  26
TORSDOF 6
ENDMDL
MODEL 10
REMARK VINA RESULT:      -8.6      3.234     10.901
REMARK  6 active torsions:
REMARK  status: ('A' for Active; 'I' for Inactive)
REMARK    1  A    between atoms: C_2  and  C_3 
REMARK    2  A    between atoms: C_3  and  N_4 
REMARK    3  A    between atoms: N_8  and  C_10 
REMARK    4  A    between atoms: C_10  and  C_11 
REMARK    5  A    between atoms: C_11  and  C_12 
REMARK    6  A    between atoms: C_20  and  N_21 
ROOT
HETATM    1  N   UNL     1      21.135  48.625  48.153  1.00  0.00    -0.064 N 
HETATM    2  H   UNL     1      20.622  49.131  47.412  1.00  0.00     0.280 HD
HETATM    3  C   UNL     1      21.485  47.255  47.590  1.00  0.00     0.263 C 
HETATM    4  C   UNL     1      22.450  46.471  48.522  1.00  0.00     0.262 C 
HETATM    5  N   UNL     1      23.679  47.292  48.931  1.00  0.00    -0.068 N 
HETATM    6  H   UNL     1      24.304  47.369  48.110  1.00  0.00     0.280 HD
HETATM    7  C   UNL     1      23.345  48.722  49.390  1.00  0.00     0.262 C 
HETATM    8  C   UNL     1      22.394  49.441  48.411  1.00  0.00     0.263 C 
ENDROOT
BRANCH   5   9
HETATM    9  C   UNL     1      24.520  46.608  50.022  1.00  0.00     0.238 C 
BRANCH   9  10
HETATM   10  C   UNL     1      24.563  45.098  49.835  1.00  0.00     0.070 C 
BRANCH  10  11
HETATM   11  C   UNL     1      24.317  44.373  51.173  1.00  0.00     0.222 C 
HETATM   12  O   UNL     1      24.626  45.292  52.208  1.00  0.00    -0.334 OA
HETATM   13  C   UNL     1      25.722  44.989  52.964  1.00  0.00     0.099 A 
HETATM   14  C   UNL     1      26.420  43.781  52.884  1.00  0.00     0.068 A 
HETATM   15  C   UNL     1      26.129  45.976  53.860  1.00  0.00     0.075 A 
HETATM   16  N   UNL     1      26.023  42.801  51.976  1.00  0.00    -0.323 N 
HETATM   17  C   UNL     1      27.527  43.551  53.702  1.00  0.00     0.035 A 
HETATM   18  C   UNL     1      24.999  43.001  51.100  1.00  0.00     0.251 C 
HETATM   19  H   UNL     1      26.502  41.907  51.934  1.00  0.00     0.169 HD
HETATM   20  O   UNL     1      24.684  42.172  50.250  1.00  0.00    -0.270 OA
HETATM   21  C   UNL     1      27.954  44.542  54.594  1.00  0.00     0.038 A 
HETATM   22  C   UNL     1      27.254  45.754  54.665  1.00  0.00     0.105 A 
BRANCH  22  23
HETATM   23  N   UNL     1      27.714  46.818  55.562  1.00  0.00    -0.116 N 
HETATM   24  O   UNL     1      28.467  46.488  56.491  1.00  0.00    -0.532 OA
HETATM   25  O   UNL     1      27.304  47.965  55.352  1.00  0.00    -0.532 OA
ENDBRANCH  22  23
ENDBRANCH  10  11
ENDBRANCH   9  10
ENDBRANCH   5   9
BRANCH   1  26
HETATM   26  C   UNL     1      20.131  48.550  49.302  1.00  0.00     0.273 C 
BRANCH  26  27
HETATM   27  C   UNL     1      19.182  49.711  49.369  1.00  0.00    -0.030 A 
HETATM   28  C   UNL     1      19.599  50.938  49.942  1.00  0.00     0.012 A 
HETATM   29  C   UNL     1      18.737  52.039  49.994  1.00  0.00     0.040 A 
HETATM   30  C   UNL     1      17.470  51.887  49.478  1.00  0.00     0.105 A 
HETATM   31  C   UNL     1      17.053  50.699  48.930  1.00  0.00     0.105 A 
HETATM   32  O   UNL     1      16.505  52.839  49.448  1.00  0.00    -0.323 OA
HETATM   33  C   UNL     1      17.877  49.595  48.860  1.00  0.00     0.048 A 
HETATM   34  O   UNL     1      15.772  50.756  48.486  1.00  0.00    -0.323 OA
HETATM   35  C   UNL     1      15.405  52.103  48.870  1.00  0.00     0.352 A 
ENDBRANCH  26  27
ENDBRANCH   1  26
TORSDOF 6
ENDMDL
