MODEL 1
REMARK VINA RESULT:      -9.7      0.000      0.000
REMARK  9 active torsions:
REMARK  status: ('A' for Active; 'I' for Inactive)
REMARK    1  A    between atoms: C_2  and  O_3 
REMARK    2  A    between atoms: O_3  and  C_4 
REMARK    3  A    between atoms: C_4  and  C_5 
REMARK    4  A    between atoms: C_8  and  N_9 
REMARK       I    between atoms: N_9  and  C_10 
REMARK    5  A    between atoms: C_10  and  C_11 
REMARK    6  A    between atoms: C_11  and  C_12 
REMARK    7  A    between atoms: N_13  and  C_14 
REMARK    8  A    between atoms: C_14  and  C_15 
REMARK    9  A    between atoms: N_23  and  C_24 
ROOT
HETATM    1  C   UNL     1      25.890  43.210  52.207  1.00  0.00     0.191 C 
HETATM    2  N   UNL     1      27.149  42.891  51.559  1.00  0.00    -0.315 N 
HETATM    3  C   UNL     1      28.235  43.394  52.270  1.00  0.00     0.333 C 
HETATM    4  O   UNL     1      29.364  43.420  51.801  1.00  0.00    -0.246 OA
HETATM    5  N   UNL     1      27.788  43.858  53.490  1.00  0.00    -0.232 N 
HETATM    6  C   UNL     1      26.417  43.707  53.556  1.00  0.00     0.256 C 
HETATM    7  O   UNL     1      25.657  43.961  54.484  1.00  0.00    -0.270 OA
ENDROOT
BRANCH   1   8
HETATM    8  C   UNL     1      25.087  44.355  51.597  1.00  0.00     0.138 C 
BRANCH   8   9
HETATM    9  C   UNL     1      23.905  43.882  50.805  1.00  0.00     0.224 C 
HETATM   10  N   UNL     1      23.154  44.668  49.997  1.00  0.00    -0.327 N 
HETATM   11  H   UNL     1      22.351  44.133  49.680  1.00  0.00     0.169 HD
HETATM   12  O   UNL     1      23.547  42.701  50.915  1.00  0.00    -0.273 OA
BRANCH  10  13
HETATM   13  C   UNL     1      23.265  45.947  49.430  1.00  0.00     0.034 A 
HETATM   14  C   UNL     1      22.434  46.498  48.458  1.00  0.00     0.030 A 
HETATM   15  C   UNL     1      22.580  47.846  48.081  1.00  0.00     0.020 A 
HETATM   16  C   UNL     1      23.557  48.658  48.670  1.00  0.00     0.039 A 
HETATM   17  C   UNL     1      24.428  48.095  49.602  1.00  0.00     0.020 A 
HETATM   18  C   UNL     1      24.280  46.754  49.974  1.00  0.00     0.030 A 
BRANCH  16  19
HETATM   19  C   UNL     1      23.598  50.106  48.321  1.00  0.00     0.293 C 
HETATM   20  O   UNL     1      23.855  50.526  47.203  1.00  0.00    -0.259 OA
BRANCH  19  21
HETATM   21  O   UNL     1      23.235  50.852  49.395  1.00  0.00    -0.318 OA
BRANCH  21  22
HETATM   22  C   UNL     1      21.862  50.753  49.801  1.00  0.00     0.174 C 
HETATM   23  C   UNL     1      20.948  51.331  48.739  1.00  0.00     0.034 C 
ENDBRANCH  21  22
ENDBRANCH  19  21
ENDBRANCH  16  19
ENDBRANCH  10  13
ENDBRANCH   8   9
ENDBRANCH   1   8
BRANCH   2  24
HETATM   24  C   UNL     1      27.296  42.475  50.170  1.00  0.00     0.168 C 
BRANCH  24  25
HETATM   25  C   UNL     1      27.333  40.990  49.944  1.00  0.00    -0.023 A 
HETATM   26  C   UNL     1      28.429  40.216  50.304  1.00  0.00     0.125 A 
HETATM   27  N   UNL     1      28.522  38.884  50.091  1.00  0.00    -0.273 NA
HETATM   28  C   UNL     1      27.490  38.295  49.452  1.00  0.00     0.116 A 
HETATM   29  C   UNL     1      26.365  38.977  49.021  1.00  0.00     0.020 A 
HETATM   30  C   UNL     1      26.292  40.344  49.268  1.00  0.00     0.012 A 
ENDBRANCH  24  25
ENDBRANCH   2  24
BRANCH   5  31
HETATM   31  C   UNL     1      28.619  44.453  54.491  1.00  0.00     0.047 A 
HETATM   32  C   UNL     1      29.662  43.733  55.104  1.00  0.00     0.037 A 
HETATM   33  C   UNL     1      30.523  44.317  56.051  1.00  0.00    -0.060 A 
HETATM   34  C   UNL     1      31.612  43.510  56.695  1.00  0.00     0.048 C 
HETATM   35  C   UNL     1      30.325  45.647  56.419  1.00  0.00     0.007 A 
HETATM   36  C   UNL     1      29.292  46.378  55.840  1.00  0.00     0.003 A 
HETATM   37  C   UNL     1      28.450  45.787  54.890  1.00  0.00     0.030 A 
ENDBRANCH   5  31
TORSDOF 9
ENDMDL
MODEL 2
REMARK VINA RESULT:      -9.6      2.483      4.810
REMARK  9 active torsions:
REMARK  status: ('A' for Active; 'I' for Inactive)
REMARK    1  A    between atoms: C_2  and  O_3 
REMARK    2  A    between atoms: O_3  and  C_4 
REMARK    3  A    between atoms: C_4  and  C_5 
REMARK    4  A    between atoms: C_8  and  N_9 
REMARK       I    between atoms: N_9  and  C_10 
REMARK    5  A    between atoms: C_10  and  C_11 
REMARK    6  A    between atoms: C_11  and  C_12 
REMARK    7  A    between atoms: N_13  and  C_14 
REMARK    8  A    between atoms: C_14  and  C_15 
REMARK    9  A    between atoms: N_23  and  C_24 
ROOT
HETATM    1  C   UNL     1      27.502  44.169  52.065  1.00  0.00     0.191 C 
HETATM    2  N   UNL     1      26.745  45.281  52.608  1.00  0.00    -0.315 N 
HETATM    3  C   UNL     1      27.173  45.619  53.888  1.00  0.00     0.333 C 
HETATM    4  O   UNL     1      26.543  46.383  54.605  1.00  0.00    -0.246 OA
HETATM    5  N   UNL     1      28.334  44.926  54.162  1.00  0.00    -0.232 N 
HETATM    6  C   UNL     1      28.634  44.106  53.093  1.00  0.00     0.256 C 
HETATM    7  O   UNL     1      29.600  43.367  52.935  1.00  0.00    -0.270 OA
ENDROOT
BRANCH   1   8
HETATM    8  C   UNL     1      26.811  42.809  52.085  1.00  0.00     0.138 C 
BRANCH   8   9
HETATM    9  C   UNL     1      26.848  42.116  50.755  1.00  0.00     0.224 C 
HETATM   10  N   UNL     1      25.906  42.248  49.791  1.00  0.00    -0.327 N 
HETATM   11  H   UNL     1      26.105  41.584  49.049  1.00  0.00     0.169 HD
HETATM   12  O   UNL     1      27.775  41.331  50.516  1.00  0.00    -0.273 OA
BRANCH  10  13
HETATM   13  C   UNL     1      24.831  43.113  49.527  1.00  0.00     0.034 A 
HETATM   14  C   UNL     1      24.802  44.134  48.581  1.00  0.00     0.030 A 
HETATM   15  C   UNL     1      23.607  44.833  48.329  1.00  0.00     0.020 A 
HETATM   16  C   UNL     1      22.429  44.520  49.019  1.00  0.00     0.039 A 
HETATM   17  C   UNL     1      22.469  43.537  50.007  1.00  0.00     0.020 A 
HETATM   18  C   UNL     1      23.659  42.845  50.255  1.00  0.00     0.030 A 
BRANCH  16  19
HETATM   19  C   UNL     1      21.165  45.210  48.637  1.00  0.00     0.293 C 
HETATM   20  O   UNL     1      20.055  44.821  48.966  1.00  0.00    -0.259 OA
BRANCH  19  21
HETATM   21  O   UNL     1      21.446  46.349  47.954  1.00  0.00    -0.318 OA
BRANCH  21  22
HETATM   22  C   UNL     1      21.002  47.574  48.554  1.00  0.00     0.174 C 
HETATM   23  C   UNL     1      19.959  48.247  47.684  1.00  0.00     0.034 C 
ENDBRANCH  21  22
ENDBRANCH  19  21
ENDBRANCH  16  19
ENDBRANCH  10  13
ENDBRANCH   8   9
ENDBRANCH   1   8
BRANCH   2  24
HETATM   24  C   UNL     1      25.455  45.743  52.108  1.00  0.00     0.168 C 
BRANCH  24  25
HETATM   25  C   UNL     1      25.518  46.838  51.082  1.00  0.00    -0.023 A 
HETATM   26  C   UNL     1      24.372  47.428  50.561  1.00  0.00     0.125 A 
HETATM   27  N   UNL     1      24.378  48.393  49.613  1.00  0.00    -0.273 NA
HETATM   28  C   UNL     1      25.581  48.766  49.130  1.00  0.00     0.116 A 
HETATM   29  C   UNL     1      26.780  48.222  49.555  1.00  0.00     0.020 A 
HETATM   30  C   UNL     1      26.744  47.242  50.541  1.00  0.00     0.012 A 
ENDBRANCH  24  25
ENDBRANCH   2  24
BRANCH   5  31
HETATM   31  C   UNL     1      29.065  45.012  55.389  1.00  0.00     0.047 A 
HETATM   32  C   UNL     1      30.140  44.146  55.667  1.00  0.00     0.037 A 
HETATM   33  C   UNL     1      30.905  44.251  56.843  1.00  0.00    -0.060 A 
HETATM   34  C   UNL     1      32.032  43.297  57.110  1.00  0.00     0.048 C 
HETATM   35  C   UNL     1      30.575  45.226  57.783  1.00  0.00     0.007 A 
HETATM   36  C   UNL     1      29.507  46.086  57.542  1.00  0.00     0.003 A 
HETATM   37  C   UNL     1      28.762  45.977  56.361  1.00  0.00     0.030 A 
ENDBRANCH   5  31
TORSDOF 9
ENDMDL
MODEL 3
REMARK VINA RESULT:      -9.4      2.737      4.853
REMARK  9 active torsions:
REMARK  status: ('A' for Active; 'I' for Inactive)
REMARK    1  A    between atoms: C_2  and  O_3 
REMARK    2  A    between atoms: O_3  and  C_4 
REMARK    3  A    between atoms: C_4  and  C_5 
REMARK    4  A    between atoms: C_8  and  N_9 
REMARK       I    between atoms: N_9  and  C_10 
REMARK    5  A    between atoms: C_10  and  C_11 
REMARK    6  A    between atoms: C_11  and  C_12 
REMARK    7  A    between atoms: N_13  and  C_14 
REMARK    8  A    between atoms: C_14  and  C_15 
REMARK    9  A    between atoms: N_23  and  C_24 
ROOT
HETATM    1  C   UNL     1      25.347  44.878  50.665  1.00  0.00     0.191 C 
HETATM    2  N   UNL     1      25.338  46.288  51.005  1.00  0.00    -0.315 N 
HETATM    3  C   UNL     1      26.042  46.539  52.179  1.00  0.00     0.333 C 
HETATM    4  O   UNL     1      25.988  47.616  52.754  1.00  0.00    -0.246 OA
HETATM    5  N   UNL     1      26.716  45.391  52.543  1.00  0.00    -0.232 N 
HETATM    6  C   UNL     1      26.414  44.386  51.646  1.00  0.00     0.256 C 
HETATM    7  O   UNL     1      26.841  43.237  51.602  1.00  0.00    -0.270 OA
ENDROOT
BRANCH   1   8
HETATM    8  C   UNL     1      24.071  44.101  50.975  1.00  0.00     0.138 C 
BRANCH   8   9
HETATM    9  C   UNL     1      23.649  43.200  49.853  1.00  0.00     0.224 C 
HETATM   10  N   UNL     1      22.657  43.477  48.973  1.00  0.00    -0.327 N 
HETATM   11  H   UNL     1      22.495  42.656  48.398  1.00  0.00     0.169 HD
HETATM   12  O   UNL     1      24.206  42.100  49.728  1.00  0.00    -0.273 OA
BRANCH  10  13
HETATM   13  C   UNL     1      21.906  44.605  48.606  1.00  0.00     0.034 A 
HETATM   14  C   UNL     1      20.621  44.921  49.038  1.00  0.00     0.030 A 
HETATM   15  C   UNL     1      20.042  46.158  48.695  1.00  0.00     0.020 A 
HETATM   16  C   UNL     1      20.740  47.090  47.918  1.00  0.00     0.039 A 
HETATM   17  C   UNL     1      22.005  46.753  47.436  1.00  0.00     0.020 A 
HETATM   18  C   UNL     1      22.576  45.523  47.779  1.00  0.00     0.030 A 
BRANCH  16  19
HETATM   19  C   UNL     1      20.131  48.429  47.678  1.00  0.00     0.293 C 
HETATM   20  O   UNL     1      19.167  48.614  46.952  1.00  0.00    -0.259 OA
BRANCH  19  21
HETATM   21  O   UNL     1      20.754  49.365  48.438  1.00  0.00    -0.318 OA
BRANCH  21  22
HETATM   22  C   UNL     1      20.958  50.647  47.826  1.00  0.00     0.174 C 
HETATM   23  C   UNL     1      20.127  51.708  48.519  1.00  0.00     0.034 C 
ENDBRANCH  21  22
ENDBRANCH  19  21
ENDBRANCH  16  19
ENDBRANCH  10  13
ENDBRANCH   8   9
ENDBRANCH   1   8
BRANCH   2  24
HETATM   24  C   UNL     1      24.408  47.275  50.470  1.00  0.00     0.168 C 
BRANCH  24  25
HETATM   25  C   UNL     1      25.004  48.268  49.513  1.00  0.00    -0.023 A 
HETATM   26  C   UNL     1      26.377  48.395  49.342  1.00  0.00     0.125 A 
HETATM   27  N   UNL     1      26.960  49.296  48.517  1.00  0.00    -0.273 NA
HETATM   28  C   UNL     1      26.139  50.139  47.857  1.00  0.00     0.116 A 
HETATM   29  C   UNL     1      24.761  50.119  47.979  1.00  0.00     0.020 A 
HETATM   30  C   UNL     1      24.190  49.173  48.822  1.00  0.00     0.012 A 
ENDBRANCH  24  25
ENDBRANCH   2  24
BRANCH   5  31
HETATM   31  C   UNL     1      27.543  45.263  53.703  1.00  0.00     0.047 A 
HETATM   32  C   UNL     1      28.601  44.336  53.754  1.00  0.00     0.037 A 
HETATM   33  C   UNL     1      29.459  44.234  54.864  1.00  0.00    -0.060 A 
HETATM   34  C   UNL     1      30.565  43.220  54.886  1.00  0.00     0.048 C 
HETATM   35  C   UNL     1      29.242  45.058  55.967  1.00  0.00     0.007 A 
HETATM   36  C   UNL     1      28.195  45.974  55.951  1.00  0.00     0.003 A 
HETATM   37  C   UNL     1      27.356  46.073  54.834  1.00  0.00     0.030 A 
ENDBRANCH   5  31
TORSDOF 9
ENDMDL
MODEL 4
REMARK VINA RESULT:      -9.3      3.230      9.638
REMARK  9 active torsions:
REMARK  status: ('A' for Active; 'I' for Inactive)
REMARK    1  A    between atoms: C_2  and  O_3 
REMARK    2  A    between atoms: O_3  and  C_4 
REMARK    3  A    between atoms: C_4  and  C_5 
REMARK    4  A    between atoms: C_8  and  N_9 
REMARK       I    between atoms: N_9  and  C_10 
REMARK    5  A    between atoms: C_10  and  C_11 
REMARK    6  A    between atoms: C_11  and  C_12 
REMARK    7  A    between atoms: N_13  and  C_14 
REMARK    8  A    between atoms: C_14  and  C_15 
REMARK    9  A    between atoms: N_23  and  C_24 
ROOT
HETATM    1  C   UNL     1      23.614  48.693  48.145  1.00  0.00     0.191 C 
HETATM    2  N   UNL     1      22.599  47.803  48.677  1.00  0.00    -0.315 N 
HETATM    3  C   UNL     1      21.348  48.412  48.710  1.00  0.00     0.333 C 
HETATM    4  O   UNL     1      20.400  47.922  49.307  1.00  0.00    -0.246 OA
HETATM    5  N   UNL     1      21.419  49.606  48.023  1.00  0.00    -0.232 N 
HETATM    6  C   UNL     1      22.716  49.801  47.589  1.00  0.00     0.256 C 
HETATM    7  O   UNL     1      23.174  50.716  46.914  1.00  0.00    -0.270 OA
ENDROOT
BRANCH   1   8
HETATM    8  C   UNL     1      24.542  49.346  49.164  1.00  0.00     0.138 C 
BRANCH   8   9
HETATM    9  C   UNL     1      25.990  49.230  48.794  1.00  0.00     0.224 C 
HETATM   10  N   UNL     1      26.831  48.277  49.261  1.00  0.00    -0.327 N 
HETATM   11  H   UNL     1      27.774  48.497  48.954  1.00  0.00     0.169 HD
HETATM   12  O   UNL     1      26.484  50.082  48.042  1.00  0.00    -0.273 OA
BRANCH  10  13
HETATM   13  C   UNL     1      26.710  47.055  49.943  1.00  0.00     0.034 A 
HETATM   14  C   UNL     1      27.183  45.818  49.517  1.00  0.00     0.030 A 
HETATM   15  C   UNL     1      27.112  44.699  50.368  1.00  0.00     0.020 A 
HETATM   16  C   UNL     1      26.567  44.806  51.654  1.00  0.00     0.039 A 
HETATM   17  C   UNL     1      26.040  46.031  52.063  1.00  0.00     0.020 A 
HETATM   18  C   UNL     1      26.112  47.139  51.213  1.00  0.00     0.030 A 
BRANCH  16  19
HETATM   19  C   UNL     1      26.618  43.623  52.559  1.00  0.00     0.293 C 
HETATM   20  O   UNL     1      26.726  42.473  52.164  1.00  0.00    -0.259 OA
BRANCH  19  21
HETATM   21  O   UNL     1      26.606  44.029  53.854  1.00  0.00    -0.318 OA
BRANCH  21  22
HETATM   22  C   UNL     1      27.839  43.889  54.574  1.00  0.00     0.174 C 
HETATM   23  C   UNL     1      28.437  45.248  54.879  1.00  0.00     0.034 C 
ENDBRANCH  21  22
ENDBRANCH  19  21
ENDBRANCH  16  19
ENDBRANCH  10  13
ENDBRANCH   8   9
ENDBRANCH   1   8
BRANCH   2  24
HETATM   24  C   UNL     1      22.862  46.600  49.456  1.00  0.00     0.168 C 
BRANCH  24  25
HETATM   25  C   UNL     1      22.769  45.308  48.696  1.00  0.00    -0.023 A 
HETATM   26  C   UNL     1      21.552  44.780  48.283  1.00  0.00     0.125 A 
HETATM   27  N   UNL     1      21.416  43.606  47.626  1.00  0.00    -0.273 NA
HETATM   28  C   UNL     1      22.543  42.899  47.401  1.00  0.00     0.116 A 
HETATM   29  C   UNL     1      23.802  43.316  47.797  1.00  0.00     0.020 A 
HETATM   30  C   UNL     1      23.912  44.535  48.458  1.00  0.00     0.012 A 
ENDBRANCH  24  25
ENDBRANCH   2  24
BRANCH   5  31
HETATM   31  C   UNL     1      20.328  50.514  47.848  1.00  0.00     0.047 A 
HETATM   32  C   UNL     1      19.402  50.359  46.799  1.00  0.00     0.037 A 
HETATM   33  C   UNL     1      18.292  51.210  46.644  1.00  0.00    -0.060 A 
HETATM   34  C   UNL     1      17.337  51.021  45.501  1.00  0.00     0.048 C 
HETATM   35  C   UNL     1      18.113  52.262  47.540  1.00  0.00     0.007 A 
HETATM   36  C   UNL     1      19.021  52.449  48.578  1.00  0.00     0.003 A 
HETATM   37  C   UNL     1      20.115  51.587  48.727  1.00  0.00     0.030 A 
ENDBRANCH   5  31
TORSDOF 9
ENDMDL
MODEL 5
REMARK VINA RESULT:      -9.2      2.705      5.353
REMARK  9 active torsions:
REMARK  status: ('A' for Active; 'I' for Inactive)
REMARK    1  A    between atoms: C_2  and  O_3 
REMARK    2  A    between atoms: O_3  and  C_4 
REMARK    3  A    between atoms: C_4  and  C_5 
REMARK    4  A    between atoms: C_8  and  N_9 
REMARK       I    between atoms: N_9  and  C_10 
REMARK    5  A    between atoms: C_10  and  C_11 
REMARK    6  A    between atoms: C_11  and  C_12 
REMARK    7  A    between atoms: N_13  and  C_14 
REMARK    8  A    between atoms: C_14  and  C_15 
REMARK    9  A    between atoms: N_23  and  C_24 
ROOT
HETATM    1  C   UNL     1      25.289  44.739  49.318  1.00  0.00     0.191 C 
HETATM    2  N   UNL     1      25.614  45.757  50.299  1.00  0.00    -0.315 N 
HETATM    3  C   UNL     1      26.357  45.236  51.354  1.00  0.00     0.333 C 
HETATM    4  O   UNL     1      26.559  45.866  52.382  1.00  0.00    -0.246 OA
HETATM    5  N   UNL     1      26.740  43.950  51.032  1.00  0.00    -0.232 N 
HETATM    6  C   UNL     1      26.210  43.616  49.802  1.00  0.00     0.256 C 
HETATM    7  O   UNL     1      26.353  42.584  49.154  1.00  0.00    -0.270 OA
ENDROOT
BRANCH   1   8
HETATM    8  C   UNL     1      23.866  44.191  49.358  1.00  0.00     0.138 C 
BRANCH   8   9
HETATM    9  C   UNL     1      23.272  44.009  47.993  1.00  0.00     0.224 C 
HETATM   10  N   UNL     1      22.128  44.595  47.566  1.00  0.00    -0.327 N 
HETATM   11  H   UNL     1      21.887  44.211  46.657  1.00  0.00     0.169 HD
HETATM   12  O   UNL     1      23.828  43.239  47.198  1.00  0.00    -0.273 OA
BRANCH  10  13
HETATM   13  C   UNL     1      21.290  45.633  48.002  1.00  0.00     0.034 A 
HETATM   14  C   UNL     1      19.966  45.512  48.415  1.00  0.00     0.030 A 
HETATM   15  C   UNL     1      19.288  46.620  48.959  1.00  0.00     0.020 A 
HETATM   16  C   UNL     1      19.926  47.859  49.095  1.00  0.00     0.039 A 
HETATM   17  C   UNL     1      21.233  47.999  48.630  1.00  0.00     0.020 A 
HETATM   18  C   UNL     1      21.902  46.896  48.090  1.00  0.00     0.030 A 
BRANCH  16  19
HETATM   19  C   UNL     1      19.205  48.969  49.780  1.00  0.00     0.293 C 
HETATM   20  O   UNL     1      18.848  48.927  50.947  1.00  0.00    -0.259 OA
BRANCH  19  21
HETATM   21  O   UNL     1      19.088  50.032  48.943  1.00  0.00    -0.318 OA
BRANCH  21  22
HETATM   22  C   UNL     1      19.114  51.329  49.556  1.00  0.00     0.174 C 
HETATM   23  C   UNL     1      19.149  52.417  48.502  1.00  0.00     0.034 C 
ENDBRANCH  21  22
ENDBRANCH  19  21
ENDBRANCH  16  19
ENDBRANCH  10  13
ENDBRANCH   8   9
ENDBRANCH   1   8
BRANCH   2  24
HETATM   24  C   UNL     1      24.944  47.046  50.425  1.00  0.00     0.168 C 
BRANCH  24  25
HETATM   25  C   UNL     1      25.519  48.154  49.590  1.00  0.00    -0.023 A 
HETATM   26  C   UNL     1      26.883  48.419  49.553  1.00  0.00     0.125 A 
HETATM   27  N   UNL     1      27.442  49.425  48.843  1.00  0.00    -0.273 NA
HETATM   28  C   UNL     1      26.602  50.234  48.166  1.00  0.00     0.116 A 
HETATM   29  C   UNL     1      25.227  50.080  48.160  1.00  0.00     0.020 A 
HETATM   30  C   UNL     1      24.681  49.027  48.887  1.00  0.00     0.012 A 
ENDBRANCH  24  25
ENDBRANCH   2  24
BRANCH   5  31
HETATM   31  C   UNL     1      27.513  43.093  51.876  1.00  0.00     0.047 A 
HETATM   32  C   UNL     1      28.535  43.600  52.702  1.00  0.00     0.037 A 
HETATM   33  C   UNL     1      29.269  42.780  53.578  1.00  0.00    -0.060 A 
HETATM   34  C   UNL     1      30.363  43.356  54.429  1.00  0.00     0.048 C 
HETATM   35  C   UNL     1      28.998  41.413  53.616  1.00  0.00     0.007 A 
HETATM   36  C   UNL     1      28.004  40.882  52.801  1.00  0.00     0.003 A 
HETATM   37  C   UNL     1      27.273  41.712  51.941  1.00  0.00     0.030 A 
ENDBRANCH   5  31
TORSDOF 9
ENDMDL
MODEL 6
REMARK VINA RESULT:      -9.0      2.628      7.719
REMARK  9 active torsions:
REMARK  status: ('A' for Active; 'I' for Inactive)
REMARK    1  A    between atoms: C_2  and  O_3 
REMARK    2  A    between atoms: O_3  and  C_4 
REMARK    3  A    between atoms: C_4  and  C_5 
REMARK    4  A    between atoms: C_8  and  N_9 
REMARK       I    between atoms: N_9  and  C_10 
REMARK    5  A    between atoms: C_10  and  C_11 
REMARK    6  A    between atoms: C_11  and  C_12 
REMARK    7  A    between atoms: N_13  and  C_14 
REMARK    8  A    between atoms: C_14  and  C_15 
REMARK    9  A    between atoms: N_23  and  C_24 
ROOT
HETATM    1  C   UNL     1      26.796  44.112  51.646  1.00  0.00     0.191 C 
HETATM    2  N   UNL     1      26.483  45.365  52.307  1.00  0.00    -0.315 N 
HETATM    3  C   UNL     1      27.229  45.533  53.470  1.00  0.00     0.333 C 
HETATM    4  O   UNL     1      26.979  46.411  54.283  1.00  0.00    -0.246 OA
HETATM    5  N   UNL     1      28.196  44.550  53.520  1.00  0.00    -0.232 N 
HETATM    6  C   UNL     1      28.051  43.718  52.429  1.00  0.00     0.256 C 
HETATM    7  O   UNL     1      28.736  42.757  52.095  1.00  0.00    -0.270 OA
ENDROOT
BRANCH   1   8
HETATM    8  C   UNL     1      25.788  42.981  51.829  1.00  0.00     0.138 C 
BRANCH   8   9
HETATM    9  C   UNL     1      24.941  42.753  50.613  1.00  0.00     0.224 C 
HETATM   10  N   UNL     1      25.317  42.019  49.539  1.00  0.00    -0.327 N 
HETATM   11  H   UNL     1      24.616  42.126  48.812  1.00  0.00     0.169 HD
HETATM   12  O   UNL     1      23.831  43.299  50.548  1.00  0.00    -0.273 OA
BRANCH  10  13
HETATM   13  C   UNL     1      26.337  41.103  49.236  1.00  0.00     0.034 A 
HETATM   14  C   UNL     1      27.521  41.376  48.556  1.00  0.00     0.030 A 
HETATM   15  C   UNL     1      28.518  40.389  48.444  1.00  0.00     0.020 A 
HETATM   16  C   UNL     1      28.343  39.120  49.010  1.00  0.00     0.039 A 
HETATM   17  C   UNL     1      27.135  38.825  49.642  1.00  0.00     0.020 A 
HETATM   18  C   UNL     1      26.147  39.809  49.750  1.00  0.00     0.030 A 
BRANCH  16  19
HETATM   19  C   UNL     1      29.471  38.148  48.964  1.00  0.00     0.293 C 
HETATM   20  O   UNL     1      30.057  37.742  49.955  1.00  0.00    -0.259 OA
BRANCH  19  21
HETATM   21  O   UNL     1      29.680  37.740  47.686  1.00  0.00    -0.318 OA
BRANCH  21  22
HETATM   22  C   UNL     1      28.554  37.158  47.013  1.00  0.00     0.174 C 
HETATM   23  C   UNL     1      28.621  37.431  45.524  1.00  0.00     0.034 C 
ENDBRANCH  21  22
ENDBRANCH  19  21
ENDBRANCH  16  19
ENDBRANCH  10  13
ENDBRANCH   8   9
ENDBRANCH   1   8
BRANCH   2  24
HETATM   24  C   UNL     1      25.289  46.166  52.066  1.00  0.00     0.168 C 
BRANCH  24  25
HETATM   25  C   UNL     1      25.382  47.127  50.915  1.00  0.00    -0.023 A 
HETATM   26  C   UNL     1      26.577  47.740  50.559  1.00  0.00     0.125 A 
HETATM   27  N   UNL     1      26.702  48.636  49.554  1.00  0.00    -0.273 NA
HETATM   28  C   UNL     1      25.575  48.970  48.891  1.00  0.00     0.116 A 
HETATM   29  C   UNL     1      24.329  48.445  49.185  1.00  0.00     0.020 A 
HETATM   30  C   UNL     1      24.234  47.515  50.214  1.00  0.00     0.012 A 
ENDBRANCH  24  25
ENDBRANCH   2  24
BRANCH   5  31
HETATM   31  C   UNL     1      29.151  44.398  54.574  1.00  0.00     0.047 A 
HETATM   32  C   UNL     1      29.193  45.289  55.664  1.00  0.00     0.037 A 
HETATM   33  C   UNL     1      30.089  45.123  56.736  1.00  0.00    -0.060 A 
HETATM   34  C   UNL     1      30.114  46.106  57.871  1.00  0.00     0.048 C 
HETATM   35  C   UNL     1      30.987  44.058  56.712  1.00  0.00     0.007 A 
HETATM   36  C   UNL     1      30.978  43.170  55.640  1.00  0.00     0.003 A 
HETATM   37  C   UNL     1      30.073  43.340  54.585  1.00  0.00     0.030 A 
ENDBRANCH   5  31
TORSDOF 9
ENDMDL
MODEL 7
REMARK VINA RESULT:      -9.0      3.986      9.374
REMARK  9 active torsions:
REMARK  status: ('A' for Active; 'I' for Inactive)
REMARK    1  A    between atoms: C_2  and  O_3 
REMARK    2  A    between atoms: O_3  and  C_4 
REMARK    3  A    between atoms: C_4  and  C_5 
REMARK    4  A    between atoms: C_8  and  N_9 
REMARK       I    between atoms: N_9  and  C_10 
REMARK    5  A    between atoms: C_10  and  C_11 
REMARK    6  A    between atoms: C_11  and  C_12 
REMARK    7  A    between atoms: N_13  and  C_14 
REMARK    8  A    between atoms: C_14  and  C_15 
REMARK    9  A    between atoms: N_23  and  C_24 
ROOT
HETATM    1  C   UNL     1      20.161  47.042  48.099  1.00  0.00     0.191 C 
HETATM    2  N   UNL     1      19.865  48.195  48.928  1.00  0.00    -0.315 N 
HETATM    3  C   UNL     1      21.009  48.938  49.203  1.00  0.00     0.333 C 
HETATM    4  O   UNL     1      21.023  49.824  50.045  1.00  0.00    -0.246 OA
HETATM    5  N   UNL     1      22.042  48.464  48.421  1.00  0.00    -0.232 N 
HETATM    6  C   UNL     1      21.591  47.390  47.680  1.00  0.00     0.256 C 
HETATM    7  O   UNL     1      22.191  46.725  46.841  1.00  0.00    -0.270 OA
ENDROOT
BRANCH   1   8
HETATM    8  C   UNL     1      20.226  45.695  48.813  1.00  0.00     0.138 C 
BRANCH   8   9
HETATM    9  C   UNL     1      20.560  44.561  47.891  1.00  0.00     0.224 C 
HETATM   10  N   UNL     1      21.760  43.934  47.844  1.00  0.00    -0.327 N 
HETATM   11  H   UNL     1      21.760  43.292  47.057  1.00  0.00     0.169 HD
HETATM   12  O   UNL     1      19.707  44.181  47.077  1.00  0.00    -0.273 OA
BRANCH  10  13
HETATM   13  C   UNL     1      22.912  43.876  48.644  1.00  0.00     0.034 A 
HETATM   14  C   UNL     1      24.086  44.601  48.460  1.00  0.00     0.030 A 
HETATM   15  C   UNL     1      25.112  44.546  49.422  1.00  0.00     0.020 A 
HETATM   16  C   UNL     1      24.976  43.766  50.577  1.00  0.00     0.039 A 
HETATM   17  C   UNL     1      23.826  42.994  50.737  1.00  0.00     0.020 A 
HETATM   18  C   UNL     1      22.809  43.051  49.778  1.00  0.00     0.030 A 
BRANCH  16  19
HETATM   19  C   UNL     1      26.040  43.829  51.619  1.00  0.00     0.293 C 
HETATM   20  O   UNL     1      26.631  42.848  52.043  1.00  0.00    -0.259 OA
BRANCH  19  21
HETATM   21  O   UNL     1      26.291  45.121  51.947  1.00  0.00    -0.318 OA
BRANCH  21  22
HETATM   22  C   UNL     1      25.765  45.570  53.204  1.00  0.00     0.174 C 
HETATM   23  C   UNL     1      25.744  47.085  53.264  1.00  0.00     0.034 C 
ENDBRANCH  21  22
ENDBRANCH  19  21
ENDBRANCH  16  19
ENDBRANCH  10  13
ENDBRANCH   8   9
ENDBRANCH   1   8
BRANCH   2  24
HETATM   24  C   UNL     1      18.655  48.370  49.721  1.00  0.00     0.168 C 
BRANCH  24  25
HETATM   25  C   UNL     1      17.422  48.731  48.943  1.00  0.00    -0.023 A 
HETATM   26  C   UNL     1      16.524  47.770  48.493  1.00  0.00     0.125 A 
HETATM   27  N   UNL     1      15.420  48.045  47.762  1.00  0.00    -0.273 NA
HETATM   28  C   UNL     1      15.216  49.335  47.427  1.00  0.00     0.116 A 
HETATM   29  C   UNL     1      16.062  50.366  47.795  1.00  0.00     0.020 A 
HETATM   30  C   UNL     1      17.182  50.056  48.559  1.00  0.00     0.012 A 
ENDBRANCH  24  25
ENDBRANCH   2  24
BRANCH   5  31
HETATM   31  C   UNL     1      23.377  48.978  48.433  1.00  0.00     0.047 A 
HETATM   32  C   UNL     1      24.408  48.331  49.140  1.00  0.00     0.037 A 
HETATM   33  C   UNL     1      25.738  48.791  49.118  1.00  0.00    -0.060 A 
HETATM   34  C   UNL     1      26.805  48.082  49.900  1.00  0.00     0.048 C 
HETATM   35  C   UNL     1      26.046  49.943  48.396  1.00  0.00     0.007 A 
HETATM   36  C   UNL     1      25.044  50.612  47.700  1.00  0.00     0.003 A 
HETATM   37  C   UNL     1      23.727  50.135  47.721  1.00  0.00     0.030 A 
ENDBRANCH   5  31
TORSDOF 9
ENDMDL
MODEL 8
REMARK VINA RESULT:      -8.9      2.257      6.063
REMARK  9 active torsions:
REMARK  status: ('A' for Active; 'I' for Inactive)
REMARK    1  A    between atoms: C_2  and  O_3 
REMARK    2  A    between atoms: O_3  and  C_4 
REMARK    3  A    between atoms: C_4  and  C_5 
REMARK    4  A    between atoms: C_8  and  N_9 
REMARK       I    between atoms: N_9  and  C_10 
REMARK    5  A    between atoms: C_10  and  C_11 
REMARK    6  A    between atoms: C_11  and  C_12 
REMARK    7  A    between atoms: N_13  and  C_14 
REMARK    8  A    between atoms: C_14  and  C_15 
REMARK    9  A    between atoms: N_23  and  C_24 
ROOT
HETATM    1  C   UNL     1      27.101  44.507  51.892  1.00  0.00     0.191 C 
HETATM    2  N   UNL     1      27.425  43.354  52.712  1.00  0.00    -0.315 N 
HETATM    3  C   UNL     1      27.398  42.175  51.974  1.00  0.00     0.333 C 
HETATM    4  O   UNL     1      27.436  41.074  52.504  1.00  0.00    -0.246 OA
HETATM    5  N   UNL     1      27.281  42.493  50.637  1.00  0.00    -0.232 N 
HETATM    6  C   UNL     1      27.180  43.864  50.506  1.00  0.00     0.256 C 
HETATM    7  O   UNL     1      27.103  44.537  49.483  1.00  0.00    -0.270 OA
ENDROOT
BRANCH   1   8
HETATM    8  C   UNL     1      25.689  45.066  52.040  1.00  0.00     0.138 C 
BRANCH   8   9
HETATM    9  C   UNL     1      25.653  46.565  52.057  1.00  0.00     0.224 C 
HETATM   10  N   UNL     1      25.107  47.334  51.085  1.00  0.00    -0.327 N 
HETATM   11  H   UNL     1      25.324  48.306  51.281  1.00  0.00     0.169 HD
HETATM   12  O   UNL     1      26.194  47.164  52.997  1.00  0.00    -0.273 OA
BRANCH  10  13
HETATM   13  C   UNL     1      24.261  47.135  49.983  1.00  0.00     0.034 A 
HETATM   14  C   UNL     1      23.874  45.910  49.445  1.00  0.00     0.030 A 
HETATM   15  C   UNL     1      22.908  45.858  48.422  1.00  0.00     0.020 A 
HETATM   16  C   UNL     1      22.320  47.028  47.926  1.00  0.00     0.039 A 
HETATM   17  C   UNL     1      22.747  48.259  48.421  1.00  0.00     0.020 A 
HETATM   18  C   UNL     1      23.707  48.306  49.437  1.00  0.00     0.030 A 
BRANCH  16  19
HETATM   19  C   UNL     1      21.222  46.914  46.924  1.00  0.00     0.293 C 
HETATM   20  O   UNL     1      21.356  46.392  45.829  1.00  0.00    -0.259 OA
BRANCH  19  21
HETATM   21  O   UNL     1      20.066  47.397  47.447  1.00  0.00    -0.318 OA
BRANCH  21  22
HETATM   22  C   UNL     1      19.475  46.625  48.501  1.00  0.00     0.174 C 
HETATM   23  C   UNL     1      19.001  45.283  47.979  1.00  0.00     0.034 C 
ENDBRANCH  21  22
ENDBRANCH  19  21
ENDBRANCH  16  19
ENDBRANCH  10  13
ENDBRANCH   8   9
ENDBRANCH   1   8
BRANCH   2  24
HETATM   24  C   UNL     1      27.386  43.323  54.169  1.00  0.00     0.168 C 
BRANCH  24  25
HETATM   25  C   UNL     1      28.638  43.786  54.856  1.00  0.00    -0.023 A 
HETATM   26  C   UNL     1      28.762  45.067  55.380  1.00  0.00     0.125 A 
HETATM   27  N   UNL     1      29.880  45.539  55.978  1.00  0.00    -0.273 NA
HETATM   28  C   UNL     1      30.943  44.710  56.024  1.00  0.00     0.116 A 
HETATM   29  C   UNL     1      30.938  43.427  55.505  1.00  0.00     0.020 A 
HETATM   30  C   UNL     1      29.770  42.964  54.910  1.00  0.00     0.012 A 
ENDBRANCH  24  25
ENDBRANCH   2  24
BRANCH   5  31
HETATM   31  C   UNL     1      27.215  41.538  49.573  1.00  0.00     0.047 A 
HETATM   32  C   UNL     1      26.006  41.263  48.905  1.00  0.00     0.037 A 
HETATM   33  C   UNL     1      25.933  40.368  47.822  1.00  0.00    -0.060 A 
HETATM   34  C   UNL     1      24.621  40.089  47.148  1.00  0.00     0.048 C 
HETATM   35  C   UNL     1      27.088  39.707  47.408  1.00  0.00     0.007 A 
HETATM   36  C   UNL     1      28.294  39.948  48.060  1.00  0.00     0.003 A 
HETATM   37  C   UNL     1      28.354  40.851  49.129  1.00  0.00     0.030 A 
ENDBRANCH   5  31
TORSDOF 9
ENDMDL
MODEL 9
REMARK VINA RESULT:      -8.9     10.652     13.410
REMARK  9 active torsions:
REMARK  status: ('A' for Active; 'I' for Inactive)
REMARK    1  A    between atoms: C_2  and  O_3 
REMARK    2  A    between atoms: O_3  and  C_4 
REMARK    3  A    between atoms: C_4  and  C_5 
REMARK    4  A    between atoms: C_8  and  N_9 
REMARK       I    between atoms: N_9  and  C_10 
REMARK    5  A    between atoms: C_10  and  C_11 
REMARK    6  A    between atoms: C_11  and  C_12 
REMARK    7  A    between atoms: N_13  and  C_14 
REMARK    8  A    between atoms: C_14  and  C_15 
REMARK    9  A    between atoms: N_23  and  C_24 
ROOT
HETATM    1  C   UNL     1      27.237  47.287  38.892  1.00  0.00     0.191 C 
HETATM    2  N   UNL     1      28.675  47.098  38.882  1.00  0.00    -0.315 N 
HETATM    3  C   UNL     1      29.030  45.835  39.347  1.00  0.00     0.333 C 
HETATM    4  O   UNL     1      30.186  45.541  39.615  1.00  0.00    -0.246 OA
HETATM    5  N   UNL     1      27.887  45.072  39.471  1.00  0.00    -0.232 N 
HETATM    6  C   UNL     1      26.792  45.844  39.141  1.00  0.00     0.256 C 
HETATM    7  O   UNL     1      25.609  45.523  39.088  1.00  0.00    -0.270 OA
ENDROOT
BRANCH   1   8
HETATM    8  C   UNL     1      26.674  48.127  40.034  1.00  0.00     0.138 C 
BRANCH   8   9
HETATM    9  C   UNL     1      25.831  49.272  39.557  1.00  0.00     0.224 C 
HETATM   10  N   UNL     1      26.160  50.579  39.691  1.00  0.00    -0.327 N 
HETATM   11  H   UNL     1      25.369  51.144  39.397  1.00  0.00     0.169 HD
HETATM   12  O   UNL     1      24.733  49.030  39.038  1.00  0.00    -0.273 OA
BRANCH  10  13
HETATM   13  C   UNL     1      27.312  51.312  40.018  1.00  0.00     0.034 A 
HETATM   14  C   UNL     1      27.657  51.797  41.277  1.00  0.00     0.030 A 
HETATM   15  C   UNL     1      28.912  52.398  41.486  1.00  0.00     0.020 A 
HETATM   16  C   UNL     1      29.836  52.521  40.441  1.00  0.00     0.039 A 
HETATM   17  C   UNL     1      29.472  52.088  39.166  1.00  0.00     0.020 A 
HETATM   18  C   UNL     1      28.223  51.493  38.962  1.00  0.00     0.030 A 
BRANCH  16  19
HETATM   19  C   UNL     1      31.193  53.060  40.738  1.00  0.00     0.293 C 
HETATM   20  O   UNL     1      31.452  54.252  40.788  1.00  0.00    -0.259 OA
BRANCH  19  21
HETATM   21  O   UNL     1      32.046  52.041  41.015  1.00  0.00    -0.318 OA
BRANCH  21  22
HETATM   22  C   UNL     1      33.274  52.022  40.273  1.00  0.00     0.174 C 
HETATM   23  C   UNL     1      33.030  51.569  38.847  1.00  0.00     0.034 C 
ENDBRANCH  21  22
ENDBRANCH  19  21
ENDBRANCH  16  19
ENDBRANCH  10  13
ENDBRANCH   8   9
ENDBRANCH   1   8
BRANCH   2  24
HETATM   24  C   UNL     1      29.662  48.167  38.804  1.00  0.00     0.168 C 
BRANCH  24  25
HETATM   25  C   UNL     1      30.400  48.457  40.080  1.00  0.00    -0.023 A 
HETATM   26  C   UNL     1      31.782  48.343  40.176  1.00  0.00     0.125 A 
HETATM   27  N   UNL     1      32.485  48.561  41.311  1.00  0.00    -0.273 NA
HETATM   28  C   UNL     1      31.777  48.870  42.417  1.00  0.00     0.116 A 
HETATM   29  C   UNL     1      30.398  48.978  42.440  1.00  0.00     0.020 A 
HETATM   30  C   UNL     1      29.703  48.763  41.255  1.00  0.00     0.012 A 
ENDBRANCH  24  25
ENDBRANCH   2  24
BRANCH   5  31
HETATM   31  C   UNL     1      27.856  43.718  39.929  1.00  0.00     0.047 A 
HETATM   32  C   UNL     1      27.443  43.391  41.235  1.00  0.00     0.037 A 
HETATM   33  C   UNL     1      27.354  42.061  41.685  1.00  0.00    -0.060 A 
HETATM   34  C   UNL     1      26.925  41.756  43.091  1.00  0.00     0.048 C 
HETATM   35  C   UNL     1      27.711  41.027  40.821  1.00  0.00     0.007 A 
HETATM   36  C   UNL     1      28.137  41.321  39.529  1.00  0.00     0.003 A 
HETATM   37  C   UNL     1      28.210  42.649  39.091  1.00  0.00     0.030 A 
ENDBRANCH   5  31
TORSDOF 9
ENDMDL
MODEL 10
REMARK VINA RESULT:      -8.8      2.888      8.984
REMARK  9 active torsions:
REMARK  status: ('A' for Active; 'I' for Inactive)
REMARK    1  A    between atoms: C_2  and  O_3 
REMARK    2  A    between atoms: O_3  and  C_4 
REMARK    3  A    between atoms: C_4  and  C_5 
REMARK    4  A    between atoms: C_8  and  N_9 
REMARK       I    between atoms: N_9  and  C_10 
REMARK    5  A    between atoms: C_10  and  C_11 
REMARK    6  A    between atoms: C_11  and  C_12 
REMARK    7  A    between atoms: N_13  and  C_14 
REMARK    8  A    between atoms: C_14  and  C_15 
REMARK    9  A    between atoms: N_23  and  C_24 
ROOT
HETATM    1  C   UNL     1      23.198  45.237  48.908  1.00  0.00     0.191 C 
HETATM    2  N   UNL     1      24.261  46.019  49.511  1.00  0.00    -0.315 N 
HETATM    3  C   UNL     1      23.989  47.382  49.460  1.00  0.00     0.333 C 
HETATM    4  O   UNL     1      24.835  48.225  49.722  1.00  0.00    -0.246 OA
HETATM    5  N   UNL     1      22.686  47.558  49.041  1.00  0.00    -0.232 N 
HETATM    6  C   UNL     1      22.128  46.324  48.771  1.00  0.00     0.256 C 
HETATM    7  O   UNL     1      20.985  46.054  48.417  1.00  0.00    -0.270 OA
ENDROOT
BRANCH   1   8
HETATM    8  C   UNL     1      23.466  44.703  47.504  1.00  0.00     0.138 C 
BRANCH   8   9
HETATM    9  C   UNL     1      22.901  43.331  47.284  1.00  0.00     0.224 C 
HETATM   10  N   UNL     1      23.522  42.178  47.628  1.00  0.00    -0.327 N 
HETATM   11  H   UNL     1      22.985  41.398  47.261  1.00  0.00     0.169 HD
HETATM   12  O   UNL     1      21.810  43.220  46.709  1.00  0.00    -0.273 OA
BRANCH  10  13
HETATM   13  C   UNL     1      24.617  41.808  48.425  1.00  0.00     0.034 A 
HETATM   14  C   UNL     1      24.666  41.804  49.817  1.00  0.00     0.030 A 
HETATM   15  C   UNL     1      25.786  41.277  50.486  1.00  0.00     0.020 A 
HETATM   16  C   UNL     1      26.869  40.747  49.772  1.00  0.00     0.039 A 
HETATM   17  C   UNL     1      26.848  40.802  48.379  1.00  0.00     0.020 A 
HETATM   18  C   UNL     1      25.733  41.328  47.718  1.00  0.00     0.030 A 
BRANCH  16  19
HETATM   19  C   UNL     1      27.979  40.098  50.524  1.00  0.00     0.293 C 
HETATM   20  O   UNL     1      28.580  40.633  51.442  1.00  0.00    -0.259 OA
BRANCH  19  21
HETATM   21  O   UNL     1      28.152  38.824  50.087  1.00  0.00    -0.318 OA
BRANCH  21  22
HETATM   22  C   UNL     1      29.509  38.397  49.897  1.00  0.00     0.174 C 
HETATM   23  C   UNL     1      29.940  37.472  51.017  1.00  0.00     0.034 C 
ENDBRANCH  21  22
ENDBRANCH  19  21
ENDBRANCH  16  19
ENDBRANCH  10  13
ENDBRANCH   8   9
ENDBRANCH   1   8
BRANCH   2  24
HETATM   24  C   UNL     1      25.612  45.538  49.772  1.00  0.00     0.168 C 
BRANCH  24  25
HETATM   25  C   UNL     1      25.832  44.946  51.135  1.00  0.00    -0.023 A 
HETATM   26  C   UNL     1      24.830  44.915  52.098  1.00  0.00     0.125 A 
HETATM   27  N   UNL     1      24.992  44.423  53.347  1.00  0.00    -0.273 NA
HETATM   28  C   UNL     1      26.221  43.973  53.671  1.00  0.00     0.116 A 
HETATM   29  C   UNL     1      27.297  43.986  52.801  1.00  0.00     0.020 A 
HETATM   30  C   UNL     1      27.097  44.484  51.518  1.00  0.00     0.012 A 
ENDBRANCH  24  25
ENDBRANCH   2  24
BRANCH   5  31
HETATM   31  C   UNL     1      22.050  48.826  48.862  1.00  0.00     0.047 A 
HETATM   32  C   UNL     1      20.848  49.146  49.522  1.00  0.00     0.037 A 
HETATM   33  C   UNL     1      20.236  50.408  49.400  1.00  0.00    -0.060 A 
HETATM   34  C   UNL     1      18.945  50.703  50.107  1.00  0.00     0.048 C 
HETATM   35  C   UNL     1      20.822  51.369  48.579  1.00  0.00     0.007 A 
HETATM   36  C   UNL     1      22.002  51.076  47.902  1.00  0.00     0.003 A 
HETATM   37  C   UNL     1      22.605  49.820  48.042  1.00  0.00     0.030 A 
ENDBRANCH   5  31
TORSDOF 9
ENDMDL
