MODEL 1
REMARK VINA RESULT:      -9.2      0.000      0.000
REMARK  5 active torsions:
REMARK  status: ('A' for Active; 'I' for Inactive)
REMARK    1  A    between atoms: C_4  and  C_5 
REMARK       I    between atoms: C_5  and  N_6 
REMARK    2  A    between atoms: N_6  and  C_7 
REMARK    3  A    between atoms: C_10  and  C_11 
REMARK    4  A    between atoms: C_11  and  N_12 
REMARK       I    between atoms: N_12  and  C_13 
REMARK       I    between atoms: C_13  and  N_14 
REMARK    5  A    between atoms: N_14  and  C_15 
ROOT
HETATM    1  C   UNL     1      23.842  47.241  49.719  1.00  0.00     0.035 A 
HETATM    2  C   UNL     1      25.095  47.454  50.294  1.00  0.00     0.030 A 
HETATM    3  C   UNL     1      26.062  46.444  50.284  1.00  0.00     0.011 A 
HETATM    4  C   UNL     1      25.796  45.205  49.689  1.00  0.00    -0.040 A 
HETATM    5  C   UNL     1      24.518  44.968  49.172  1.00  0.00     0.011 A 
HETATM    6  C   UNL     1      23.551  45.979  49.189  1.00  0.00     0.030 A 
ENDROOT
BRANCH   4   7
HETATM    7  C   UNL     1      26.882  44.173  49.572  1.00  0.00     0.162 C 
BRANCH   7   8
HETATM    8  N   UNL     1      26.684  43.039  50.441  1.00  0.00    -0.339 N 
HETATM    9  C   UNL     1      27.284  42.778  51.643  1.00  0.00     0.321 C 
HETATM   10  N   UNL     1      28.195  43.717  52.050  1.00  0.00    -0.306 N 
HETATM   11  O   UNL     1      26.969  41.749  52.226  1.00  0.00    -0.247 OA
HETATM   12  H   UNL     1      28.488  44.366  51.341  1.00  0.00     0.171 HD
HETATM   13  H   UNL     1      26.003  42.338  50.178  1.00  0.00     0.164 HD
BRANCH  10  14
HETATM   14  C   UNL     1      28.891  43.818  53.276  1.00  0.00     0.075 A 
HETATM   15  C   UNL     1      28.645  44.744  54.299  1.00  0.00     0.144 A 
HETATM   16  F   UNL     1      27.709  45.693  54.196  1.00  0.00    -0.204 F 
HETATM   17  C   UNL     1      29.409  44.747  55.468  1.00  0.00     0.063 A 
HETATM   18  C   UNL     1      30.444  43.830  55.623  1.00  0.00     0.014 A 
HETATM   19 BR   UNL     1      31.485  43.839  57.199  1.00  0.00    -0.051 Br
HETATM   20  C   UNL     1      30.722  42.914  54.615  1.00  0.00     0.021 A 
HETATM   21  C   UNL     1      29.950  42.910  53.450  1.00  0.00     0.034 A 
ENDBRANCH  10  14
ENDBRANCH   7   8
ENDBRANCH   4   7
BRANCH   1  22
HETATM   22  N   UNL     1      22.855  48.237  49.595  1.00  0.00    -0.321 N 
HETATM   23  C   UNL     1      22.729  49.195  48.603  1.00  0.00     0.279 C 
HETATM   24  O   UNL     1      23.539  49.406  47.707  1.00  0.00    -0.265 OA
HETATM   25  H   UNL     1      22.081  48.205  50.250  1.00  0.00     0.169 HD
BRANCH  23  26
HETATM   26  C   UNL     1      21.483  49.937  48.700  1.00  0.00     0.142 A 
HETATM   27  O   UNL     1      20.317  49.270  48.982  1.00  0.00    -0.317 OA
HETATM   28  C   UNL     1      19.320  50.193  48.986  1.00  0.00     0.143 A 
HETATM   29  C   UNL     1      19.818  51.444  48.710  1.00  0.00     0.027 A 
HETATM   30  C   UNL     1      21.213  51.282  48.530  1.00  0.00     0.045 A 
ENDBRANCH  23  26
ENDBRANCH   1  22
TORSDOF 5
ENDMDL
MODEL 2
REMARK VINA RESULT:      -9.1      4.432     10.577
REMARK  5 active torsions:
REMARK  status: ('A' for Active; 'I' for Inactive)
REMARK    1  A    between atoms: C_4  and  C_5 
REMARK       I    between atoms: C_5  and  N_6 
REMARK    2  A    between atoms: N_6  and  C_7 
REMARK    3  A    between atoms: C_10  and  C_11 
REMARK    4  A    between atoms: C_11  and  N_12 
REMARK       I    between atoms: N_12  and  C_13 
REMARK       I    between atoms: C_13  and  N_14 
REMARK    5  A    between atoms: N_14  and  C_15 
ROOT
HETATM    1  C   UNL     1      27.050  45.116  53.854  1.00  0.00     0.035 A 
HETATM    2  C   UNL     1      26.417  44.182  53.034  1.00  0.00     0.030 A 
HETATM    3  C   UNL     1      25.520  44.597  52.045  1.00  0.00     0.011 A 
HETATM    4  C   UNL     1      25.249  45.957  51.850  1.00  0.00    -0.040 A 
HETATM    5  C   UNL     1      25.833  46.889  52.714  1.00  0.00     0.011 A 
HETATM    6  C   UNL     1      26.725  46.470  53.708  1.00  0.00     0.030 A 
ENDROOT
BRANCH   4   7
HETATM    7  C   UNL     1      24.384  46.400  50.704  1.00  0.00     0.162 C 
BRANCH   7   8
HETATM    8  N   UNL     1      24.862  47.601  50.063  1.00  0.00    -0.339 N 
HETATM    9  C   UNL     1      24.129  48.601  49.483  1.00  0.00     0.321 C 
HETATM   10  N   UNL     1      22.772  48.414  49.511  1.00  0.00    -0.306 N 
HETATM   11  O   UNL     1      24.738  49.542  48.991  1.00  0.00    -0.247 OA
HETATM   12  H   UNL     1      22.472  47.484  49.747  1.00  0.00     0.171 HD
HETATM   13  H   UNL     1      25.859  47.777  50.042  1.00  0.00     0.164 HD
BRANCH  10  14
HETATM   14  C   UNL     1      21.738  49.294  49.119  1.00  0.00     0.075 A 
HETATM   15  C   UNL     1      21.505  50.580  49.622  1.00  0.00     0.144 A 
HETATM   16  F   UNL     1      22.249  51.115  50.596  1.00  0.00    -0.204 F 
HETATM   17  C   UNL     1      20.440  51.356  49.156  1.00  0.00     0.063 A 
HETATM   18  C   UNL     1      19.582  50.845  48.188  1.00  0.00     0.014 A 
HETATM   19 BR   UNL     1      18.136  51.886  47.563  1.00  0.00    -0.051 Br
HETATM   20  C   UNL     1      19.779  49.563  47.686  1.00  0.00     0.021 A 
HETATM   21  C   UNL     1      20.850  48.794  48.151  1.00  0.00     0.034 A 
ENDBRANCH  10  14
ENDBRANCH   7   8
ENDBRANCH   4   7
BRANCH   1  22
HETATM   22  N   UNL     1      28.040  44.790  54.799  1.00  0.00    -0.321 N 
HETATM   23  C   UNL     1      29.244  44.138  54.584  1.00  0.00     0.279 C 
HETATM   24  O   UNL     1      29.603  43.633  53.527  1.00  0.00    -0.265 OA
HETATM   25  H   UNL     1      27.918  45.149  55.740  1.00  0.00     0.169 HD
BRANCH  23  26
HETATM   26  C   UNL     1      30.095  44.138  55.762  1.00  0.00     0.142 A 
HETATM   27  O   UNL     1      29.967  45.141  56.691  1.00  0.00    -0.317 OA
HETATM   28  C   UNL     1      30.892  44.908  57.659  1.00  0.00     0.143 A 
HETATM   29  C   UNL     1      31.616  43.776  57.374  1.00  0.00     0.027 A 
HETATM   30  C   UNL     1      31.101  43.275  56.154  1.00  0.00     0.045 A 
ENDBRANCH  23  26
ENDBRANCH   1  22
TORSDOF 5
ENDMDL
MODEL 3
REMARK VINA RESULT:      -8.9      4.350     10.424
REMARK  5 active torsions:
REMARK  status: ('A' for Active; 'I' for Inactive)
REMARK    1  A    between atoms: C_4  and  C_5 
REMARK       I    between atoms: C_5  and  N_6 
REMARK    2  A    between atoms: N_6  and  C_7 
REMARK    3  A    between atoms: C_10  and  C_11 
REMARK    4  A    between atoms: C_11  and  N_12 
REMARK       I    between atoms: N_12  and  C_13 
REMARK       I    between atoms: C_13  and  N_14 
REMARK    5  A    between atoms: N_14  and  C_15 
ROOT
HETATM    1  C   UNL     1      26.434  45.382  52.900  1.00  0.00     0.035 A 
HETATM    2  C   UNL     1      25.542  44.456  52.361  1.00  0.00     0.030 A 
HETATM    3  C   UNL     1      24.644  44.835  51.358  1.00  0.00     0.011 A 
HETATM    4  C   UNL     1      24.630  46.148  50.870  1.00  0.00    -0.040 A 
HETATM    5  C   UNL     1      25.478  47.092  51.457  1.00  0.00     0.011 A 
HETATM    6  C   UNL     1      26.372  46.710  52.464  1.00  0.00     0.030 A 
ENDROOT
BRANCH   4   7
HETATM    7  C   UNL     1      23.751  46.514  49.708  1.00  0.00     0.162 C 
BRANCH   7   8
HETATM    8  N   UNL     1      23.999  47.843  49.204  1.00  0.00    -0.339 N 
HETATM    9  C   UNL     1      23.107  48.868  49.044  1.00  0.00     0.321 C 
HETATM   10  N   UNL     1      21.817  48.573  49.398  1.00  0.00    -0.306 N 
HETATM   11  O   UNL     1      23.531  49.926  48.597  1.00  0.00    -0.247 OA
HETATM   12  H   UNL     1      21.620  47.595  49.523  1.00  0.00     0.171 HD
HETATM   13  H   UNL     1      24.946  48.098  48.952  1.00  0.00     0.164 HD
BRANCH  10  14
HETATM   14  C   UNL     1      20.691  49.424  49.473  1.00  0.00     0.075 A 
HETATM   15  C   UNL     1      20.635  50.676  50.100  1.00  0.00     0.144 A 
HETATM   16  F   UNL     1      21.679  51.199  50.752  1.00  0.00    -0.204 F 
HETATM   17  C   UNL     1      19.455  51.425  50.111  1.00  0.00     0.063 A 
HETATM   18  C   UNL     1      18.309  50.921  49.507  1.00  0.00     0.014 A 
HETATM   19 BR   UNL     1      16.710  51.926  49.530  1.00  0.00    -0.051 Br
HETATM   20  C   UNL     1      18.331  49.672  48.896  1.00  0.00     0.021 A 
HETATM   21  C   UNL     1      19.516  48.930  48.881  1.00  0.00     0.034 A 
ENDBRANCH  10  14
ENDBRANCH   7   8
ENDBRANCH   4   7
BRANCH   1  22
HETATM   22  N   UNL     1      27.437  45.056  53.833  1.00  0.00    -0.321 N 
HETATM   23  C   UNL     1      28.511  44.197  53.668  1.00  0.00     0.279 C 
HETATM   24  O   UNL     1      28.707  43.479  52.693  1.00  0.00    -0.265 OA
HETATM   25  H   UNL     1      27.444  45.575  54.705  1.00  0.00     0.169 HD
BRANCH  23  26
HETATM   26  C   UNL     1      29.442  44.248  54.782  1.00  0.00     0.142 A 
HETATM   27  O   UNL     1      29.373  45.287  55.676  1.00  0.00    -0.317 OA
HETATM   28  C   UNL     1      30.364  45.098  56.586  1.00  0.00     0.143 A 
HETATM   29  C   UNL     1      31.075  43.959  56.296  1.00  0.00     0.027 A 
HETATM   30  C   UNL     1      30.479  43.407  55.137  1.00  0.00     0.045 A 
ENDBRANCH  23  26
ENDBRANCH   1  22
TORSDOF 5
ENDMDL
MODEL 4
REMARK VINA RESULT:      -8.9      1.637      2.083
REMARK  5 active torsions:
REMARK  status: ('A' for Active; 'I' for Inactive)
REMARK    1  A    between atoms: C_4  and  C_5 
REMARK       I    between atoms: C_5  and  N_6 
REMARK    2  A    between atoms: N_6  and  C_7 
REMARK    3  A    between atoms: C_10  and  C_11 
REMARK    4  A    between atoms: C_11  and  N_12 
REMARK       I    between atoms: N_12  and  C_13 
REMARK       I    between atoms: C_13  and  N_14 
REMARK    5  A    between atoms: N_14  and  C_15 
ROOT
HETATM    1  C   UNL     1      22.680  48.004  49.015  1.00  0.00     0.035 A 
HETATM    2  C   UNL     1      22.534  46.658  48.679  1.00  0.00     0.030 A 
HETATM    3  C   UNL     1      23.440  45.705  49.155  1.00  0.00     0.011 A 
HETATM    4  C   UNL     1      24.502  46.080  49.986  1.00  0.00    -0.040 A 
HETATM    5  C   UNL     1      24.688  47.438  50.269  1.00  0.00     0.011 A 
HETATM    6  C   UNL     1      23.783  48.390  49.785  1.00  0.00     0.030 A 
ENDROOT
BRANCH   4   7
HETATM    7  C   UNL     1      25.394  45.035  50.594  1.00  0.00     0.162 C 
BRANCH   7   8
HETATM    8  N   UNL     1      24.937  44.580  51.885  1.00  0.00    -0.339 N 
HETATM    9  C   UNL     1      25.685  44.281  52.992  1.00  0.00     0.321 C 
HETATM   10  N   UNL     1      27.038  44.425  52.831  1.00  0.00    -0.306 N 
HETATM   11  O   UNL     1      25.092  43.910  53.996  1.00  0.00    -0.247 OA
HETATM   12  H   UNL     1      27.349  44.515  51.879  1.00  0.00     0.171 HD
HETATM   13  H   UNL     1      23.942  44.482  52.041  1.00  0.00     0.164 HD
BRANCH  10  14
HETATM   14  C   UNL     1      28.071  44.321  53.790  1.00  0.00     0.075 A 
HETATM   15  C   UNL     1      28.477  45.319  54.686  1.00  0.00     0.144 A 
HETATM   16  F   UNL     1      27.928  46.538  54.698  1.00  0.00    -0.204 F 
HETATM   17  C   UNL     1      29.520  45.097  55.589  1.00  0.00     0.063 A 
HETATM   18  C   UNL     1      30.183  43.874  55.595  1.00  0.00     0.014 A 
HETATM   19 BR   UNL     1      31.600  43.575  56.807  1.00  0.00    -0.051 Br
HETATM   20  C   UNL     1      29.813  42.874  54.703  1.00  0.00     0.021 A 
HETATM   21  C   UNL     1      28.764  43.099  53.807  1.00  0.00     0.034 A 
ENDBRANCH  10  14
ENDBRANCH   7   8
ENDBRANCH   4   7
BRANCH   1  22
HETATM   22  N   UNL     1      21.756  49.006  48.664  1.00  0.00    -0.321 N 
HETATM   23  C   UNL     1      20.400  49.053  48.943  1.00  0.00     0.279 C 
HETATM   24  O   UNL     1      19.746  48.154  49.461  1.00  0.00    -0.265 OA
HETATM   25  H   UNL     1      22.127  49.848  48.238  1.00  0.00     0.169 HD
BRANCH  23  26
HETATM   26  C   UNL     1      19.801  50.327  48.585  1.00  0.00     0.142 A 
HETATM   27  O   UNL     1      18.492  50.370  48.175  1.00  0.00    -0.317 OA
HETATM   28  C   UNL     1      18.208  51.666  47.883  1.00  0.00     0.143 A 
HETATM   29  C   UNL     1      19.308  52.462  48.093  1.00  0.00     0.027 A 
HETATM   30  C   UNL     1      20.334  51.602  48.550  1.00  0.00     0.045 A 
ENDBRANCH  23  26
ENDBRANCH   1  22
TORSDOF 5
ENDMDL
MODEL 5
REMARK VINA RESULT:      -8.3      4.425     10.346
REMARK  5 active torsions:
REMARK  status: ('A' for Active; 'I' for Inactive)
REMARK    1  A    between atoms: C_4  and  C_5 
REMARK       I    between atoms: C_5  and  N_6 
REMARK    2  A    between atoms: N_6  and  C_7 
REMARK    3  A    between atoms: C_10  and  C_11 
REMARK    4  A    between atoms: C_11  and  N_12 
REMARK       I    between atoms: N_12  and  C_13 
REMARK       I    between atoms: C_13  and  N_14 
REMARK    5  A    between atoms: N_14  and  C_15 
ROOT
HETATM    1  C   UNL     1      26.580  45.216  52.070  1.00  0.00     0.035 A 
HETATM    2  C   UNL     1      26.107  46.494  51.774  1.00  0.00     0.030 A 
HETATM    3  C   UNL     1      25.006  46.666  50.930  1.00  0.00     0.011 A 
HETATM    4  C   UNL     1      24.350  45.561  50.374  1.00  0.00    -0.040 A 
HETATM    5  C   UNL     1      24.864  44.283  50.617  1.00  0.00     0.011 A 
HETATM    6  C   UNL     1      25.970  44.114  51.458  1.00  0.00     0.030 A 
ENDROOT
BRANCH   4   7
HETATM    7  C   UNL     1      23.094  45.750  49.572  1.00  0.00     0.162 C 
BRANCH   7   8
HETATM    8  N   UNL     1      23.200  46.801  48.589  1.00  0.00    -0.339 N 
HETATM    9  C   UNL     1      22.361  47.864  48.392  1.00  0.00     0.321 C 
HETATM   10  N   UNL     1      21.282  47.913  49.234  1.00  0.00    -0.306 N 
HETATM   11  O   UNL     1      22.638  48.648  47.494  1.00  0.00    -0.247 OA
HETATM   12  H   UNL     1      21.099  47.068  49.747  1.00  0.00     0.171 HD
HETATM   13  H   UNL     1      23.997  46.803  47.965  1.00  0.00     0.164 HD
BRANCH  10  14
HETATM   14  C   UNL     1      20.305  48.924  49.381  1.00  0.00     0.075 A 
HETATM   15  C   UNL     1      18.922  48.735  49.495  1.00  0.00     0.144 A 
HETATM   16  F   UNL     1      18.357  47.524  49.433  1.00  0.00    -0.204 F 
HETATM   17  C   UNL     1      18.054  49.821  49.631  1.00  0.00     0.063 A 
HETATM   18  C   UNL     1      18.560  51.116  49.641  1.00  0.00     0.014 A 
HETATM   19 BR   UNL     1      17.388  52.587  49.815  1.00  0.00    -0.051 Br
HETATM   20  C   UNL     1      19.927  51.334  49.510  1.00  0.00     0.021 A 
HETATM   21  C   UNL     1      20.792  50.243  49.380  1.00  0.00     0.034 A 
ENDBRANCH  10  14
ENDBRANCH   7   8
ENDBRANCH   4   7
BRANCH   1  22
HETATM   22  N   UNL     1      27.613  44.952  52.989  1.00  0.00    -0.321 N 
HETATM   23  C   UNL     1      27.508  44.402  54.256  1.00  0.00     0.279 C 
HETATM   24  O   UNL     1      26.460  44.146  54.839  1.00  0.00    -0.265 OA
HETATM   25  H   UNL     1      28.565  45.089  52.667  1.00  0.00     0.169 HD
BRANCH  23  26
HETATM   26  C   UNL     1      28.804  44.108  54.844  1.00  0.00     0.142 A 
HETATM   27  O   UNL     1      29.383  45.015  55.698  1.00  0.00    -0.317 OA
HETATM   28  C   UNL     1      30.584  44.501  56.070  1.00  0.00     0.143 A 
HETATM   29  C   UNL     1      30.795  43.282  55.473  1.00  0.00     0.027 A 
HETATM   30  C   UNL     1      29.647  43.025  54.687  1.00  0.00     0.045 A 
ENDBRANCH  23  26
ENDBRANCH   1  22
TORSDOF 5
ENDMDL
MODEL 6
REMARK VINA RESULT:      -8.1      4.725     10.582
REMARK  5 active torsions:
REMARK  status: ('A' for Active; 'I' for Inactive)
REMARK    1  A    between atoms: C_4  and  C_5 
REMARK       I    between atoms: C_5  and  N_6 
REMARK    2  A    between atoms: N_6  and  C_7 
REMARK    3  A    between atoms: C_10  and  C_11 
REMARK    4  A    between atoms: C_11  and  N_12 
REMARK       I    between atoms: N_12  and  C_13 
REMARK       I    between atoms: C_13  and  N_14 
REMARK    5  A    between atoms: N_14  and  C_15 
ROOT
HETATM    1  C   UNL     1      27.608  44.748  53.654  1.00  0.00     0.035 A 
HETATM    2  C   UNL     1      27.662  44.231  52.360  1.00  0.00     0.030 A 
HETATM    3  C   UNL     1      26.650  44.517  51.439  1.00  0.00     0.011 A 
HETATM    4  C   UNL     1      25.570  45.335  51.793  1.00  0.00    -0.040 A 
HETATM    5  C   UNL     1      25.482  45.799  53.110  1.00  0.00     0.011 A 
HETATM    6  C   UNL     1      26.494  45.506  54.031  1.00  0.00     0.030 A 
ENDROOT
BRANCH   4   7
HETATM    7  C   UNL     1      24.555  45.739  50.761  1.00  0.00     0.162 C 
BRANCH   7   8
HETATM    8  N   UNL     1      24.629  47.136  50.408  1.00  0.00    -0.339 N 
HETATM    9  C   UNL     1      23.743  47.870  49.667  1.00  0.00     0.321 C 
HETATM   10  N   UNL     1      22.664  47.171  49.197  1.00  0.00    -0.306 N 
HETATM   11  O   UNL     1      23.997  49.054  49.485  1.00  0.00    -0.247 OA
HETATM   12  H   UNL     1      22.744  46.170  49.252  1.00  0.00     0.171 HD
HETATM   13  H   UNL     1      25.405  47.685  50.756  1.00  0.00     0.164 HD
BRANCH  10  14
HETATM   14  C   UNL     1      21.518  47.642  48.516  1.00  0.00     0.075 A 
HETATM   15  C   UNL     1      21.091  47.254  47.239  1.00  0.00     0.144 A 
HETATM   16  F   UNL     1      21.777  46.388  46.486  1.00  0.00    -0.204 F 
HETATM   17  C   UNL     1      19.938  47.798  46.668  1.00  0.00     0.063 A 
HETATM   18  C   UNL     1      19.203  48.752  47.364  1.00  0.00     0.014 A 
HETATM   19 BR   UNL     1      17.650  49.497  46.590  1.00  0.00    -0.051 Br
HETATM   20  C   UNL     1      19.616  49.170  48.624  1.00  0.00     0.021 A 
HETATM   21  C   UNL     1      20.767  48.617  49.194  1.00  0.00     0.034 A 
ENDBRANCH  10  14
ENDBRANCH   7   8
ENDBRANCH   4   7
BRANCH   1  22
HETATM   22  N   UNL     1      28.635  44.595  54.605  1.00  0.00    -0.321 N 
HETATM   23  C   UNL     1      29.286  45.583  55.326  1.00  0.00     0.279 C 
HETATM   24  O   UNL     1      29.143  46.790  55.171  1.00  0.00    -0.265 OA
HETATM   25  H   UNL     1      28.876  43.648  54.877  1.00  0.00     0.169 HD
BRANCH  23  26
HETATM   26  C   UNL     1      30.162  45.039  56.350  1.00  0.00     0.142 A 
HETATM   27  O   UNL     1      30.872  43.891  56.095  1.00  0.00    -0.317 OA
HETATM   28  C   UNL     1      31.577  43.601  57.220  1.00  0.00     0.143 A 
HETATM   29  C   UNL     1      31.335  44.536  58.197  1.00  0.00     0.027 A 
HETATM   30  C   UNL     1      30.428  45.466  57.637  1.00  0.00     0.045 A 
ENDBRANCH  23  26
ENDBRANCH   1  22
TORSDOF 5
ENDMDL
MODEL 7
REMARK VINA RESULT:      -8.1      3.996      6.991
REMARK  5 active torsions:
REMARK  status: ('A' for Active; 'I' for Inactive)
REMARK    1  A    between atoms: C_4  and  C_5 
REMARK       I    between atoms: C_5  and  N_6 
REMARK    2  A    between atoms: N_6  and  C_7 
REMARK    3  A    between atoms: C_10  and  C_11 
REMARK    4  A    between atoms: C_11  and  N_12 
REMARK       I    between atoms: N_12  and  C_13 
REMARK       I    between atoms: C_13  and  N_14 
REMARK    5  A    between atoms: N_14  and  C_15 
ROOT
HETATM    1  C   UNL     1      18.463  51.896  49.515  1.00  0.00     0.035 A 
HETATM    2  C   UNL     1      19.545  52.130  48.667  1.00  0.00     0.030 A 
HETATM    3  C   UNL     1      20.539  51.161  48.499  1.00  0.00     0.011 A 
HETATM    4  C   UNL     1      20.463  49.935  49.170  1.00  0.00    -0.040 A 
HETATM    5  C   UNL     1      19.414  49.726  50.072  1.00  0.00     0.011 A 
HETATM    6  C   UNL     1      18.424  50.701  50.242  1.00  0.00     0.030 A 
ENDROOT
BRANCH   4   7
HETATM    7  C   UNL     1      21.466  48.853  48.888  1.00  0.00     0.162 C 
BRANCH   7   8
HETATM    8  N   UNL     1      22.825  49.337  48.838  1.00  0.00    -0.339 N 
HETATM    9  C   UNL     1      23.955  48.740  49.326  1.00  0.00     0.321 C 
HETATM   10  N   UNL     1      23.751  47.538  49.950  1.00  0.00    -0.306 N 
HETATM   11  O   UNL     1      25.019  49.327  49.175  1.00  0.00    -0.247 OA
HETATM   12  H   UNL     1      22.794  47.331  50.178  1.00  0.00     0.171 HD
HETATM   13  H   UNL     1      23.011  50.213  48.366  1.00  0.00     0.164 HD
BRANCH  10  14
HETATM   14  C   UNL     1      24.698  46.614  50.448  1.00  0.00     0.075 A 
HETATM   15  C   UNL     1      25.090  45.415  49.840  1.00  0.00     0.144 A 
HETATM   16  F   UNL     1      24.554  44.985  48.692  1.00  0.00    -0.204 F 
HETATM   17  C   UNL     1      26.036  44.579  50.437  1.00  0.00     0.063 A 
HETATM   18  C   UNL     1      26.593  44.926  51.663  1.00  0.00     0.014 A 
HETATM   19 BR   UNL     1      27.866  43.793  52.477  1.00  0.00    -0.051 Br
HETATM   20  C   UNL     1      26.208  46.101  52.298  1.00  0.00     0.021 A 
HETATM   21  C   UNL     1      25.265  46.938  51.693  1.00  0.00     0.034 A 
ENDBRANCH  10  14
ENDBRANCH   7   8
ENDBRANCH   4   7
BRANCH   1  22
HETATM   22  N   UNL     1      17.371  52.773  49.658  1.00  0.00    -0.321 N 
HETATM   23  C   UNL     1      16.035  52.524  49.391  1.00  0.00     0.279 C 
HETATM   24  O   UNL     1      15.589  51.506  48.873  1.00  0.00    -0.265 OA
HETATM   25  H   UNL     1      17.553  53.670  50.095  1.00  0.00     0.169 HD
BRANCH  23  26
HETATM   26  C   UNL     1      15.168  53.604  49.830  1.00  0.00     0.142 A 
HETATM   27  O   UNL     1      13.809  53.413  49.860  1.00  0.00    -0.317 OA
HETATM   28  C   UNL     1      13.252  54.580  50.278  1.00  0.00     0.143 A 
HETATM   29  C   UNL     1      14.223  55.522  50.516  1.00  0.00     0.027 A 
HETATM   30  C   UNL     1      15.459  54.893  50.232  1.00  0.00     0.045 A 
ENDBRANCH  23  26
ENDBRANCH   1  22
TORSDOF 5
ENDMDL
MODEL 8
REMARK VINA RESULT:      -8.0      7.805     13.988
REMARK  5 active torsions:
REMARK  status: ('A' for Active; 'I' for Inactive)
REMARK    1  A    between atoms: C_4  and  C_5 
REMARK       I    between atoms: C_5  and  N_6 
REMARK    2  A    between atoms: N_6  and  C_7 
REMARK    3  A    between atoms: C_10  and  C_11 
REMARK    4  A    between atoms: C_11  and  N_12 
REMARK       I    between atoms: N_12  and  C_13 
REMARK       I    between atoms: C_13  and  N_14 
REMARK    5  A    between atoms: N_14  and  C_15 
ROOT
HETATM    1  C   UNL     1      21.024  50.004  49.415  1.00  0.00     0.035 A 
HETATM    2  C   UNL     1      21.147  51.117  48.584  1.00  0.00     0.030 A 
HETATM    3  C   UNL     1      20.076  52.001  48.417  1.00  0.00     0.011 A 
HETATM    4  C   UNL     1      18.865  51.792  49.088  1.00  0.00    -0.040 A 
HETATM    5  C   UNL     1      18.719  50.640  49.869  1.00  0.00     0.011 A 
HETATM    6  C   UNL     1      19.791  49.755  50.029  1.00  0.00     0.030 A 
ENDROOT
BRANCH   4   7
HETATM    7  C   UNL     1      17.765  52.812  49.002  1.00  0.00     0.162 C 
BRANCH   7   8
HETATM    8  N   UNL     1      16.631  52.497  49.836  1.00  0.00    -0.339 N 
HETATM    9  C   UNL     1      15.611  53.322  50.226  1.00  0.00     0.321 C 
HETATM   10  N   UNL     1      15.703  54.610  49.770  1.00  0.00    -0.306 N 
HETATM   11  O   UNL     1      14.738  52.848  50.941  1.00  0.00    -0.247 OA
HETATM   12  H   UNL     1      16.599  54.869  49.394  1.00  0.00     0.171 HD
HETATM   13  H   UNL     1      16.525  51.548  50.173  1.00  0.00     0.164 HD
BRANCH  10  14
HETATM   14  C   UNL     1      14.773  55.669  49.881  1.00  0.00     0.075 A 
HETATM   15  C   UNL     1      13.456  55.673  49.402  1.00  0.00     0.144 A 
HETATM   16  F   UNL     1      12.936  54.643  48.727  1.00  0.00    -0.204 F 
HETATM   17  C   UNL     1      12.632  56.789  49.570  1.00  0.00     0.063 A 
HETATM   18  C   UNL     1      13.122  57.923  50.207  1.00  0.00     0.014 A 
HETATM   19 BR   UNL     1      12.013  59.437  50.426  1.00  0.00    -0.051 Br
HETATM   20  C   UNL     1      14.431  57.953  50.674  1.00  0.00     0.021 A 
HETATM   21  C   UNL     1      15.250  56.832  50.510  1.00  0.00     0.034 A 
ENDBRANCH  10  14
ENDBRANCH   7   8
ENDBRANCH   4   7
BRANCH   1  22
HETATM   22  N   UNL     1      22.084  49.128  49.718  1.00  0.00    -0.321 N 
HETATM   23  C   UNL     1      22.791  48.311  48.851  1.00  0.00     0.279 C 
HETATM   24  O   UNL     1      22.531  48.134  47.666  1.00  0.00    -0.265 OA
HETATM   25  H   UNL     1      22.449  49.154  50.664  1.00  0.00     0.169 HD
BRANCH  23  26
HETATM   26  C   UNL     1      23.936  47.683  49.487  1.00  0.00     0.142 A 
HETATM   27  O   UNL     1      25.024  48.448  49.831  1.00  0.00    -0.317 OA
HETATM   28  C   UNL     1      25.944  47.609  50.375  1.00  0.00     0.143 A 
HETATM   29  C   UNL     1      25.475  46.318  50.387  1.00  0.00     0.027 A 
HETATM   30  C   UNL     1      24.179  46.365  49.819  1.00  0.00     0.045 A 
ENDBRANCH  23  26
ENDBRANCH   1  22
TORSDOF 5
ENDMDL
MODEL 9
REMARK VINA RESULT:      -8.0      4.123      9.858
REMARK  5 active torsions:
REMARK  status: ('A' for Active; 'I' for Inactive)
REMARK    1  A    between atoms: C_4  and  C_5 
REMARK       I    between atoms: C_5  and  N_6 
REMARK    2  A    between atoms: N_6  and  C_7 
REMARK    3  A    between atoms: C_10  and  C_11 
REMARK    4  A    between atoms: C_11  and  N_12 
REMARK       I    between atoms: N_12  and  C_13 
REMARK       I    between atoms: C_13  and  N_14 
REMARK    5  A    between atoms: N_14  and  C_15 
ROOT
HETATM    1  C   UNL     1      26.415  44.559  52.324  1.00  0.00     0.035 A 
HETATM    2  C   UNL     1      25.699  45.685  51.918  1.00  0.00     0.030 A 
HETATM    3  C   UNL     1      24.584  45.556  51.085  1.00  0.00     0.011 A 
HETATM    4  C   UNL     1      24.158  44.295  50.651  1.00  0.00    -0.040 A 
HETATM    5  C   UNL     1      24.914  43.172  51.003  1.00  0.00     0.011 A 
HETATM    6  C   UNL     1      26.033  43.306  51.832  1.00  0.00     0.030 A 
ENDROOT
BRANCH   4   7
HETATM    7  C   UNL     1      22.888  44.155  49.861  1.00  0.00     0.162 C 
BRANCH   7   8
HETATM    8  N   UNL     1      22.981  44.710  48.532  1.00  0.00    -0.339 N 
HETATM    9  C   UNL     1      22.502  45.909  48.079  1.00  0.00     0.321 C 
HETATM   10  N   UNL     1      21.840  46.658  49.015  1.00  0.00    -0.306 N 
HETATM   11  O   UNL     1      22.692  46.190  46.903  1.00  0.00    -0.247 OA
HETATM   12  H   UNL     1      21.585  46.167  49.855  1.00  0.00     0.171 HD
HETATM   13  H   UNL     1      23.480  44.189  47.822  1.00  0.00     0.164 HD
BRANCH  10  14
HETATM   14  C   UNL     1      21.337  47.975  48.917  1.00  0.00     0.075 A 
HETATM   15  C   UNL     1      22.021  49.153  49.246  1.00  0.00     0.144 A 
HETATM   16  F   UNL     1      23.262  49.147  49.744  1.00  0.00    -0.204 F 
HETATM   17  C   UNL     1      21.411  50.403  49.110  1.00  0.00     0.063 A 
HETATM   18  C   UNL     1      20.099  50.489  48.657  1.00  0.00     0.014 A 
HETATM   19 BR   UNL     1      19.269  52.176  48.482  1.00  0.00    -0.051 Br
HETATM   20  C   UNL     1      19.391  49.335  48.343  1.00  0.00     0.021 A 
HETATM   21  C   UNL     1      20.008  48.087  48.474  1.00  0.00     0.034 A 
ENDBRANCH  10  14
ENDBRANCH   7   8
ENDBRANCH   4   7
BRANCH   1  22
HETATM   22  N   UNL     1      27.481  44.594  53.243  1.00  0.00    -0.321 N 
HETATM   23  C   UNL     1      27.733  43.724  54.291  1.00  0.00     0.279 C 
HETATM   24  O   UNL     1      26.992  42.822  54.665  1.00  0.00    -0.265 OA
HETATM   25  H   UNL     1      28.213  45.275  53.076  1.00  0.00     0.169 HD
BRANCH  23  26
HETATM   26  C   UNL     1      29.025  43.962  54.914  1.00  0.00     0.142 A 
HETATM   27  O   UNL     1      29.276  45.172  55.512  1.00  0.00    -0.317 OA
HETATM   28  C   UNL     1      30.551  45.128  55.980  1.00  0.00     0.143 A 
HETATM   29  C   UNL     1      31.130  43.915  55.694  1.00  0.00     0.027 A 
HETATM   30  C   UNL     1      30.146  43.160  55.011  1.00  0.00     0.045 A 
ENDBRANCH  23  26
ENDBRANCH   1  22
TORSDOF 5
ENDMDL
MODEL 10
REMARK VINA RESULT:      -8.0     18.098     21.627
REMARK  5 active torsions:
REMARK  status: ('A' for Active; 'I' for Inactive)
REMARK    1  A    between atoms: C_4  and  C_5 
REMARK       I    between atoms: C_5  and  N_6 
REMARK    2  A    between atoms: N_6  and  C_7 
REMARK    3  A    between atoms: C_10  and  C_11 
REMARK    4  A    between atoms: C_11  and  N_12 
REMARK       I    between atoms: N_12  and  C_13 
REMARK       I    between atoms: C_13  and  N_14 
REMARK    5  A    between atoms: N_14  and  C_15 
ROOT
HETATM    1  C   UNL     1      40.065  40.388  64.211  1.00  0.00     0.035 A 
HETATM    2  C   UNL     1      40.715  41.466  64.810  1.00  0.00     0.030 A 
HETATM    3  C   UNL     1      40.494  42.770  64.357  1.00  0.00     0.011 A 
HETATM    4  C   UNL     1      39.609  43.020  63.301  1.00  0.00    -0.040 A 
HETATM    5  C   UNL     1      39.008  41.933  62.657  1.00  0.00     0.011 A 
HETATM    6  C   UNL     1      39.236  40.629  63.110  1.00  0.00     0.030 A 
ENDROOT
BRANCH   4   7
HETATM    7  C   UNL     1      39.282  44.432  62.905  1.00  0.00     0.162 C 
BRANCH   7   8
HETATM    8  N   UNL     1      37.904  44.786  63.148  1.00  0.00    -0.339 N 
HETATM    9  C   UNL     1      37.415  45.836  63.876  1.00  0.00     0.321 C 
HETATM   10  N   UNL     1      38.368  46.633  64.453  1.00  0.00    -0.306 N 
HETATM   11  O   UNL     1      36.199  45.956  63.956  1.00  0.00    -0.247 OA
HETATM   12  H   UNL     1      39.297  46.248  64.469  1.00  0.00     0.171 HD
HETATM   13  H   UNL     1      37.177  44.227  62.720  1.00  0.00     0.164 HD
BRANCH  10  14
HETATM   14  C   UNL     1      38.214  47.850  65.155  1.00  0.00     0.075 A 
HETATM   15  C   UNL     1      38.819  49.074  64.842  1.00  0.00     0.144 A 
HETATM   16  F   UNL     1      39.674  49.210  63.822  1.00  0.00    -0.204 F 
HETATM   17  C   UNL     1      38.591  50.212  65.619  1.00  0.00     0.063 A 
HETATM   18  C   UNL     1      37.763  50.135  66.734  1.00  0.00     0.014 A 
HETATM   19 BR   UNL     1      37.461  51.669  67.793  1.00  0.00    -0.051 Br
HETATM   20  C   UNL     1      37.165  48.928  67.080  1.00  0.00     0.021 A 
HETATM   21  C   UNL     1      37.391  47.794  66.294  1.00  0.00     0.034 A 
ENDBRANCH  10  14
ENDBRANCH   7   8
ENDBRANCH   4   7
BRANCH   1  22
HETATM   22  N   UNL     1      40.152  39.061  64.675  1.00  0.00    -0.321 N 
HETATM   23  C   UNL     1      41.269  38.243  64.716  1.00  0.00     0.279 C 
HETATM   24  O   UNL     1      42.368  38.511  64.244  1.00  0.00    -0.265 OA
HETATM   25  H   UNL     1      39.329  38.673  65.122  1.00  0.00     0.169 HD
BRANCH  23  26
HETATM   26  C   UNL     1      41.023  37.000  65.427  1.00  0.00     0.142 A 
HETATM   27  O   UNL     1      41.875  35.938  65.253  1.00  0.00    -0.317 OA
HETATM   28  C   UNL     1      41.396  34.915  66.007  1.00  0.00     0.143 A 
HETATM   29  C   UNL     1      40.250  35.292  66.663  1.00  0.00     0.027 A 
HETATM   30  C   UNL     1      40.010  36.637  66.295  1.00  0.00     0.045 A 
ENDBRANCH  23  26
ENDBRANCH   1  22
TORSDOF 5
ENDMDL
