MODEL 1
REMARK VINA RESULT:      -8.8      0.000      0.000
REMARK  9 active torsions:
REMARK  status: ('A' for Active; 'I' for Inactive)
REMARK    1  A    between atoms: C_2  and  O_3 
REMARK    2  A    between atoms: O_3  and  C_4 
REMARK    3  A    between atoms: C_5  and  C_6 
REMARK    4  A    between atoms: N_7  and  C_9 
REMARK    5  A    between atoms: C_9  and  C_10 
REMARK       I    between atoms: C_10  and  N_11 
REMARK    6  A    between atoms: N_11  and  C_12 
REMARK    7  A    between atoms: C_20  and  C_21 
REMARK    8  A    between atoms: C_21  and  O_22 
REMARK    9  A    between atoms: C_28  and  O_29 
ROOT
HETATM    1  C   UNL     1      20.508  47.468  48.352  1.00  0.00     0.231 C 
HETATM    2  N   UNL     1      21.326  46.243  48.765  1.00  0.00    -0.054 N 
HETATM    3  H   UNL     1      21.632  46.415  49.735  1.00  0.00     0.281 HD
HETATM    4  C   UNL     1      20.460  45.007  48.850  1.00  0.00     0.239 C 
HETATM    5  C   UNL     1      19.782  44.730  47.515  1.00  0.00     0.066 C 
HETATM    6  C   UNL     1      18.943  45.927  47.066  1.00  0.00     0.065 C 
HETATM    7  C   UNL     1      19.813  47.209  46.987  1.00  0.00     0.055 C 
HETATM    8  C   UNL     1      18.262  45.651  45.716  1.00  0.00     0.038 C 
HETATM    9  C   UNL     1      17.419  46.838  45.252  1.00  0.00     0.003 C 
HETATM   10  C   UNL     1      18.235  48.125  45.214  1.00  0.00     0.001 C 
HETATM   11  C   UNL     1      18.940  48.404  46.541  1.00  0.00     0.010 C 
ENDROOT
BRANCH   2  12
HETATM   12  C   UNL     1      22.651  46.022  48.027  1.00  0.00     0.338 C 
BRANCH  12  13
HETATM   13  C   UNL     1      23.588  45.090  48.803  1.00  0.00     0.248 C 
HETATM   14  N   UNL     1      23.834  45.512  50.093  1.00  0.00    -0.319 N 
HETATM   15  H   UNL     1      23.289  46.283  50.483  1.00  0.00     0.169 HD
HETATM   16  O   UNL     1      24.060  44.122  48.211  1.00  0.00    -0.271 OA
BRANCH  14  17
HETATM   17  C   UNL     1      24.770  44.993  50.983  1.00  0.00     0.094 A 
HETATM   18  S   UNL     1      25.107  43.334  51.039  1.00  0.00    -0.075 SA
HETATM   19  C   UNL     1      26.276  43.541  52.246  1.00  0.00    -0.008 A 
HETATM   20  C   UNL     1      26.447  44.866  52.605  1.00  0.00    -0.026 A 
HETATM   21  C   UNL     1      27.044  42.379  52.800  1.00  0.00     0.047 C 
HETATM   22  C   UNL     1      27.455  45.260  53.654  1.00  0.00     0.041 C 
HETATM   23  C   UNL     1      25.539  45.733  51.880  1.00  0.00     0.080 A 
HETATM   24  C   UNL     1      28.454  44.133  53.959  1.00  0.00     0.005 C 
HETATM   25  C   UNL     1      27.757  42.775  54.099  1.00  0.00     0.005 C 
BRANCH  23  26
HETATM   26  C   UNL     1      25.383  47.188  51.994  1.00  0.00     0.296 C 
HETATM   27  O   UNL     1      25.331  47.751  53.086  1.00  0.00    -0.259 OA
BRANCH  26  28
HETATM   28  O   UNL     1      25.316  47.827  50.796  1.00  0.00    -0.322 OA
HETATM   29  C   UNL     1      26.563  47.952  50.110  1.00  0.00     0.213 C 
ENDBRANCH  26  28
ENDBRANCH  23  26
ENDBRANCH  14  17
ENDBRANCH  12  13
ENDBRANCH   2  12
BRANCH   1  30
HETATM   30  C   UNL     1      21.242  48.792  48.537  1.00  0.00     0.006 A 
HETATM   31  C   UNL     1      20.866  49.791  49.459  1.00  0.00     0.077 A 
HETATM   32  C   UNL     1      21.665  50.932  49.613  1.00  0.00     0.037 A 
HETATM   33  C   UNL     1      22.812  51.111  48.839  1.00  0.00     0.003 A 
HETATM   34  C   UNL     1      23.174  50.153  47.902  1.00  0.00     0.001 A 
HETATM   35  C   UNL     1      22.397  49.007  47.752  1.00  0.00     0.012 A 
BRANCH  31  36
HETATM   36  O   UNL     1      19.710  49.576  50.166  1.00  0.00    -0.351 OA
BRANCH  36  37
HETATM   37  C   UNL     1      18.765  50.652  50.219  1.00  0.00     0.171 C 
HETATM   38  C   UNL     1      17.648  50.342  49.240  1.00  0.00     0.034 C 
ENDBRANCH  36  37
ENDBRANCH  31  36
ENDBRANCH   1  30
BRANCH   6  39
HETATM   39  O   UNL     1      17.938  46.124  48.070  1.00  0.00    -0.389 OA
HETATM   40  H   UNL     1      17.054  46.060  47.658  1.00  0.00     0.210 HD
ENDBRANCH   6  39
TORSDOF 9
ENDMDL
MODEL 2
REMARK VINA RESULT:      -8.7      1.776      2.760
REMARK  9 active torsions:
REMARK  status: ('A' for Active; 'I' for Inactive)
REMARK    1  A    between atoms: C_2  and  O_3 
REMARK    2  A    between atoms: O_3  and  C_4 
REMARK    3  A    between atoms: C_5  and  C_6 
REMARK    4  A    between atoms: N_7  and  C_9 
REMARK    5  A    between atoms: C_9  and  C_10 
REMARK       I    between atoms: C_10  and  N_11 
REMARK    6  A    between atoms: N_11  and  C_12 
REMARK    7  A    between atoms: C_20  and  C_21 
REMARK    8  A    between atoms: C_21  and  O_22 
REMARK    9  A    between atoms: C_28  and  O_29 
ROOT
HETATM    1  C   UNL     1      20.748  46.897  48.366  1.00  0.00     0.231 C 
HETATM    2  N   UNL     1      21.911  46.201  49.076  1.00  0.00    -0.054 N 
HETATM    3  H   UNL     1      21.897  46.541  50.050  1.00  0.00     0.281 HD
HETATM    4  C   UNL     1      21.675  44.712  49.186  1.00  0.00     0.239 C 
HETATM    5  C   UNL     1      21.488  44.093  47.807  1.00  0.00     0.066 C 
HETATM    6  C   UNL     1      20.327  44.753  47.062  1.00  0.00     0.065 C 
HETATM    7  C   UNL     1      20.544  46.284  46.953  1.00  0.00     0.055 C 
HETATM    8  C   UNL     1      20.140  44.131  45.669  1.00  0.00     0.038 C 
HETATM    9  C   UNL     1      18.982  44.780  44.909  1.00  0.00     0.003 C 
HETATM   10  C   UNL     1      19.141  46.294  44.831  1.00  0.00     0.001 C 
HETATM   11  C   UNL     1      19.353  46.927  46.205  1.00  0.00     0.010 C 
ENDROOT
BRANCH   2  12
HETATM   12  C   UNL     1      23.322  46.574  48.609  1.00  0.00     0.338 C 
BRANCH  12  13
HETATM   13  C   UNL     1      24.251  46.880  49.788  1.00  0.00     0.248 C 
HETATM   14  N   UNL     1      25.005  45.796  50.186  1.00  0.00    -0.319 N 
HETATM   15  H   UNL     1      25.018  44.952  49.610  1.00  0.00     0.169 HD
HETATM   16  O   UNL     1      24.201  48.001  50.288  1.00  0.00    -0.271 OA
BRANCH  14  17
HETATM   17  C   UNL     1      25.801  45.697  51.324  1.00  0.00     0.094 A 
HETATM   18  S   UNL     1      25.714  46.850  52.563  1.00  0.00    -0.075 SA
HETATM   19  C   UNL     1      26.867  46.035  53.497  1.00  0.00    -0.008 A 
HETATM   20  C   UNL     1      27.315  44.870  52.900  1.00  0.00    -0.026 A 
HETATM   21  C   UNL     1      27.290  46.547  54.841  1.00  0.00     0.047 C 
HETATM   22  C   UNL     1      28.333  43.992  53.581  1.00  0.00     0.041 C 
HETATM   23  C   UNL     1      26.707  44.675  51.598  1.00  0.00     0.080 A 
HETATM   24  C   UNL     1      28.497  44.334  55.071  1.00  0.00     0.005 C 
HETATM   25  C   UNL     1      28.573  45.847  55.305  1.00  0.00     0.005 C 
BRANCH  23  26
HETATM   26  C   UNL     1      26.938  43.587  50.640  1.00  0.00     0.296 C 
HETATM   27  O   UNL     1      27.237  43.809  49.467  1.00  0.00    -0.259 OA
BRANCH  26  28
HETATM   28  O   UNL     1      26.801  42.346  51.176  1.00  0.00    -0.322 OA
HETATM   29  C   UNL     1      27.857  41.435  50.866  1.00  0.00     0.213 C 
ENDBRANCH  26  28
ENDBRANCH  23  26
ENDBRANCH  14  17
ENDBRANCH  12  13
ENDBRANCH   2  12
BRANCH   1  30
HETATM   30  C   UNL     1      20.771  48.417  48.486  1.00  0.00     0.006 A 
HETATM   31  C   UNL     1      19.821  49.176  49.200  1.00  0.00     0.077 A 
HETATM   32  C   UNL     1      19.988  50.563  49.323  1.00  0.00     0.037 A 
HETATM   33  C   UNL     1      21.066  51.208  48.718  1.00  0.00     0.003 A 
HETATM   34  C   UNL     1      21.989  50.479  47.982  1.00  0.00     0.001 A 
HETATM   35  C   UNL     1      21.843  49.099  47.867  1.00  0.00     0.012 A 
BRANCH  31  36
HETATM   36  O   UNL     1      18.764  48.490  49.742  1.00  0.00    -0.351 OA
BRANCH  36  37
HETATM   37  C   UNL     1      17.495  48.619  49.090  1.00  0.00     0.171 C 
HETATM   38  C   UNL     1      16.891  47.233  48.965  1.00  0.00     0.034 C 
ENDBRANCH  36  37
ENDBRANCH  31  36
ENDBRANCH   1  30
BRANCH   6  39
HETATM   39  O   UNL     1      19.149  44.517  47.845  1.00  0.00    -0.389 OA
HETATM   40  H   UNL     1      18.380  44.423  47.250  1.00  0.00     0.210 HD
ENDBRANCH   6  39
TORSDOF 9
ENDMDL
MODEL 3
REMARK VINA RESULT:      -8.7      1.451      1.896
REMARK  9 active torsions:
REMARK  status: ('A' for Active; 'I' for Inactive)
REMARK    1  A    between atoms: C_2  and  O_3 
REMARK    2  A    between atoms: O_3  and  C_4 
REMARK    3  A    between atoms: C_5  and  C_6 
REMARK    4  A    between atoms: N_7  and  C_9 
REMARK    5  A    between atoms: C_9  and  C_10 
REMARK       I    between atoms: C_10  and  N_11 
REMARK    6  A    between atoms: N_11  and  C_12 
REMARK    7  A    between atoms: C_20  and  C_21 
REMARK    8  A    between atoms: C_21  and  O_22 
REMARK    9  A    between atoms: C_28  and  O_29 
ROOT
HETATM    1  C   UNL     1      21.043  46.766  48.428  1.00  0.00     0.231 C 
HETATM    2  N   UNL     1      22.109  45.994  49.208  1.00  0.00    -0.054 N 
HETATM    3  H   UNL     1      22.002  46.275  50.194  1.00  0.00     0.281 HD
HETATM    4  C   UNL     1      21.829  44.509  49.199  1.00  0.00     0.239 C 
HETATM    5  C   UNL     1      21.772  43.979  47.772  1.00  0.00     0.066 C 
HETATM    6  C   UNL     1      20.709  44.716  46.956  1.00  0.00     0.065 C 
HETATM    7  C   UNL     1      20.972  46.245  46.965  1.00  0.00     0.055 C 
HETATM    8  C   UNL     1      20.653  44.186  45.514  1.00  0.00     0.038 C 
HETATM    9  C   UNL     1      19.595  44.912  44.683  1.00  0.00     0.003 C 
HETATM   10  C   UNL     1      19.797  46.423  44.716  1.00  0.00     0.001 C 
HETATM   11  C   UNL     1      19.880  46.966  46.142  1.00  0.00     0.010 C 
ENDROOT
BRANCH   2  12
HETATM   12  C   UNL     1      23.569  46.352  48.911  1.00  0.00     0.338 C 
BRANCH  12  13
HETATM   13  C   UNL     1      24.542  45.351  49.543  1.00  0.00     0.248 C 
HETATM   14  N   UNL     1      24.752  45.566  50.888  1.00  0.00    -0.319 N 
HETATM   15  H   UNL     1      24.165  46.236  51.389  1.00  0.00     0.169 HD
HETATM   16  O   UNL     1      25.069  44.517  48.810  1.00  0.00    -0.271 OA
BRANCH  14  17
HETATM   17  C   UNL     1      25.702  44.952  51.700  1.00  0.00     0.094 A 
HETATM   18  S   UNL     1      26.174  43.346  51.444  1.00  0.00    -0.075 SA
HETATM   19  C   UNL     1      27.287  43.396  52.719  1.00  0.00    -0.008 A 
HETATM   20  C   UNL     1      27.336  44.631  53.339  1.00  0.00    -0.026 A 
HETATM   21  C   UNL     1      28.132  42.208  53.068  1.00  0.00     0.047 C 
HETATM   22  C   UNL     1      28.277  44.884  54.488  1.00  0.00     0.041 C 
HETATM   23  C   UNL     1      26.380  45.554  52.758  1.00  0.00     0.080 A 
HETATM   24  C   UNL     1      29.358  43.797  54.610  1.00  0.00     0.005 C 
HETATM   25  C   UNL     1      28.772  42.390  54.449  1.00  0.00     0.005 C 
BRANCH  23  26
HETATM   26  C   UNL     1      26.101  46.941  53.149  1.00  0.00     0.296 C 
HETATM   27  O   UNL     1      26.162  47.867  52.341  1.00  0.00    -0.259 OA
BRANCH  26  28
HETATM   28  O   UNL     1      25.768  47.085  54.459  1.00  0.00    -0.322 OA
HETATM   29  C   UNL     1      26.525  48.067  55.168  1.00  0.00     0.213 C 
ENDBRANCH  26  28
ENDBRANCH  23  26
ENDBRANCH  14  17
ENDBRANCH  12  13
ENDBRANCH   2  12
BRANCH   1  30
HETATM   30  C   UNL     1      21.088  48.274  48.644  1.00  0.00     0.006 A 
HETATM   31  C   UNL     1      20.146  49.001  49.402  1.00  0.00     0.077 A 
HETATM   32  C   UNL     1      20.333  50.374  49.614  1.00  0.00     0.037 A 
HETATM   33  C   UNL     1      21.424  51.040  49.055  1.00  0.00     0.003 A 
HETATM   34  C   UNL     1      22.339  50.345  48.278  1.00  0.00     0.001 A 
HETATM   35  C   UNL     1      22.173  48.977  48.074  1.00  0.00     0.012 A 
BRANCH  31  36
HETATM   36  O   UNL     1      19.077  48.298  49.895  1.00  0.00    -0.351 OA
BRANCH  36  37
HETATM   37  C   UNL     1      17.807  48.510  49.266  1.00  0.00     0.171 C 
HETATM   38  C   UNL     1      17.273  47.160  48.824  1.00  0.00     0.034 C 
ENDBRANCH  36  37
ENDBRANCH  31  36
ENDBRANCH   1  30
BRANCH   6  39
HETATM   39  O   UNL     1      19.452  44.469  47.598  1.00  0.00    -0.389 OA
HETATM   40  H   UNL     1      19.492  43.612  48.067  1.00  0.00     0.210 HD
ENDBRANCH   6  39
TORSDOF 9
ENDMDL
MODEL 4
REMARK VINA RESULT:      -8.7      2.629      8.004
REMARK  9 active torsions:
REMARK  status: ('A' for Active; 'I' for Inactive)
REMARK    1  A    between atoms: C_2  and  O_3 
REMARK    2  A    between atoms: O_3  and  C_4 
REMARK    3  A    between atoms: C_5  and  C_6 
REMARK    4  A    between atoms: N_7  and  C_9 
REMARK    5  A    between atoms: C_9  and  C_10 
REMARK       I    between atoms: C_10  and  N_11 
REMARK    6  A    between atoms: N_11  and  C_12 
REMARK    7  A    between atoms: C_20  and  C_21 
REMARK    8  A    between atoms: C_21  and  O_22 
REMARK    9  A    between atoms: C_28  and  O_29 
ROOT
HETATM    1  C   UNL     1      25.487  43.917  49.678  1.00  0.00     0.231 C 
HETATM    2  N   UNL     1      24.210  44.112  48.858  1.00  0.00    -0.054 N 
HETATM    3  H   UNL     1      24.222  45.093  48.540  1.00  0.00     0.281 HD
HETATM    4  C   UNL     1      24.244  43.296  47.586  1.00  0.00     0.239 C 
HETATM    5  C   UNL     1      24.416  41.816  47.900  1.00  0.00     0.066 C 
HETATM    6  C   UNL     1      25.689  41.571  48.712  1.00  0.00     0.065 C 
HETATM    7  C   UNL     1      25.679  42.412  50.015  1.00  0.00     0.055 C 
HETATM    8  C   UNL     1      25.861  40.078  49.033  1.00  0.00     0.038 C 
HETATM    9  C   UNL     1      27.130  39.815  49.846  1.00  0.00     0.003 C 
HETATM   10  C   UNL     1      27.173  40.668  51.109  1.00  0.00     0.001 C 
HETATM   11  C   UNL     1      26.978  42.154  50.811  1.00  0.00     0.010 C 
ENDROOT
BRANCH   2  12
HETATM   12  C   UNL     1      22.885  44.019  49.620  1.00  0.00     0.338 C 
BRANCH  12  13
HETATM   13  C   UNL     1      21.835  44.984  49.060  1.00  0.00     0.248 C 
HETATM   14  N   UNL     1      22.196  46.310  49.171  1.00  0.00    -0.319 N 
HETATM   15  H   UNL     1      23.147  46.551  49.455  1.00  0.00     0.169 HD
HETATM   16  O   UNL     1      20.785  44.510  48.632  1.00  0.00    -0.271 OA
BRANCH  14  17
HETATM   17  C   UNL     1      21.397  47.423  48.924  1.00  0.00     0.094 A 
HETATM   18  S   UNL     1      19.715  47.284  48.774  1.00  0.00    -0.075 SA
HETATM   19  C   UNL     1      19.527  48.952  48.548  1.00  0.00    -0.008 A 
HETATM   20  C   UNL     1      20.726  49.638  48.608  1.00  0.00    -0.026 A 
HETATM   21  C   UNL     1      18.175  49.567  48.349  1.00  0.00     0.047 C 
HETATM   22  C   UNL     1      20.769  51.136  48.446  1.00  0.00     0.041 C 
HETATM   23  C   UNL     1      21.844  48.737  48.805  1.00  0.00     0.080 A 
HETATM   24  C   UNL     1      19.380  51.781  48.586  1.00  0.00     0.005 C 
HETATM   25  C   UNL     1      18.309  50.999  47.817  1.00  0.00     0.005 C 
BRANCH  23  26
HETATM   26  C   UNL     1      23.273  49.064  48.890  1.00  0.00     0.296 C 
HETATM   27  O   UNL     1      23.894  48.983  49.949  1.00  0.00    -0.259 OA
BRANCH  26  28
HETATM   28  O   UNL     1      23.820  49.443  47.705  1.00  0.00    -0.322 OA
HETATM   29  C   UNL     1      24.393  50.752  47.699  1.00  0.00     0.213 C 
ENDBRANCH  26  28
ENDBRANCH  23  26
ENDBRANCH  14  17
ENDBRANCH  12  13
ENDBRANCH   2  12
BRANCH   1  30
HETATM   30  C   UNL     1      25.657  44.926  50.808  1.00  0.00     0.006 A 
HETATM   31  C   UNL     1      26.066  46.264  50.629  1.00  0.00     0.077 A 
HETATM   32  C   UNL     1      26.101  47.134  51.728  1.00  0.00     0.037 A 
HETATM   33  C   UNL     1      25.768  46.685  53.005  1.00  0.00     0.003 A 
HETATM   34  C   UNL     1      25.398  45.362  53.202  1.00  0.00     0.001 A 
HETATM   35  C   UNL     1      25.344  44.492  52.116  1.00  0.00     0.012 A 
BRANCH  31  36
HETATM   36  O   UNL     1      26.415  46.638  49.356  1.00  0.00    -0.351 OA
BRANCH  36  37
HETATM   37  C   UNL     1      27.640  47.365  49.199  1.00  0.00     0.171 C 
HETATM   38  C   UNL     1      27.290  48.809  48.892  1.00  0.00     0.034 C 
ENDBRANCH  36  37
ENDBRANCH  31  36
ENDBRANCH   1  30
BRANCH   6  39
HETATM   39  O   UNL     1      26.786  42.008  47.900  1.00  0.00    -0.389 OA
HETATM   40  H   UNL     1      26.871  41.416  47.126  1.00  0.00     0.210 HD
ENDBRANCH   6  39
TORSDOF 9
ENDMDL
MODEL 5
REMARK VINA RESULT:      -8.5      2.359      4.913
REMARK  9 active torsions:
REMARK  status: ('A' for Active; 'I' for Inactive)
REMARK    1  A    between atoms: C_2  and  O_3 
REMARK    2  A    between atoms: O_3  and  C_4 
REMARK    3  A    between atoms: C_5  and  C_6 
REMARK    4  A    between atoms: N_7  and  C_9 
REMARK    5  A    between atoms: C_9  and  C_10 
REMARK       I    between atoms: C_10  and  N_11 
REMARK    6  A    between atoms: N_11  and  C_12 
REMARK    7  A    between atoms: C_20  and  C_21 
REMARK    8  A    between atoms: C_21  and  O_22 
REMARK    9  A    between atoms: C_28  and  O_29 
ROOT
HETATM    1  C   UNL     1      22.937  47.697  48.138  1.00  0.00     0.231 C 
HETATM    2  N   UNL     1      24.201  48.016  48.939  1.00  0.00    -0.054 N 
HETATM    3  H   UNL     1      24.949  47.430  48.538  1.00  0.00     0.281 HD
HETATM    4  C   UNL     1      24.657  49.437  48.702  1.00  0.00     0.239 C 
HETATM    5  C   UNL     1      23.563  50.425  49.081  1.00  0.00     0.066 C 
HETATM    6  C   UNL     1      22.280  50.151  48.295  1.00  0.00     0.065 C 
HETATM    7  C   UNL     1      21.803  48.691  48.514  1.00  0.00     0.055 C 
HETATM    8  C   UNL     1      21.172  51.145  48.679  1.00  0.00     0.038 C 
HETATM    9  C   UNL     1      19.881  50.885  47.903  1.00  0.00     0.003 C 
HETATM   10  C   UNL     1      19.416  49.441  48.056  1.00  0.00     0.001 C 
HETATM   11  C   UNL     1      20.513  48.438  47.702  1.00  0.00     0.010 C 
ENDROOT
BRANCH   2  12
HETATM   12  C   UNL     1      24.200  47.601  50.414  1.00  0.00     0.338 C 
BRANCH  12  13
HETATM   13  C   UNL     1      25.575  47.095  50.865  1.00  0.00     0.248 C 
HETATM   14  N   UNL     1      25.505  46.067  51.781  1.00  0.00    -0.319 N 
HETATM   15  H   UNL     1      24.606  45.622  51.972  1.00  0.00     0.169 HD
HETATM   16  O   UNL     1      26.572  47.667  50.431  1.00  0.00    -0.271 OA
BRANCH  14  17
HETATM   17  C   UNL     1      26.557  45.517  52.509  1.00  0.00     0.094 A 
HETATM   18  S   UNL     1      26.993  46.131  54.026  1.00  0.00    -0.075 SA
HETATM   19  C   UNL     1      28.216  44.976  54.219  1.00  0.00    -0.008 A 
HETATM   20  C   UNL     1      28.295  44.096  53.155  1.00  0.00    -0.026 A 
HETATM   21  C   UNL     1      29.065  44.933  55.455  1.00  0.00     0.047 C 
HETATM   22  C   UNL     1      29.311  42.983  53.145  1.00  0.00     0.041 C 
HETATM   23  C   UNL     1      27.332  44.425  52.123  1.00  0.00     0.080 A 
HETATM   24  C   UNL     1      29.928  42.740  54.531  1.00  0.00     0.005 C 
HETATM   25  C   UNL     1      30.300  44.054  55.228  1.00  0.00     0.005 C 
BRANCH  23  26
HETATM   26  C   UNL     1      27.119  43.761  50.831  1.00  0.00     0.296 C 
HETATM   27  O   UNL     1      27.347  44.329  49.764  1.00  0.00    -0.259 OA
BRANCH  26  28
HETATM   28  O   UNL     1      26.666  42.484  50.940  1.00  0.00    -0.322 OA
HETATM   29  C   UNL     1      27.453  41.506  50.257  1.00  0.00     0.213 C 
ENDBRANCH  26  28
ENDBRANCH  23  26
ENDBRANCH  14  17
ENDBRANCH  12  13
ENDBRANCH   2  12
BRANCH   1  30
HETATM   30  C   UNL     1      22.594  46.212  48.088  1.00  0.00     0.006 A 
HETATM   31  C   UNL     1      22.233  45.515  46.916  1.00  0.00     0.077 A 
HETATM   32  C   UNL     1      22.026  44.130  46.967  1.00  0.00     0.037 A 
HETATM   33  C   UNL     1      22.140  43.434  48.171  1.00  0.00     0.003 A 
HETATM   34  C   UNL     1      22.458  44.113  49.338  1.00  0.00     0.001 A 
HETATM   35  C   UNL     1      22.683  45.487  49.298  1.00  0.00     0.012 A 
BRANCH  31  36
HETATM   36  O   UNL     1      22.102  46.258  45.771  1.00  0.00    -0.351 OA
BRANCH  36  37
HETATM   37  C   UNL     1      21.008  45.938  44.903  1.00  0.00     0.171 C 
HETATM   38  C   UNL     1      21.571  45.669  43.520  1.00  0.00     0.034 C 
ENDBRANCH  36  37
ENDBRANCH  31  36
ENDBRANCH   1  30
BRANCH   6  39
HETATM   39  O   UNL     1      22.603  50.318  46.908  1.00  0.00    -0.389 OA
HETATM   40  H   UNL     1      23.072  49.523  46.588  1.00  0.00     0.210 HD
ENDBRANCH   6  39
TORSDOF 9
ENDMDL
MODEL 6
REMARK VINA RESULT:      -8.4      4.955      7.719
REMARK  9 active torsions:
REMARK  status: ('A' for Active; 'I' for Inactive)
REMARK    1  A    between atoms: C_2  and  O_3 
REMARK    2  A    between atoms: O_3  and  C_4 
REMARK    3  A    between atoms: C_5  and  C_6 
REMARK    4  A    between atoms: N_7  and  C_9 
REMARK    5  A    between atoms: C_9  and  C_10 
REMARK       I    between atoms: C_10  and  N_11 
REMARK    6  A    between atoms: N_11  and  C_12 
REMARK    7  A    between atoms: C_20  and  C_21 
REMARK    8  A    between atoms: C_21  and  O_22 
REMARK    9  A    between atoms: C_28  and  O_29 
ROOT
HETATM    1  C   UNL     1      25.424  41.488  47.781  1.00  0.00     0.231 C 
HETATM    2  N   UNL     1      25.254  42.808  48.537  1.00  0.00    -0.054 N 
HETATM    3  H   UNL     1      26.145  43.316  48.430  1.00  0.00     0.281 HD
HETATM    4  C   UNL     1      24.226  43.693  47.870  1.00  0.00     0.239 C 
HETATM    5  C   UNL     1      22.879  42.987  47.787  1.00  0.00     0.066 C 
HETATM    6  C   UNL     1      22.999  41.664  47.029  1.00  0.00     0.065 C 
HETATM    7  C   UNL     1      24.061  40.747  47.690  1.00  0.00     0.055 C 
HETATM    8  C   UNL     1      21.641  40.948  46.948  1.00  0.00     0.038 C 
HETATM    9  C   UNL     1      21.743  39.622  46.193  1.00  0.00     0.003 C 
HETATM   10  C   UNL     1      22.818  38.719  46.789  1.00  0.00     0.001 C 
HETATM   11  C   UNL     1      24.169  39.423  46.901  1.00  0.00     0.010 C 
ENDROOT
BRANCH   2  12
HETATM   12  C   UNL     1      25.099  42.712  50.058  1.00  0.00     0.338 C 
BRANCH  12  13
HETATM   13  C   UNL     1      26.352  43.203  50.791  1.00  0.00     0.248 C 
HETATM   14  N   UNL     1      26.368  42.869  52.129  1.00  0.00    -0.319 N 
HETATM   15  H   UNL     1      25.670  42.220  52.495  1.00  0.00     0.169 HD
HETATM   16  O   UNL     1      27.167  43.871  50.159  1.00  0.00    -0.271 OA
BRANCH  14  17
HETATM   17  C   UNL     1      27.265  43.315  53.095  1.00  0.00     0.094 A 
HETATM   18  S   UNL     1      28.832  42.680  53.204  1.00  0.00    -0.075 SA
HETATM   19  C   UNL     1      29.233  43.703  54.493  1.00  0.00    -0.008 A 
HETATM   20  C   UNL     1      28.201  44.554  54.842  1.00  0.00    -0.026 A 
HETATM   21  C   UNL     1      30.593  43.673  55.122  1.00  0.00     0.047 C 
HETATM   22  C   UNL     1      28.365  45.555  55.957  1.00  0.00     0.041 C 
HETATM   23  C   UNL     1      27.019  44.314  54.036  1.00  0.00     0.080 A 
HETATM   24  C   UNL     1      29.837  45.751  56.355  1.00  0.00     0.005 C 
HETATM   25  C   UNL     1      30.581  44.415  56.464  1.00  0.00     0.005 C 
BRANCH  23  26
HETATM   26  C   UNL     1      25.713  44.979  54.114  1.00  0.00     0.296 C 
HETATM   27  O   UNL     1      24.686  44.360  54.388  1.00  0.00    -0.259 OA
BRANCH  26  28
HETATM   28  O   UNL     1      25.763  46.315  53.868  1.00  0.00    -0.322 OA
HETATM   29  C   UNL     1      25.747  46.673  52.485  1.00  0.00     0.213 C 
ENDBRANCH  26  28
ENDBRANCH  23  26
ENDBRANCH  14  17
ENDBRANCH  12  13
ENDBRANCH   2  12
BRANCH   1  30
HETATM   30  C   UNL     1      26.645  40.682  48.212  1.00  0.00     0.006 A 
HETATM   31  C   UNL     1      27.888  40.699  47.546  1.00  0.00     0.077 A 
HETATM   32  C   UNL     1      28.973  39.990  48.081  1.00  0.00     0.037 A 
HETATM   33  C   UNL     1      28.830  39.238  49.247  1.00  0.00     0.003 A 
HETATM   34  C   UNL     1      27.603  39.183  49.892  1.00  0.00     0.001 A 
HETATM   35  C   UNL     1      26.522  39.896  49.380  1.00  0.00     0.012 A 
BRANCH  31  36
HETATM   36  O   UNL     1      27.958  41.427  46.386  1.00  0.00    -0.351 OA
BRANCH  36  37
HETATM   37  C   UNL     1      28.051  40.696  45.158  1.00  0.00     0.171 C 
HETATM   38  C   UNL     1      27.157  41.377  44.139  1.00  0.00     0.034 C 
ENDBRANCH  36  37
ENDBRANCH  31  36
ENDBRANCH   1  30
BRANCH   6  39
HETATM   39  O   UNL     1      23.442  41.987  45.704  1.00  0.00    -0.389 OA
HETATM   40  H   UNL     1      24.416  41.916  45.663  1.00  0.00     0.210 HD
ENDBRANCH   6  39
TORSDOF 9
ENDMDL
MODEL 7
REMARK VINA RESULT:      -8.3      1.786      3.083
REMARK  9 active torsions:
REMARK  status: ('A' for Active; 'I' for Inactive)
REMARK    1  A    between atoms: C_2  and  O_3 
REMARK    2  A    between atoms: O_3  and  C_4 
REMARK    3  A    between atoms: C_5  and  C_6 
REMARK    4  A    between atoms: N_7  and  C_9 
REMARK    5  A    between atoms: C_9  and  C_10 
REMARK       I    between atoms: C_10  and  N_11 
REMARK    6  A    between atoms: N_11  and  C_12 
REMARK    7  A    between atoms: C_20  and  C_21 
REMARK    8  A    between atoms: C_21  and  O_22 
REMARK    9  A    between atoms: C_28  and  O_29 
ROOT
HETATM    1  C   UNL     1      20.500  46.752  48.562  1.00  0.00     0.231 C 
HETATM    2  N   UNL     1      21.768  46.115  49.135  1.00  0.00    -0.054 N 
HETATM    3  H   UNL     1      21.653  46.120  50.160  1.00  0.00     0.281 HD
HETATM    4  C   UNL     1      21.862  44.653  48.766  1.00  0.00     0.239 C 
HETATM    5  C   UNL     1      21.853  44.476  47.254  1.00  0.00     0.066 C 
HETATM    6  C   UNL     1      20.596  45.090  46.637  1.00  0.00     0.065 C 
HETATM    7  C   UNL     1      20.474  46.589  47.017  1.00  0.00     0.055 C 
HETATM    8  C   UNL     1      20.587  44.917  45.110  1.00  0.00     0.038 C 
HETATM    9  C   UNL     1      19.336  45.526  44.477  1.00  0.00     0.003 C 
HETATM   10  C   UNL     1      19.160  46.987  44.875  1.00  0.00     0.001 C 
HETATM   11  C   UNL     1      19.192  47.183  46.390  1.00  0.00     0.010 C 
ENDROOT
BRANCH   2  12
HETATM   12  C   UNL     1      23.075  46.891  48.938  1.00  0.00     0.338 C 
BRANCH  12  13
HETATM   13  C   UNL     1      24.269  46.166  49.568  1.00  0.00     0.248 C 
HETATM   14  N   UNL     1      24.208  46.105  50.944  1.00  0.00    -0.319 N 
HETATM   15  H   UNL     1      23.350  46.385  51.423  1.00  0.00     0.169 HD
HETATM   16  O   UNL     1      25.164  45.773  48.823  1.00  0.00    -0.271 OA
BRANCH  14  17
HETATM   17  C   UNL     1      25.209  45.679  51.812  1.00  0.00     0.094 A 
HETATM   18  S   UNL     1      26.032  46.772  52.811  1.00  0.00    -0.075 SA
HETATM   19  C   UNL     1      26.963  45.541  53.508  1.00  0.00    -0.008 A 
HETATM   20  C   UNL     1      26.649  44.287  53.016  1.00  0.00    -0.026 A 
HETATM   21  C   UNL     1      27.977  45.833  54.573  1.00  0.00     0.047 C 
HETATM   22  C   UNL     1      27.356  43.057  53.522  1.00  0.00     0.041 C 
HETATM   23  C   UNL     1      25.628  44.362  51.989  1.00  0.00     0.080 A 
HETATM   24  C   UNL     1      28.128  43.319  54.825  1.00  0.00     0.005 C 
HETATM   25  C   UNL     1      28.913  44.635  54.768  1.00  0.00     0.005 C 
BRANCH  23  26
HETATM   26  C   UNL     1      25.046  43.268  51.203  1.00  0.00     0.296 C 
HETATM   27  O   UNL     1      23.851  42.982  51.274  1.00  0.00    -0.259 OA
BRANCH  26  28
HETATM   28  O   UNL     1      25.942  42.630  50.404  1.00  0.00    -0.322 OA
HETATM   29  C   UNL     1      25.573  41.303  50.024  1.00  0.00     0.213 C 
ENDBRANCH  26  28
ENDBRANCH  23  26
ENDBRANCH  14  17
ENDBRANCH  12  13
ENDBRANCH   2  12
BRANCH   1  30
HETATM   30  C   UNL     1      20.186  48.129  49.138  1.00  0.00     0.006 A 
HETATM   31  C   UNL     1      20.860  49.316  48.782  1.00  0.00     0.077 A 
HETATM   32  C   UNL     1      20.429  50.544  49.303  1.00  0.00     0.037 A 
HETATM   33  C   UNL     1      19.361  50.604  50.199  1.00  0.00     0.003 A 
HETATM   34  C   UNL     1      18.712  49.440  50.585  1.00  0.00     0.001 A 
HETATM   35  C   UNL     1      19.120  48.216  50.061  1.00  0.00     0.012 A 
BRANCH  31  36
HETATM   36  O   UNL     1      21.924  49.189  47.926  1.00  0.00    -0.351 OA
BRANCH  36  37
HETATM   37  C   UNL     1      22.619  50.388  47.562  1.00  0.00     0.171 C 
HETATM   38  C   UNL     1      24.070  50.231  47.975  1.00  0.00     0.034 C 
ENDBRANCH  36  37
ENDBRANCH  31  36
ENDBRANCH   1  30
BRANCH   6  39
HETATM   39  O   UNL     1      19.478  44.389  47.198  1.00  0.00    -0.389 OA
HETATM   40  H   UNL     1      18.736  44.402  46.561  1.00  0.00     0.210 HD
ENDBRANCH   6  39
TORSDOF 9
ENDMDL
MODEL 8
REMARK VINA RESULT:      -8.1      2.182      3.499
REMARK  9 active torsions:
REMARK  status: ('A' for Active; 'I' for Inactive)
REMARK    1  A    between atoms: C_2  and  O_3 
REMARK    2  A    between atoms: O_3  and  C_4 
REMARK    3  A    between atoms: C_5  and  C_6 
REMARK    4  A    between atoms: N_7  and  C_9 
REMARK    5  A    between atoms: C_9  and  C_10 
REMARK       I    between atoms: C_10  and  N_11 
REMARK    6  A    between atoms: N_11  and  C_12 
REMARK    7  A    between atoms: C_20  and  C_21 
REMARK    8  A    between atoms: C_21  and  O_22 
REMARK    9  A    between atoms: C_28  and  O_29 
ROOT
HETATM    1  C   UNL     1      21.400  45.068  47.730  1.00  0.00     0.231 C 
HETATM    2  N   UNL     1      22.405  44.469  48.717  1.00  0.00    -0.054 N 
HETATM    3  H   UNL     1      21.888  44.322  49.597  1.00  0.00     0.281 HD
HETATM    4  C   UNL     1      22.836  43.086  48.289  1.00  0.00     0.239 C 
HETATM    5  C   UNL     1      23.460  43.120  46.900  1.00  0.00     0.066 C 
HETATM    6  C   UNL     1      22.485  43.704  45.876  1.00  0.00     0.065 C 
HETATM    7  C   UNL     1      22.019  45.119  46.305  1.00  0.00     0.055 C 
HETATM    8  C   UNL     1      23.114  43.743  44.474  1.00  0.00     0.038 C 
HETATM    9  C   UNL     1      22.153  44.325  43.437  1.00  0.00     0.003 C 
HETATM   10  C   UNL     1      21.636  45.696  43.858  1.00  0.00     0.001 C 
HETATM   11  C   UNL     1      21.029  45.681  45.260  1.00  0.00     0.010 C 
ENDROOT
BRANCH   2  12
HETATM   12  C   UNL     1      23.562  45.374  49.151  1.00  0.00     0.338 C 
BRANCH  12  13
HETATM   13  C   UNL     1      24.229  44.872  50.436  1.00  0.00     0.248 C 
HETATM   14  N   UNL     1      25.548  45.255  50.554  1.00  0.00    -0.319 N 
HETATM   15  H   UNL     1      25.934  45.939  49.901  1.00  0.00     0.169 HD
HETATM   16  O   UNL     1      23.570  44.154  51.186  1.00  0.00    -0.271 OA
BRANCH  14  17
HETATM   17  C   UNL     1      26.469  44.817  51.501  1.00  0.00     0.094 A 
HETATM   18  S   UNL     1      27.396  43.421  51.250  1.00  0.00    -0.075 SA
HETATM   19  C   UNL     1      28.209  43.612  52.723  1.00  0.00    -0.008 A 
HETATM   20  C   UNL     1      27.812  44.743  53.412  1.00  0.00    -0.026 A 
HETATM   21  C   UNL     1      29.270  42.647  53.163  1.00  0.00     0.047 C 
HETATM   22  C   UNL     1      28.430  45.098  54.740  1.00  0.00     0.041 C 
HETATM   23  C   UNL     1      26.760  45.451  52.708  1.00  0.00     0.080 A 
HETATM   24  C   UNL     1      29.725  44.315  55.011  1.00  0.00     0.005 C 
HETATM   25  C   UNL     1      29.581  42.832  54.653  1.00  0.00     0.005 C 
BRANCH  23  26
HETATM   26  C   UNL     1      26.051  46.669  53.117  1.00  0.00     0.296 C 
HETATM   27  O   UNL     1      25.750  47.546  52.308  1.00  0.00    -0.259 OA
BRANCH  26  28
HETATM   28  O   UNL     1      25.763  46.716  54.444  1.00  0.00    -0.322 OA
HETATM   29  C   UNL     1      26.150  47.924  55.102  1.00  0.00     0.213 C 
ENDBRANCH  26  28
ENDBRANCH  23  26
ENDBRANCH  14  17
ENDBRANCH  12  13
ENDBRANCH   2  12
BRANCH   1  30
HETATM   30  C   UNL     1      20.698  46.320  48.246  1.00  0.00     0.006 A 
HETATM   31  C   UNL     1      19.322  46.395  48.548  1.00  0.00     0.077 A 
HETATM   32  C   UNL     1      18.796  47.569  49.104  1.00  0.00     0.037 A 
HETATM   33  C   UNL     1      19.609  48.679  49.331  1.00  0.00     0.003 A 
HETATM   34  C   UNL     1      20.957  48.631  49.005  1.00  0.00     0.001 A 
HETATM   35  C   UNL     1      21.495  47.465  48.468  1.00  0.00     0.012 A 
BRANCH  31  36
HETATM   36  O   UNL     1      18.567  45.285  48.270  1.00  0.00    -0.351 OA
BRANCH  36  37
HETATM   37  C   UNL     1      17.539  45.422  47.281  1.00  0.00     0.171 C 
HETATM   38  C   UNL     1      17.837  44.446  46.158  1.00  0.00     0.034 C 
ENDBRANCH  36  37
ENDBRANCH  31  36
ENDBRANCH   1  30
BRANCH   6  39
HETATM   39  O   UNL     1      21.342  42.838  45.855  1.00  0.00    -0.389 OA
HETATM   40  H   UNL     1      21.456  42.170  45.150  1.00  0.00     0.210 HD
ENDBRANCH   6  39
TORSDOF 9
ENDMDL
MODEL 9
REMARK VINA RESULT:      -8.0      2.498      8.444
REMARK  9 active torsions:
REMARK  status: ('A' for Active; 'I' for Inactive)
REMARK    1  A    between atoms: C_2  and  O_3 
REMARK    2  A    between atoms: O_3  and  C_4 
REMARK    3  A    between atoms: C_5  and  C_6 
REMARK    4  A    between atoms: N_7  and  C_9 
REMARK    5  A    between atoms: C_9  and  C_10 
REMARK       I    between atoms: C_10  and  N_11 
REMARK    6  A    between atoms: N_11  and  C_12 
REMARK    7  A    between atoms: C_20  and  C_21 
REMARK    8  A    between atoms: C_21  and  O_22 
REMARK    9  A    between atoms: C_28  and  O_29 
ROOT
HETATM    1  C   UNL     1      25.436  44.144  49.916  1.00  0.00     0.231 C 
HETATM    2  N   UNL     1      24.161  44.400  49.110  1.00  0.00    -0.054 N 
HETATM    3  H   UNL     1      24.186  45.396  48.844  1.00  0.00     0.281 HD
HETATM    4  C   UNL     1      24.181  43.651  47.798  1.00  0.00     0.239 C 
HETATM    5  C   UNL     1      24.331  42.154  48.033  1.00  0.00     0.066 C 
HETATM    6  C   UNL     1      25.601  41.849  48.829  1.00  0.00     0.065 C 
HETATM    7  C   UNL     1      25.606  42.620  50.174  1.00  0.00     0.055 C 
HETATM    8  C   UNL     1      25.752  40.338  49.071  1.00  0.00     0.038 C 
HETATM    9  C   UNL     1      27.017  40.014  49.866  1.00  0.00     0.003 C 
HETATM   10  C   UNL     1      27.076  40.800  51.171  1.00  0.00     0.001 C 
HETATM   11  C   UNL     1      26.903  42.302  50.952  1.00  0.00     0.010 C 
ENDROOT
BRANCH   2  12
HETATM   12  C   UNL     1      22.835  44.287  49.870  1.00  0.00     0.338 C 
BRANCH  12  13
HETATM   13  C   UNL     1      21.717  45.083  49.189  1.00  0.00     0.248 C 
HETATM   14  N   UNL     1      22.106  46.347  48.797  1.00  0.00    -0.319 N 
HETATM   15  H   UNL     1      23.093  46.605  48.836  1.00  0.00     0.169 HD
HETATM   16  O   UNL     1      20.606  44.565  49.108  1.00  0.00    -0.271 OA
BRANCH  14  17
HETATM   17  C   UNL     1      21.288  47.367  48.321  1.00  0.00     0.094 A 
HETATM   18  S   UNL     1      21.076  48.806  49.190  1.00  0.00    -0.075 SA
HETATM   19  C   UNL     1      20.065  49.459  48.000  1.00  0.00    -0.008 A 
HETATM   20  C   UNL     1      19.893  48.613  46.919  1.00  0.00    -0.026 A 
HETATM   21  C   UNL     1      19.478  50.832  48.137  1.00  0.00     0.047 C 
HETATM   22  C   UNL     1      19.040  49.018  45.746  1.00  0.00     0.041 C 
HETATM   23  C   UNL     1      20.594  47.358  47.112  1.00  0.00     0.080 A 
HETATM   24  C   UNL     1      18.732  50.525  45.738  1.00  0.00     0.005 C 
HETATM   25  C   UNL     1      18.341  51.034  47.130  1.00  0.00     0.005 C 
BRANCH  23  26
HETATM   26  C   UNL     1      20.638  46.193  46.220  1.00  0.00     0.296 C 
HETATM   27  O   UNL     1      19.641  45.505  46.003  1.00  0.00    -0.259 OA
BRANCH  26  28
HETATM   28  O   UNL     1      21.860  45.971  45.667  1.00  0.00    -0.322 OA
HETATM   29  C   UNL     1      21.833  45.410  44.354  1.00  0.00     0.213 C 
ENDBRANCH  26  28
ENDBRANCH  23  26
ENDBRANCH  14  17
ENDBRANCH  12  13
ENDBRANCH   2  12
BRANCH   1  30
HETATM   30  C   UNL     1      25.623  45.090  51.097  1.00  0.00     0.006 A 
HETATM   31  C   UNL     1      26.039  46.433  50.985  1.00  0.00     0.077 A 
HETATM   32  C   UNL     1      26.089  47.243  52.129  1.00  0.00     0.037 A 
HETATM   33  C   UNL     1      25.766  46.728  53.384  1.00  0.00     0.003 A 
HETATM   34  C   UNL     1      25.390  45.398  53.513  1.00  0.00     0.001 A 
HETATM   35  C   UNL     1      25.320  44.588  52.383  1.00  0.00     0.012 A 
BRANCH  31  36
HETATM   36  O   UNL     1      26.377  46.873  49.731  1.00  0.00    -0.351 OA
BRANCH  36  37
HETATM   37  C   UNL     1      26.269  48.279  49.479  1.00  0.00     0.171 C 
HETATM   38  C   UNL     1      27.642  48.790  49.082  1.00  0.00     0.034 C 
ENDBRANCH  36  37
ENDBRANCH  31  36
ENDBRANCH   1  30
BRANCH   6  39
HETATM   39  O   UNL     1      26.703  42.311  48.037  1.00  0.00    -0.389 OA
HETATM   40  H   UNL     1      26.518  42.138  47.093  1.00  0.00     0.210 HD
ENDBRANCH   6  39
TORSDOF 9
ENDMDL
MODEL 10
REMARK VINA RESULT:      -8.0      2.985      4.744
REMARK  9 active torsions:
REMARK  status: ('A' for Active; 'I' for Inactive)
REMARK    1  A    between atoms: C_2  and  O_3 
REMARK    2  A    between atoms: O_3  and  C_4 
REMARK    3  A    between atoms: C_5  and  C_6 
REMARK    4  A    between atoms: N_7  and  C_9 
REMARK    5  A    between atoms: C_9  and  C_10 
REMARK       I    between atoms: C_10  and  N_11 
REMARK    6  A    between atoms: N_11  and  C_12 
REMARK    7  A    between atoms: C_20  and  C_21 
REMARK    8  A    between atoms: C_21  and  O_22 
REMARK    9  A    between atoms: C_28  and  O_29 
ROOT
HETATM    1  C   UNL     1      17.357  50.247  46.420  1.00  0.00     0.231 C 
HETATM    2  N   UNL     1      17.704  48.771  46.215  1.00  0.00    -0.054 N 
HETATM    3  H   UNL     1      17.507  48.303  47.113  1.00  0.00     0.281 HD
HETATM    4  C   UNL     1      16.764  48.118  45.228  1.00  0.00     0.239 C 
HETATM    5  C   UNL     1      16.809  48.834  43.885  1.00  0.00     0.066 C 
HETATM    6  C   UNL     1      16.459  50.314  44.040  1.00  0.00     0.065 C 
HETATM    7  C   UNL     1      17.404  50.999  45.061  1.00  0.00     0.055 C 
HETATM    8  C   UNL     1      16.508  51.039  42.685  1.00  0.00     0.038 C 
HETATM    9  C   UNL     1      16.160  52.522  42.822  1.00  0.00     0.003 C 
HETATM   10  C   UNL     1      17.040  53.211  43.859  1.00  0.00     0.001 C 
HETATM   11  C   UNL     1      17.023  52.490  45.205  1.00  0.00     0.010 C 
ENDROOT
BRANCH   2  12
HETATM   12  C   UNL     1      19.181  48.440  45.978  1.00  0.00     0.338 C 
BRANCH  12  13
HETATM   13  C   UNL     1      19.813  47.748  47.190  1.00  0.00     0.248 C 
HETATM   14  N   UNL     1      21.182  47.900  47.255  1.00  0.00    -0.319 N 
HETATM   15  H   UNL     1      21.647  48.555  46.623  1.00  0.00     0.169 HD
HETATM   16  O   UNL     1      19.079  47.099  47.932  1.00  0.00    -0.271 OA
BRANCH  14  17
HETATM   17  C   UNL     1      22.059  47.253  48.120  1.00  0.00     0.094 A 
HETATM   18  S   UNL     1      21.974  45.579  48.372  1.00  0.00    -0.075 SA
HETATM   19  C   UNL     1      23.297  45.602  49.430  1.00  0.00    -0.008 A 
HETATM   20  C   UNL     1      23.836  46.865  49.587  1.00  0.00    -0.026 A 
HETATM   21  C   UNL     1      23.811  44.346  50.066  1.00  0.00     0.047 C 
HETATM   22  C   UNL     1      25.032  47.092  50.476  1.00  0.00     0.041 C 
HETATM   23  C   UNL     1      23.093  47.856  48.834  1.00  0.00     0.080 A 
HETATM   24  C   UNL     1      25.746  45.781  50.842  1.00  0.00     0.005 C 
HETATM   25  C   UNL     1      24.754  44.679  51.229  1.00  0.00     0.005 C 
BRANCH  23  26
HETATM   26  C   UNL     1      23.322  49.304  48.761  1.00  0.00     0.296 C 
HETATM   27  O   UNL     1      22.969  50.063  49.662  1.00  0.00    -0.259 OA
BRANCH  26  28
HETATM   28  O   UNL     1      23.958  49.702  47.627  1.00  0.00    -0.322 OA
HETATM   29  C   UNL     1      25.323  50.082  47.805  1.00  0.00     0.213 C 
ENDBRANCH  26  28
ENDBRANCH  23  26
ENDBRANCH  14  17
ENDBRANCH  12  13
ENDBRANCH   2  12
BRANCH   1  30
HETATM   30  C   UNL     1      18.060  50.888  47.612  1.00  0.00     0.006 A 
HETATM   31  C   UNL     1      17.424  51.234  48.823  1.00  0.00     0.077 A 
HETATM   32  C   UNL     1      18.183  51.734  49.889  1.00  0.00     0.037 A 
HETATM   33  C   UNL     1      19.558  51.927  49.758  1.00  0.00     0.003 A 
HETATM   34  C   UNL     1      20.191  51.626  48.561  1.00  0.00     0.001 A 
HETATM   35  C   UNL     1      19.451  51.112  47.499  1.00  0.00     0.012 A 
BRANCH  31  36
HETATM   36  O   UNL     1      16.065  51.054  48.879  1.00  0.00    -0.351 OA
BRANCH  36  37
HETATM   37  C   UNL     1      15.299  52.060  49.554  1.00  0.00     0.171 C 
HETATM   38  C   UNL     1      14.979  53.154  48.552  1.00  0.00     0.034 C 
ENDBRANCH  36  37
ENDBRANCH  31  36
ENDBRANCH   1  30
BRANCH   6  39
HETATM   39  O   UNL     1      15.122  50.369  44.555  1.00  0.00    -0.389 OA
HETATM   40  H   UNL     1      15.132  50.791  45.436  1.00  0.00     0.210 HD
ENDBRANCH   6  39
TORSDOF 9
ENDMDL
