MODEL 1
REMARK VINA RESULT:      -8.9      0.000      0.000
REMARK  9 active torsions:
REMARK  status: ('A' for Active; 'I' for Inactive)
REMARK    1  A    between atoms: C_4  and  C_5 
REMARK    2  A    between atoms: C_11  and  C_12 
REMARK    3  A    between atoms: C_15  and  C_16 
REMARK    4  A    between atoms: C_16  and  N_17 
REMARK    5  A    between atoms: N_17  and  C_18 
REMARK    6  A    between atoms: C_18  and  N_19 
REMARK    7  A    between atoms: N_19  and  C_20 
REMARK    8  A    between atoms: C_22  and  C_23 
REMARK    9  A    between atoms: C_23  and  O_24 
ROOT
HETATM    1  C   UNL     1      26.013  42.627  51.092  1.00  0.00     0.067 C 
HETATM    2  C   UNL     1      26.375  43.177  49.684  1.00  0.00     0.001 C 
HETATM    3  C   UNL     1      26.423  44.723  49.687  1.00  0.00     0.040 C 
HETATM    4  C   UNL     1      25.039  45.307  50.008  1.00  0.00     0.206 C 
HETATM    5  N   UNL     1      24.137  44.147  50.444  1.00  0.00    -0.065 N 
HETATM    6  H   UNL     1      23.243  44.538  50.772  1.00  0.00     0.280 HD
HETATM    7  C   UNL     1      24.726  43.327  51.581  1.00  0.00     0.246 C 
HETATM    8  C   UNL     1      25.237  42.759  48.723  1.00  0.00     0.033 C 
HETATM    9  C   UNL     1      23.881  43.245  49.249  1.00  0.00     0.236 C 
ENDROOT
BRANCH   4  10
HETATM   10  C   UNL     1      25.021  46.484  51.005  1.00  0.00     0.155 C 
BRANCH  10  11
HETATM   11  N   UNL     1      25.967  47.554  50.711  1.00  0.00    -0.365 N 
HETATM   12  H   UNL     1      26.872  47.501  51.164  1.00  0.00     0.161 HD
BRANCH  11  13
HETATM   13  C   UNL     1      25.995  48.296  49.560  1.00  0.00     0.172 C 
HETATM   14  S   UNL     1      27.339  49.125  49.022  1.00  0.00    -0.041 SA
BRANCH  13  15
HETATM   15  N   UNL     1      24.881  48.228  48.767  1.00  0.00    -0.333 N 
HETATM   16  H   UNL     1      24.929  47.517  48.041  1.00  0.00     0.168 HD
BRANCH  15  17
HETATM   17  C   UNL     1      23.743  49.067  48.726  1.00  0.00     0.035 A 
HETATM   18  C   UNL     1      22.438  48.583  48.840  1.00  0.00     0.047 A 
HETATM   19  C   UNL     1      21.336  49.442  48.737  1.00  0.00     0.041 A 
HETATM   20  C   UNL     1      21.539  50.812  48.584  1.00  0.00     0.018 A 
HETATM   21  C   UNL     1      22.843  51.313  48.535  1.00  0.00     0.003 A 
HETATM   22  C   UNL     1      23.939  50.444  48.610  1.00  0.00     0.029 A 
BRANCH  19  23
HETATM   23  C   UNL     1      19.991  48.813  48.754  1.00  0.00     0.293 C 
HETATM   24  O   UNL     1      19.319  48.676  47.740  1.00  0.00    -0.259 OA
BRANCH  23  25
HETATM   25  O   UNL     1      19.660  48.421  50.004  1.00  0.00    -0.323 OA
HETATM   26  C   UNL     1      18.841  49.358  50.709  1.00  0.00     0.213 C 
ENDBRANCH  23  25
ENDBRANCH  19  23
ENDBRANCH  15  17
ENDBRANCH  13  15
ENDBRANCH  11  13
ENDBRANCH  10  11
ENDBRANCH   4  10
BRANCH   1  27
HETATM   27  C   UNL     1      27.126  42.681  52.104  1.00  0.00     0.038 A 
HETATM   28  N   UNL     1      28.157  41.763  52.146  1.00  0.00    -0.277 N 
HETATM   29  C   UNL     1      28.395  40.631  51.278  1.00  0.00     0.179 C 
HETATM   30  N   UNL     1      29.034  41.989  53.131  1.00  0.00    -0.172 NA
HETATM   31  C   UNL     1      28.644  43.140  53.683  1.00  0.00     0.096 A 
HETATM   32  C   UNL     1      27.446  43.600  53.090  1.00  0.00     0.062 A 
BRANCH  31  33
HETATM   33  C   UNL     1      29.437  43.810  54.764  1.00  0.00     0.035 A 
HETATM   34  S   UNL     1      29.081  45.349  55.416  1.00  0.00    -0.100 SA
HETATM   35  C   UNL     1      30.444  45.297  56.449  1.00  0.00     0.050 A 
HETATM   36  C   UNL     1      31.155  44.125  56.307  1.00  0.00     0.008 A 
HETATM   37  C   UNL     1      30.566  43.261  55.338  1.00  0.00     0.022 A 
ENDBRANCH  31  33
ENDBRANCH   1  27
TORSDOF 9
ENDMDL
MODEL 2
REMARK VINA RESULT:      -8.7      1.792      2.335
REMARK  9 active torsions:
REMARK  status: ('A' for Active; 'I' for Inactive)
REMARK    1  A    between atoms: C_4  and  C_5 
REMARK    2  A    between atoms: C_11  and  C_12 
REMARK    3  A    between atoms: C_15  and  C_16 
REMARK    4  A    between atoms: C_16  and  N_17 
REMARK    5  A    between atoms: N_17  and  C_18 
REMARK    6  A    between atoms: C_18  and  N_19 
REMARK    7  A    between atoms: N_19  and  C_20 
REMARK    8  A    between atoms: C_22  and  C_23 
REMARK    9  A    between atoms: C_23  and  O_24 
ROOT
HETATM    1  C   UNL     1      26.086  44.106  52.656  1.00  0.00     0.067 C 
HETATM    2  C   UNL     1      26.576  43.552  51.289  1.00  0.00     0.001 C 
HETATM    3  C   UNL     1      27.055  44.696  50.365  1.00  0.00     0.040 C 
HETATM    4  C   UNL     1      25.892  45.642  50.027  1.00  0.00     0.206 C 
HETATM    5  N   UNL     1      24.706  45.251  50.915  1.00  0.00    -0.065 N 
HETATM    6  H   UNL     1      23.958  45.947  50.783  1.00  0.00     0.280 HD
HETATM    7  C   UNL     1      25.050  45.221  52.395  1.00  0.00     0.246 C 
HETATM    8  C   UNL     1      25.360  42.890  50.600  1.00  0.00     0.033 C 
HETATM    9  C   UNL     1      24.197  43.885  50.486  1.00  0.00     0.236 C 
ENDROOT
BRANCH   4  10
HETATM   10  C   UNL     1      26.212  47.149  50.090  1.00  0.00     0.155 C 
BRANCH  10  11
HETATM   11  N   UNL     1      25.089  48.029  49.789  1.00  0.00    -0.365 N 
HETATM   12  H   UNL     1      24.419  48.186  50.533  1.00  0.00     0.161 HD
BRANCH  11  13
HETATM   13  C   UNL     1      25.095  49.038  48.862  1.00  0.00     0.172 C 
HETATM   14  S   UNL     1      26.474  49.836  48.369  1.00  0.00    -0.041 SA
BRANCH  13  15
HETATM   15  N   UNL     1      23.906  49.290  48.233  1.00  0.00    -0.333 N 
HETATM   16  H   UNL     1      23.988  49.438  47.229  1.00  0.00     0.168 HD
BRANCH  15  17
HETATM   17  C   UNL     1      22.617  49.499  48.777  1.00  0.00     0.035 A 
HETATM   18  C   UNL     1      21.605  48.539  48.724  1.00  0.00     0.047 A 
HETATM   19  C   UNL     1      20.325  48.807  49.225  1.00  0.00     0.041 A 
HETATM   20  C   UNL     1      20.068  50.028  49.848  1.00  0.00     0.018 A 
HETATM   21  C   UNL     1      21.094  50.970  49.964  1.00  0.00     0.003 A 
HETATM   22  C   UNL     1      22.363  50.704  49.434  1.00  0.00     0.029 A 
BRANCH  19  23
HETATM   23  C   UNL     1      19.289  47.764  49.015  1.00  0.00     0.293 C 
HETATM   24  O   UNL     1      19.562  46.572  48.957  1.00  0.00    -0.259 OA
BRANCH  23  25
HETATM   25  O   UNL     1      18.060  48.319  48.923  1.00  0.00    -0.323 OA
HETATM   26  C   UNL     1      16.989  47.378  49.021  1.00  0.00     0.213 C 
ENDBRANCH  23  25
ENDBRANCH  19  23
ENDBRANCH  15  17
ENDBRANCH  13  15
ENDBRANCH  11  13
ENDBRANCH  10  11
ENDBRANCH   4  10
BRANCH   1  27
HETATM   27  C   UNL     1      27.177  44.532  53.600  1.00  0.00     0.038 A 
HETATM   28  N   UNL     1      27.351  45.836  54.019  1.00  0.00    -0.277 N 
HETATM   29  C   UNL     1      26.567  47.005  53.683  1.00  0.00     0.179 C 
HETATM   30  N   UNL     1      28.388  45.999  54.849  1.00  0.00    -0.172 NA
HETATM   31  C   UNL     1      28.843  44.764  55.076  1.00  0.00     0.096 A 
HETATM   32  C   UNL     1      28.134  43.817  54.303  1.00  0.00     0.062 A 
BRANCH  31  33
HETATM   33  C   UNL     1      29.945  44.494  56.056  1.00  0.00     0.035 A 
HETATM   34  S   UNL     1      30.271  45.448  57.436  1.00  0.00    -0.100 SA
HETATM   35  C   UNL     1      31.619  44.483  57.862  1.00  0.00     0.050 A 
HETATM   36  C   UNL     1      31.814  43.447  56.975  1.00  0.00     0.008 A 
HETATM   37  C   UNL     1      30.839  43.449  55.934  1.00  0.00     0.022 A 
ENDBRANCH  31  33
ENDBRANCH   1  27
TORSDOF 9
ENDMDL
MODEL 3
REMARK VINA RESULT:      -8.4      3.922      8.581
REMARK  9 active torsions:
REMARK  status: ('A' for Active; 'I' for Inactive)
REMARK    1  A    between atoms: C_4  and  C_5 
REMARK    2  A    between atoms: C_11  and  C_12 
REMARK    3  A    between atoms: C_15  and  C_16 
REMARK    4  A    between atoms: C_16  and  N_17 
REMARK    5  A    between atoms: N_17  and  C_18 
REMARK    6  A    between atoms: C_18  and  N_19 
REMARK    7  A    between atoms: N_19  and  C_20 
REMARK    8  A    between atoms: C_22  and  C_23 
REMARK    9  A    between atoms: C_23  and  O_24 
ROOT
HETATM    1  C   UNL     1      19.204  49.141  48.801  1.00  0.00     0.067 C 
HETATM    2  C   UNL     1      19.527  50.011  47.554  1.00  0.00     0.001 C 
HETATM    3  C   UNL     1      21.037  50.340  47.482  1.00  0.00     0.040 C 
HETATM    4  C   UNL     1      21.464  51.187  48.690  1.00  0.00     0.206 C 
HETATM    5  N   UNL     1      20.288  51.217  49.673  1.00  0.00    -0.065 N 
HETATM    6  H   UNL     1      20.600  51.684  50.537  1.00  0.00     0.280 HD
HETATM    7  C   UNL     1      19.790  49.832  50.052  1.00  0.00     0.246 C 
HETATM    8  C   UNL     1      18.776  51.352  47.725  1.00  0.00     0.033 C 
HETATM    9  C   UNL     1      19.150  52.014  49.057  1.00  0.00     0.236 C 
ENDROOT
BRANCH   4  10
HETATM   10  C   UNL     1      22.791  50.779  49.362  1.00  0.00     0.155 C 
BRANCH  10  11
HETATM   11  N   UNL     1      23.835  50.340  48.443  1.00  0.00    -0.365 N 
HETATM   12  H   UNL     1      24.155  51.016  47.758  1.00  0.00     0.161 HD
BRANCH  11  13
HETATM   13  C   UNL     1      24.766  49.369  48.702  1.00  0.00     0.172 C 
HETATM   14  S   UNL     1      26.410  49.585  48.512  1.00  0.00    -0.041 SA
BRANCH  13  15
HETATM   15  N   UNL     1      24.297  48.215  49.270  1.00  0.00    -0.333 N 
HETATM   16  H   UNL     1      23.300  48.060  49.135  1.00  0.00     0.168 HD
BRANCH  15  17
HETATM   17  C   UNL     1      24.952  47.285  50.110  1.00  0.00     0.035 A 
HETATM   18  C   UNL     1      25.060  47.455  51.492  1.00  0.00     0.047 A 
HETATM   19  C   UNL     1      25.766  46.539  52.281  1.00  0.00     0.041 A 
HETATM   20  C   UNL     1      26.317  45.401  51.693  1.00  0.00     0.018 A 
HETATM   21  C   UNL     1      26.157  45.190  50.321  1.00  0.00     0.003 A 
HETATM   22  C   UNL     1      25.474  46.126  49.535  1.00  0.00     0.029 A 
BRANCH  19  23
HETATM   23  C   UNL     1      25.922  46.871  53.719  1.00  0.00     0.293 C 
HETATM   24  O   UNL     1      25.574  47.948  54.184  1.00  0.00    -0.259 OA
BRANCH  23  25
HETATM   25  O   UNL     1      26.466  45.834  54.396  1.00  0.00    -0.323 OA
HETATM   26  C   UNL     1      27.662  46.166  55.105  1.00  0.00     0.213 C 
ENDBRANCH  23  25
ENDBRANCH  19  23
ENDBRANCH  15  17
ENDBRANCH  13  15
ENDBRANCH  11  13
ENDBRANCH  10  11
ENDBRANCH   4  10
BRANCH   1  27
HETATM   27  C   UNL     1      19.607  47.695  48.692  1.00  0.00     0.038 A 
HETATM   28  N   UNL     1      18.715  46.679  48.410  1.00  0.00    -0.277 N 
HETATM   29  C   UNL     1      17.294  46.768  48.157  1.00  0.00     0.179 C 
HETATM   30  N   UNL     1      19.280  45.467  48.370  1.00  0.00    -0.172 NA
HETATM   31  C   UNL     1      20.589  45.692  48.514  1.00  0.00     0.096 A 
HETATM   32  C   UNL     1      20.840  47.064  48.739  1.00  0.00     0.062 A 
BRANCH  31  33
HETATM   33  C   UNL     1      21.599  44.589  48.411  1.00  0.00     0.035 A 
HETATM   34  S   UNL     1      22.006  43.780  46.962  1.00  0.00    -0.100 SA
HETATM   35  C   UNL     1      23.099  42.742  47.775  1.00  0.00     0.050 A 
HETATM   36  C   UNL     1      23.160  43.012  49.124  1.00  0.00     0.008 A 
HETATM   37  C   UNL     1      22.298  44.087  49.491  1.00  0.00     0.022 A 
ENDBRANCH  31  33
ENDBRANCH   1  27
TORSDOF 9
ENDMDL
MODEL 4
REMARK VINA RESULT:      -8.3      2.380      3.657
REMARK  9 active torsions:
REMARK  status: ('A' for Active; 'I' for Inactive)
REMARK    1  A    between atoms: C_4  and  C_5 
REMARK    2  A    between atoms: C_11  and  C_12 
REMARK    3  A    between atoms: C_15  and  C_16 
REMARK    4  A    between atoms: C_16  and  N_17 
REMARK    5  A    between atoms: N_17  and  C_18 
REMARK    6  A    between atoms: C_18  and  N_19 
REMARK    7  A    between atoms: N_19  and  C_20 
REMARK    8  A    between atoms: C_22  and  C_23 
REMARK    9  A    between atoms: C_23  and  O_24 
ROOT
HETATM    1  C   UNL     1      27.200  40.769  51.015  1.00  0.00     0.067 C 
HETATM    2  C   UNL     1      27.981  41.005  49.692  1.00  0.00     0.001 C 
HETATM    3  C   UNL     1      27.325  42.126  48.852  1.00  0.00     0.040 C 
HETATM    4  C   UNL     1      25.907  41.719  48.420  1.00  0.00     0.206 C 
HETATM    5  N   UNL     1      25.546  40.432  49.171  1.00  0.00    -0.065 N 
HETATM    6  H   UNL     1      24.559  40.212  48.980  1.00  0.00     0.280 HD
HETATM    7  C   UNL     1      25.708  40.554  50.678  1.00  0.00     0.246 C 
HETATM    8  C   UNL     1      27.886  39.701  48.866  1.00  0.00     0.033 C 
HETATM    9  C   UNL     1      26.420  39.300  48.658  1.00  0.00     0.236 C 
ENDROOT
BRANCH   4  10
HETATM   10  C   UNL     1      24.825  42.810  48.553  1.00  0.00     0.155 C 
BRANCH  10  11
HETATM   11  N   UNL     1      25.336  44.162  48.743  1.00  0.00    -0.365 N 
HETATM   12  H   UNL     1      25.491  44.714  47.907  1.00  0.00     0.161 HD
BRANCH  11  13
HETATM   13  C   UNL     1      25.145  44.935  49.858  1.00  0.00     0.172 C 
HETATM   14  S   UNL     1      23.955  44.651  50.992  1.00  0.00    -0.041 SA
BRANCH  13  15
HETATM   15  N   UNL     1      26.082  45.906  50.090  1.00  0.00    -0.333 N 
HETATM   16  H   UNL     1      26.773  45.660  50.795  1.00  0.00     0.168 HD
BRANCH  15  17
HETATM   17  C   UNL     1      26.159  47.229  49.597  1.00  0.00     0.035 A 
HETATM   18  C   UNL     1      25.030  48.006  49.327  1.00  0.00     0.047 A 
HETATM   19  C   UNL     1      25.148  49.293  48.785  1.00  0.00     0.041 A 
HETATM   20  C   UNL     1      26.413  49.838  48.570  1.00  0.00     0.018 A 
HETATM   21  C   UNL     1      27.548  49.093  48.899  1.00  0.00     0.003 A 
HETATM   22  C   UNL     1      27.421  47.797  49.413  1.00  0.00     0.029 A 
BRANCH  19  23
HETATM   23  C   UNL     1      23.887  49.988  48.426  1.00  0.00     0.293 C 
HETATM   24  O   UNL     1      23.673  50.417  47.299  1.00  0.00    -0.259 OA
BRANCH  23  25
HETATM   25  O   UNL     1      23.052  50.049  49.487  1.00  0.00    -0.323 OA
HETATM   26  C   UNL     1      21.919  50.897  49.288  1.00  0.00     0.213 C 
ENDBRANCH  23  25
ENDBRANCH  19  23
ENDBRANCH  15  17
ENDBRANCH  13  15
ENDBRANCH  11  13
ENDBRANCH  10  11
ENDBRANCH   4  10
BRANCH   1  27
HETATM   27  C   UNL     1      27.413  41.815  52.077  1.00  0.00     0.038 A 
HETATM   28  N   UNL     1      28.113  41.579  53.243  1.00  0.00    -0.277 N 
HETATM   29  C   UNL     1      28.771  40.365  53.672  1.00  0.00     0.179 C 
HETATM   30  N   UNL     1      28.174  42.641  54.055  1.00  0.00    -0.172 NA
HETATM   31  C   UNL     1      27.602  43.633  53.368  1.00  0.00     0.096 A 
HETATM   32  C   UNL     1      27.092  43.161  52.136  1.00  0.00     0.062 A 
BRANCH  31  33
HETATM   33  C   UNL     1      27.568  45.039  53.885  1.00  0.00     0.035 A 
HETATM   34  S   UNL     1      28.652  45.672  55.045  1.00  0.00    -0.100 SA
HETATM   35  C   UNL     1      27.862  47.191  55.047  1.00  0.00     0.050 A 
HETATM   36  C   UNL     1      26.796  47.219  54.174  1.00  0.00     0.008 A 
HETATM   37  C   UNL     1      26.632  45.976  53.496  1.00  0.00     0.022 A 
ENDBRANCH  31  33
ENDBRANCH   1  27
TORSDOF 9
ENDMDL
MODEL 5
REMARK VINA RESULT:      -8.2      1.908      2.507
REMARK  9 active torsions:
REMARK  status: ('A' for Active; 'I' for Inactive)
REMARK    1  A    between atoms: C_4  and  C_5 
REMARK    2  A    between atoms: C_11  and  C_12 
REMARK    3  A    between atoms: C_15  and  C_16 
REMARK    4  A    between atoms: C_16  and  N_17 
REMARK    5  A    between atoms: N_17  and  C_18 
REMARK    6  A    between atoms: C_18  and  N_19 
REMARK    7  A    between atoms: N_19  and  C_20 
REMARK    8  A    between atoms: C_22  and  C_23 
REMARK    9  A    between atoms: C_23  and  O_24 
ROOT
HETATM    1  C   UNL     1      26.643  43.547  51.921  1.00  0.00     0.067 C 
HETATM    2  C   UNL     1      27.242  43.789  50.508  1.00  0.00     0.001 C 
HETATM    3  C   UNL     1      27.079  45.266  50.080  1.00  0.00     0.040 C 
HETATM    4  C   UNL     1      25.592  45.633  49.958  1.00  0.00     0.206 C 
HETATM    5  N   UNL     1      24.780  44.466  50.532  1.00  0.00    -0.065 N 
HETATM    6  H   UNL     1      23.789  44.746  50.563  1.00  0.00     0.280 HD
HETATM    7  C   UNL     1      25.195  44.085  51.943  1.00  0.00     0.246 C 
HETATM    8  C   UNL     1      26.425  42.933  49.512  1.00  0.00     0.033 C 
HETATM    9  C   UNL     1      24.931  43.263  49.617  1.00  0.00     0.236 C 
ENDROOT
BRANCH   4  10
HETATM   10  C   UNL     1      25.185  46.994  50.559  1.00  0.00     0.155 C 
BRANCH  10  11
HETATM   11  N   UNL     1      25.361  48.136  49.669  1.00  0.00    -0.365 N 
HETATM   12  H   UNL     1      26.205  48.152  49.108  1.00  0.00     0.161 HD
BRANCH  11  13
HETATM   13  C   UNL     1      24.350  48.883  49.124  1.00  0.00     0.172 C 
HETATM   14  S   UNL     1      24.593  50.107  48.018  1.00  0.00    -0.041 SA
BRANCH  13  15
HETATM   15  N   UNL     1      23.074  48.489  49.428  1.00  0.00    -0.333 N 
HETATM   16  H   UNL     1      23.018  47.781  50.157  1.00  0.00     0.168 HD
BRANCH  15  17
HETATM   17  C   UNL     1      21.849  48.820  48.804  1.00  0.00     0.035 A 
HETATM   18  C   UNL     1      21.154  50.001  49.073  1.00  0.00     0.047 A 
HETATM   19  C   UNL     1      19.915  50.265  48.475  1.00  0.00     0.041 A 
HETATM   20  C   UNL     1      19.392  49.368  47.545  1.00  0.00     0.018 A 
HETATM   21  C   UNL     1      20.112  48.215  47.220  1.00  0.00     0.003 A 
HETATM   22  C   UNL     1      21.337  47.946  47.844  1.00  0.00     0.029 A 
BRANCH  19  23
HETATM   23  C   UNL     1      19.203  51.490  48.917  1.00  0.00     0.293 C 
HETATM   24  O   UNL     1      19.463  52.597  48.464  1.00  0.00    -0.259 OA
BRANCH  23  25
HETATM   25  O   UNL     1      18.259  51.192  49.837  1.00  0.00    -0.323 OA
HETATM   26  C   UNL     1      17.177  52.125  49.882  1.00  0.00     0.213 C 
ENDBRANCH  23  25
ENDBRANCH  19  23
ENDBRANCH  15  17
ENDBRANCH  13  15
ENDBRANCH  11  13
ENDBRANCH  10  11
ENDBRANCH   4  10
BRANCH   1  27
HETATM   27  C   UNL     1      27.474  44.064  53.064  1.00  0.00     0.038 A 
HETATM   28  N   UNL     1      27.192  45.236  53.737  1.00  0.00    -0.277 N 
HETATM   29  C   UNL     1      26.100  46.160  53.525  1.00  0.00     0.179 C 
HETATM   30  N   UNL     1      28.064  45.517  54.712  1.00  0.00    -0.172 NA
HETATM   31  C   UNL     1      28.876  44.457  54.764  1.00  0.00     0.096 A 
HETATM   32  C   UNL     1      28.561  43.534  53.741  1.00  0.00     0.062 A 
BRANCH  31  33
HETATM   33  C   UNL     1      29.938  44.322  55.813  1.00  0.00     0.035 A 
HETATM   34  S   UNL     1      30.199  45.441  57.078  1.00  0.00    -0.100 SA
HETATM   35  C   UNL     1      31.536  44.553  57.672  1.00  0.00     0.050 A 
HETATM   36  C   UNL     1      31.775  43.419  56.927  1.00  0.00     0.008 A 
HETATM   37  C   UNL     1      30.844  43.282  55.856  1.00  0.00     0.022 A 
ENDBRANCH  31  33
ENDBRANCH   1  27
TORSDOF 9
ENDMDL
MODEL 6
REMARK VINA RESULT:      -8.2      3.647      5.310
REMARK  9 active torsions:
REMARK  status: ('A' for Active; 'I' for Inactive)
REMARK    1  A    between atoms: C_4  and  C_5 
REMARK    2  A    between atoms: C_11  and  C_12 
REMARK    3  A    between atoms: C_15  and  C_16 
REMARK    4  A    between atoms: C_16  and  N_17 
REMARK    5  A    between atoms: N_17  and  C_18 
REMARK    6  A    between atoms: C_18  and  N_19 
REMARK    7  A    between atoms: N_19  and  C_20 
REMARK    8  A    between atoms: C_22  and  C_23 
REMARK    9  A    between atoms: C_23  and  O_24 
ROOT
HETATM    1  C   UNL     1      27.884  39.162  48.827  1.00  0.00     0.067 C 
HETATM    2  C   UNL     1      27.992  40.168  47.647  1.00  0.00     0.001 C 
HETATM    3  C   UNL     1      26.869  41.228  47.715  1.00  0.00     0.040 C 
HETATM    4  C   UNL     1      25.490  40.567  47.561  1.00  0.00     0.206 C 
HETATM    5  N   UNL     1      25.695  39.050  47.625  1.00  0.00    -0.065 N 
HETATM    6  H   UNL     1      24.770  38.598  47.639  1.00  0.00     0.280 HD
HETATM    7  C   UNL     1      26.446  38.599  48.868  1.00  0.00     0.246 C 
HETATM    8  C   UNL     1      27.781  39.365  46.341  1.00  0.00     0.033 C 
HETATM    9  C   UNL     1      26.452  38.601  46.386  1.00  0.00     0.236 C 
ENDROOT
BRANCH   4  10
HETATM   10  C   UNL     1      24.396  41.062  48.530  1.00  0.00     0.155 C 
BRANCH  10  11
HETATM   11  N   UNL     1      24.887  41.807  49.683  1.00  0.00    -0.365 N 
HETATM   12  H   UNL     1      25.893  41.886  49.782  1.00  0.00     0.161 HD
BRANCH  11  13
HETATM   13  C   UNL     1      24.213  42.811  50.327  1.00  0.00     0.172 C 
HETATM   14  S   UNL     1      22.685  43.325  49.899  1.00  0.00    -0.041 SA
BRANCH  13  15
HETATM   15  N   UNL     1      24.801  43.308  51.459  1.00  0.00    -0.333 N 
HETATM   16  H   UNL     1      24.886  42.633  52.216  1.00  0.00     0.168 HD
BRANCH  15  17
HETATM   17  C   UNL     1      25.188  44.631  51.775  1.00  0.00     0.035 A 
HETATM   18  C   UNL     1      25.298  45.639  50.815  1.00  0.00     0.047 A 
HETATM   19  C   UNL     1      25.740  46.923  51.161  1.00  0.00     0.041 A 
HETATM   20  C   UNL     1      26.013  47.224  52.494  1.00  0.00     0.018 A 
HETATM   21  C   UNL     1      25.843  46.239  53.471  1.00  0.00     0.003 A 
HETATM   22  C   UNL     1      25.429  44.950  53.112  1.00  0.00     0.029 A 
BRANCH  19  23
HETATM   23  C   UNL     1      25.934  47.889  50.050  1.00  0.00     0.293 C 
HETATM   24  O   UNL     1      25.033  48.614  49.648  1.00  0.00    -0.259 OA
BRANCH  23  25
HETATM   25  O   UNL     1      27.206  47.848  49.595  1.00  0.00    -0.323 OA
HETATM   26  C   UNL     1      27.688  49.102  49.106  1.00  0.00     0.213 C 
ENDBRANCH  23  25
ENDBRANCH  19  23
ENDBRANCH  15  17
ENDBRANCH  13  15
ENDBRANCH  11  13
ENDBRANCH  10  11
ENDBRANCH   4  10
BRANCH   1  27
HETATM   27  C   UNL     1      28.342  39.691  50.160  1.00  0.00     0.038 A 
HETATM   28  N   UNL     1      29.186  38.996  51.002  1.00  0.00    -0.277 N 
HETATM   29  C   UNL     1      29.795  37.699  50.802  1.00  0.00     0.179 C 
HETATM   30  N   UNL     1      29.458  39.643  52.141  1.00  0.00    -0.172 NA
HETATM   31  C   UNL     1      28.876  40.838  52.006  1.00  0.00     0.096 A 
HETATM   32  C   UNL     1      28.149  40.908  50.795  1.00  0.00     0.062 A 
BRANCH  31  33
HETATM   33  C   UNL     1      29.039  41.920  53.030  1.00  0.00     0.035 A 
HETATM   34  S   UNL     1      27.779  42.519  54.017  1.00  0.00    -0.100 SA
HETATM   35  C   UNL     1      28.815  43.666  54.753  1.00  0.00     0.050 A 
HETATM   36  C   UNL     1      30.100  43.589  54.263  1.00  0.00     0.008 A 
HETATM   37  C   UNL     1      30.231  42.572  53.272  1.00  0.00     0.022 A 
ENDBRANCH  31  33
ENDBRANCH   1  27
TORSDOF 9
ENDMDL
MODEL 7
REMARK VINA RESULT:      -8.1      1.992      2.429
REMARK  9 active torsions:
REMARK  status: ('A' for Active; 'I' for Inactive)
REMARK    1  A    between atoms: C_4  and  C_5 
REMARK    2  A    between atoms: C_11  and  C_12 
REMARK    3  A    between atoms: C_15  and  C_16 
REMARK    4  A    between atoms: C_16  and  N_17 
REMARK    5  A    between atoms: N_17  and  C_18 
REMARK    6  A    between atoms: C_18  and  N_19 
REMARK    7  A    between atoms: N_19  and  C_20 
REMARK    8  A    between atoms: C_22  and  C_23 
REMARK    9  A    between atoms: C_23  and  O_24 
ROOT
HETATM    1  C   UNL     1      25.037  42.182  50.378  1.00  0.00     0.067 C 
HETATM    2  C   UNL     1      25.421  42.502  48.907  1.00  0.00     0.001 C 
HETATM    3  C   UNL     1      24.844  43.868  48.467  1.00  0.00     0.040 C 
HETATM    4  C   UNL     1      23.308  43.839  48.489  1.00  0.00     0.206 C 
HETATM    5  N   UNL     1      22.880  42.532  49.166  1.00  0.00    -0.065 N 
HETATM    6  H   UNL     1      21.858  42.552  49.292  1.00  0.00     0.280 HD
HETATM    7  C   UNL     1      23.508  42.334  50.536  1.00  0.00     0.246 C 
HETATM    8  C   UNL     1      24.763  41.422  48.017  1.00  0.00     0.033 C 
HETATM    9  C   UNL     1      23.251  41.366  48.265  1.00  0.00     0.236 C 
ENDROOT
BRANCH   4  10
HETATM   10  C   UNL     1      22.622  45.078  49.099  1.00  0.00     0.155 C 
BRANCH  10  11
HETATM   11  N   UNL     1      23.505  45.964  49.848  1.00  0.00    -0.365 N 
HETATM   12  H   UNL     1      24.134  45.527  50.512  1.00  0.00     0.161 HD
BRANCH  11  13
HETATM   13  C   UNL     1      23.951  47.188  49.423  1.00  0.00     0.172 C 
HETATM   14  S   UNL     1      25.438  47.826  49.829  1.00  0.00    -0.041 SA
BRANCH  13  15
HETATM   15  N   UNL     1      23.163  47.837  48.511  1.00  0.00    -0.333 N 
HETATM   16  H   UNL     1      23.307  47.541  47.548  1.00  0.00     0.168 HD
BRANCH  15  17
HETATM   17  C   UNL     1      22.282  48.929  48.687  1.00  0.00     0.035 A 
HETATM   18  C   UNL     1      21.011  48.797  49.251  1.00  0.00     0.047 A 
HETATM   19  C   UNL     1      20.147  49.895  49.357  1.00  0.00     0.041 A 
HETATM   20  C   UNL     1      20.582  51.157  48.954  1.00  0.00     0.018 A 
HETATM   21  C   UNL     1      21.876  51.310  48.449  1.00  0.00     0.003 A 
HETATM   22  C   UNL     1      22.722  50.202  48.321  1.00  0.00     0.029 A 
BRANCH  19  23
HETATM   23  C   UNL     1      18.778  49.626  49.862  1.00  0.00     0.293 C 
HETATM   24  O   UNL     1      18.145  50.449  50.509  1.00  0.00    -0.259 OA
BRANCH  23  25
HETATM   25  O   UNL     1      18.362  48.394  49.491  1.00  0.00    -0.323 OA
HETATM   26  C   UNL     1      17.190  48.398  48.674  1.00  0.00     0.213 C 
ENDBRANCH  23  25
ENDBRANCH  19  23
ENDBRANCH  15  17
ENDBRANCH  13  15
ENDBRANCH  11  13
ENDBRANCH  10  11
ENDBRANCH   4  10
BRANCH   1  27
HETATM   27  C   UNL     1      25.810  42.946  51.420  1.00  0.00     0.038 A 
HETATM   28  N   UNL     1      27.047  42.550  51.888  1.00  0.00    -0.277 N 
HETATM   29  C   UNL     1      27.835  41.401  51.500  1.00  0.00     0.179 C 
HETATM   30  N   UNL     1      27.552  43.366  52.820  1.00  0.00    -0.172 NA
HETATM   31  C   UNL     1      26.690  44.383  52.892  1.00  0.00     0.096 A 
HETATM   32  C   UNL     1      25.576  44.156  52.052  1.00  0.00     0.062 A 
BRANCH  31  33
HETATM   33  C   UNL     1      26.951  45.585  53.749  1.00  0.00     0.035 A 
HETATM   34  S   UNL     1      26.024  47.020  53.715  1.00  0.00    -0.100 SA
HETATM   35  C   UNL     1      27.023  47.769  54.885  1.00  0.00     0.050 A 
HETATM   36  C   UNL     1      28.041  46.938  55.303  1.00  0.00     0.008 A 
HETATM   37  C   UNL     1      27.992  45.671  54.651  1.00  0.00     0.022 A 
ENDBRANCH  31  33
ENDBRANCH   1  27
TORSDOF 9
ENDMDL
MODEL 8
REMARK VINA RESULT:      -8.1      4.089      7.820
REMARK  9 active torsions:
REMARK  status: ('A' for Active; 'I' for Inactive)
REMARK    1  A    between atoms: C_4  and  C_5 
REMARK    2  A    between atoms: C_11  and  C_12 
REMARK    3  A    between atoms: C_15  and  C_16 
REMARK    4  A    between atoms: C_16  and  N_17 
REMARK    5  A    between atoms: N_17  and  C_18 
REMARK    6  A    between atoms: C_18  and  N_19 
REMARK    7  A    between atoms: N_19  and  C_20 
REMARK    8  A    between atoms: C_22  and  C_23 
REMARK    9  A    between atoms: C_23  and  O_24 
ROOT
HETATM    1  C   UNL     1      21.948  49.684  48.095  1.00  0.00     0.067 C 
HETATM    2  C   UNL     1      21.271  50.776  48.970  1.00  0.00     0.001 C 
HETATM    3  C   UNL     1      20.341  50.141  50.030  1.00  0.00     0.040 C 
HETATM    4  C   UNL     1      19.185  49.388  49.353  1.00  0.00     0.206 C 
HETATM    5  N   UNL     1      19.485  49.332  47.851  1.00  0.00    -0.065 N 
HETATM    6  H   UNL     1      18.779  48.732  47.401  1.00  0.00     0.280 HD
HETATM    7  C   UNL     1      20.853  48.749  47.536  1.00  0.00     0.246 C 
HETATM    8  C   UNL     1      20.381  51.626  48.034  1.00  0.00     0.033 C 
HETATM    9  C   UNL     1      19.389  50.735  47.276  1.00  0.00     0.236 C 
ENDROOT
BRANCH   4  10
HETATM   10  C   UNL     1      18.847  48.004  49.945  1.00  0.00     0.155 C 
BRANCH  10  11
HETATM   11  N   UNL     1      17.450  47.605  49.816  1.00  0.00    -0.365 N 
HETATM   12  H   UNL     1      16.786  48.059  50.434  1.00  0.00     0.161 HD
BRANCH  11  13
HETATM   13  C   UNL     1      16.864  47.115  48.679  1.00  0.00     0.172 C 
HETATM   14  S   UNL     1      15.980  48.048  47.615  1.00  0.00    -0.041 SA
BRANCH  13  15
HETATM   15  N   UNL     1      17.149  45.814  48.363  1.00  0.00    -0.333 N 
HETATM   16  H   UNL     1      16.716  45.130  48.980  1.00  0.00     0.168 HD
BRANCH  15  17
HETATM   17  C   UNL     1      18.042  45.288  47.400  1.00  0.00     0.035 A 
HETATM   18  C   UNL     1      19.430  45.338  47.545  1.00  0.00     0.047 A 
HETATM   19  C   UNL     1      20.280  44.856  46.541  1.00  0.00     0.041 A 
HETATM   20  C   UNL     1      19.738  44.257  45.405  1.00  0.00     0.018 A 
HETATM   21  C   UNL     1      18.351  44.144  45.282  1.00  0.00     0.003 A 
HETATM   22  C   UNL     1      17.508  44.654  46.277  1.00  0.00     0.029 A 
BRANCH  19  23
HETATM   23  C   UNL     1      21.737  45.061  46.739  1.00  0.00     0.293 C 
HETATM   24  O   UNL     1      22.415  45.728  45.969  1.00  0.00    -0.259 OA
BRANCH  23  25
HETATM   25  O   UNL     1      22.161  44.440  47.862  1.00  0.00    -0.323 OA
HETATM   26  C   UNL     1      22.807  43.187  47.624  1.00  0.00     0.213 C 
ENDBRANCH  23  25
ENDBRANCH  19  23
ENDBRANCH  15  17
ENDBRANCH  13  15
ENDBRANCH  11  13
ENDBRANCH  10  11
ENDBRANCH   4  10
BRANCH   1  27
HETATM   27  C   UNL     1      23.070  48.935  48.762  1.00  0.00     0.038 A 
HETATM   28  N   UNL     1      24.390  49.335  48.702  1.00  0.00    -0.277 N 
HETATM   29  C   UNL     1      24.954  50.493  48.043  1.00  0.00     0.179 C 
HETATM   30  N   UNL     1      25.226  48.521  49.355  1.00  0.00    -0.172 NA
HETATM   31  C   UNL     1      24.438  47.627  49.956  1.00  0.00     0.096 A 
HETATM   32  C   UNL     1      23.085  47.831  49.599  1.00  0.00     0.062 A 
BRANCH  31  33
HETATM   33  C   UNL     1      24.983  46.591  50.892  1.00  0.00     0.035 A 
HETATM   34  S   UNL     1      24.707  44.911  50.747  1.00  0.00    -0.100 SA
HETATM   35  C   UNL     1      25.595  44.577  52.171  1.00  0.00     0.050 A 
HETATM   36  C   UNL     1      26.101  45.724  52.744  1.00  0.00     0.008 A 
HETATM   37  C   UNL     1      25.753  46.888  51.998  1.00  0.00     0.022 A 
ENDBRANCH  31  33
ENDBRANCH   1  27
TORSDOF 9
ENDMDL
MODEL 9
REMARK VINA RESULT:      -8.0      4.719     10.579
REMARK  9 active torsions:
REMARK  status: ('A' for Active; 'I' for Inactive)
REMARK    1  A    between atoms: C_4  and  C_5 
REMARK    2  A    between atoms: C_11  and  C_12 
REMARK    3  A    between atoms: C_15  and  C_16 
REMARK    4  A    between atoms: C_16  and  N_17 
REMARK    5  A    between atoms: N_17  and  C_18 
REMARK    6  A    between atoms: C_18  and  N_19 
REMARK    7  A    between atoms: N_19  and  C_20 
REMARK    8  A    between atoms: C_22  and  C_23 
REMARK    9  A    between atoms: C_23  and  O_24 
ROOT
HETATM    1  C   UNL     1      19.579  49.332  48.071  1.00  0.00     0.067 C 
HETATM    2  C   UNL     1      20.499  50.535  47.723  1.00  0.00     0.001 C 
HETATM    3  C   UNL     1      21.979  50.094  47.630  1.00  0.00     0.040 C 
HETATM    4  C   UNL     1      22.477  49.581  48.990  1.00  0.00     0.206 C 
HETATM    5  N   UNL     1      21.261  49.467  49.915  1.00  0.00    -0.065 N 
HETATM    6  H   UNL     1      21.561  49.017  50.791  1.00  0.00     0.280 HD
HETATM    7  C   UNL     1      20.138  48.628  49.327  1.00  0.00     0.246 C 
HETATM    8  C   UNL     1      20.397  51.543  48.892  1.00  0.00     0.033 C 
HETATM    9  C   UNL     1      20.742  50.862  50.223  1.00  0.00     0.236 C 
ENDROOT
BRANCH   4  10
HETATM   10  C   UNL     1      23.321  48.291  48.953  1.00  0.00     0.155 C 
BRANCH  10  11
HETATM   11  N   UNL     1      23.726  47.783  50.259  1.00  0.00    -0.365 N 
HETATM   12  H   UNL     1      22.991  47.420  50.856  1.00  0.00     0.161 HD
BRANCH  11  13
HETATM   13  C   UNL     1      24.958  47.270  50.565  1.00  0.00     0.172 C 
HETATM   14  S   UNL     1      26.377  47.770  49.845  1.00  0.00    -0.041 SA
BRANCH  13  15
HETATM   15  N   UNL     1      25.005  46.392  51.615  1.00  0.00    -0.333 N 
HETATM   16  H   UNL     1      24.230  45.735  51.644  1.00  0.00     0.168 HD
BRANCH  15  17
HETATM   17  C   UNL     1      25.888  46.344  52.719  1.00  0.00     0.035 A 
HETATM   18  C   UNL     1      26.854  45.348  52.877  1.00  0.00     0.047 A 
HETATM   19  C   UNL     1      27.671  45.305  54.013  1.00  0.00     0.041 A 
HETATM   20  C   UNL     1      27.569  46.308  54.976  1.00  0.00     0.018 A 
HETATM   21  C   UNL     1      26.651  47.345  54.795  1.00  0.00     0.003 A 
HETATM   22  C   UNL     1      25.817  47.364  53.669  1.00  0.00     0.029 A 
BRANCH  19  23
HETATM   23  C   UNL     1      28.583  44.141  54.141  1.00  0.00     0.293 C 
HETATM   24  O   UNL     1      28.495  43.157  53.418  1.00  0.00    -0.259 OA
BRANCH  23  25
HETATM   25  O   UNL     1      29.491  44.346  55.122  1.00  0.00    -0.323 OA
HETATM   26  C   UNL     1      30.440  43.287  55.266  1.00  0.00     0.213 C 
ENDBRANCH  23  25
ENDBRANCH  19  23
ENDBRANCH  15  17
ENDBRANCH  13  15
ENDBRANCH  11  13
ENDBRANCH  10  11
ENDBRANCH   4  10
BRANCH   1  27
HETATM   27  C   UNL     1      19.318  48.379  46.936  1.00  0.00     0.038 A 
HETATM   28  N   UNL     1      18.449  48.656  45.899  1.00  0.00    -0.277 N 
HETATM   29  C   UNL     1      17.661  49.847  45.673  1.00  0.00     0.179 C 
HETATM   30  N   UNL     1      18.356  47.668  45.001  1.00  0.00    -0.172 NA
HETATM   31  C   UNL     1      19.263  46.766  45.386  1.00  0.00     0.096 A 
HETATM   32  C   UNL     1      19.873  47.155  46.600  1.00  0.00     0.062 A 
BRANCH  31  33
HETATM   33  C   UNL     1      19.558  45.542  44.573  1.00  0.00     0.035 A 
HETATM   34  S   UNL     1      20.282  45.558  43.025  1.00  0.00    -0.100 SA
HETATM   35  C   UNL     1      20.168  43.856  42.884  1.00  0.00     0.050 A 
HETATM   36  C   UNL     1      19.597  43.283  44.000  1.00  0.00     0.008 A 
HETATM   37  C   UNL     1      19.252  44.259  44.980  1.00  0.00     0.022 A 
ENDBRANCH  31  33
ENDBRANCH   1  27
TORSDOF 9
ENDMDL
MODEL 10
REMARK VINA RESULT:      -8.0      4.348      7.932
REMARK  9 active torsions:
REMARK  status: ('A' for Active; 'I' for Inactive)
REMARK    1  A    between atoms: C_4  and  C_5 
REMARK    2  A    between atoms: C_11  and  C_12 
REMARK    3  A    between atoms: C_15  and  C_16 
REMARK    4  A    between atoms: C_16  and  N_17 
REMARK    5  A    between atoms: N_17  and  C_18 
REMARK    6  A    between atoms: C_18  and  N_19 
REMARK    7  A    between atoms: N_19  and  C_20 
REMARK    8  A    between atoms: C_22  and  C_23 
REMARK    9  A    between atoms: C_23  and  O_24 
ROOT
HETATM    1  C   UNL     1      21.968  49.868  48.161  1.00  0.00     0.067 C 
HETATM    2  C   UNL     1      21.278  50.872  49.127  1.00  0.00     0.001 C 
HETATM    3  C   UNL     1      20.360  50.136  50.130  1.00  0.00     0.040 C 
HETATM    4  C   UNL     1      19.213  49.427  49.394  1.00  0.00     0.206 C 
HETATM    5  N   UNL     1      19.510  49.503  47.892  1.00  0.00    -0.065 N 
HETATM    6  H   UNL     1      18.811  48.933  47.394  1.00  0.00     0.280 HD
HETATM    7  C   UNL     1      20.884  48.968  47.526  1.00  0.00     0.246 C 
HETATM    8  C   UNL     1      20.374  51.786  48.267  1.00  0.00     0.033 C 
HETATM    9  C   UNL     1      19.392  50.948  47.439  1.00  0.00     0.236 C 
ENDROOT
BRANCH   4  10
HETATM   10  C   UNL     1      18.896  47.993  49.867  1.00  0.00     0.155 C 
BRANCH  10  11
HETATM   11  N   UNL     1      17.548  47.528  49.558  1.00  0.00    -0.365 N 
HETATM   12  H   UNL     1      16.851  47.634  50.286  1.00  0.00     0.161 HD
BRANCH  11  13
HETATM   13  C   UNL     1      16.999  47.457  48.306  1.00  0.00     0.172 C 
HETATM   14  S   UNL     1      17.497  46.379  47.133  1.00  0.00    -0.041 SA
BRANCH  13  15
HETATM   15  N   UNL     1      15.897  48.239  48.082  1.00  0.00    -0.333 N 
HETATM   16  H   UNL     1      15.033  47.717  47.959  1.00  0.00     0.168 HD
BRANCH  15  17
HETATM   17  C   UNL     1      15.802  49.634  47.872  1.00  0.00     0.035 A 
HETATM   18  C   UNL     1      15.636  50.549  48.914  1.00  0.00     0.047 A 
HETATM   19  C   UNL     1      15.490  51.919  48.658  1.00  0.00     0.041 A 
HETATM   20  C   UNL     1      15.576  52.391  47.349  1.00  0.00     0.018 A 
HETATM   21  C   UNL     1      15.807  51.489  46.307  1.00  0.00     0.003 A 
HETATM   22  C   UNL     1      15.924  50.118  46.569  1.00  0.00     0.029 A 
BRANCH  19  23
HETATM   23  C   UNL     1      15.201  52.792  49.824  1.00  0.00     0.293 C 
HETATM   24  O   UNL     1      14.324  52.531  50.636  1.00  0.00    -0.259 OA
BRANCH  23  25
HETATM   25  O   UNL     1      16.037  53.855  49.846  1.00  0.00    -0.323 OA
HETATM   26  C   UNL     1      15.379  55.107  50.052  1.00  0.00     0.213 C 
ENDBRANCH  23  25
ENDBRANCH  19  23
ENDBRANCH  15  17
ENDBRANCH  13  15
ENDBRANCH  11  13
ENDBRANCH  10  11
ENDBRANCH   4  10
BRANCH   1  27
HETATM   27  C   UNL     1      23.102  49.082  48.761  1.00  0.00     0.038 A 
HETATM   28  N   UNL     1      24.426  49.454  48.647  1.00  0.00    -0.277 N 
HETATM   29  C   UNL     1      24.986  50.613  47.987  1.00  0.00     0.179 C 
HETATM   30  N   UNL     1      25.274  48.609  49.244  1.00  0.00    -0.172 NA
HETATM   31  C   UNL     1      24.493  47.719  49.863  1.00  0.00     0.096 A 
HETATM   32  C   UNL     1      23.131  47.960  49.573  1.00  0.00     0.062 A 
BRANCH  31  33
HETATM   33  C   UNL     1      25.057  46.652  50.752  1.00  0.00     0.035 A 
HETATM   34  S   UNL     1      25.307  45.029  50.281  1.00  0.00    -0.100 SA
HETATM   35  C   UNL     1      25.873  44.597  51.838  1.00  0.00     0.050 A 
HETATM   36  C   UNL     1      25.881  45.672  52.700  1.00  0.00     0.008 A 
HETATM   37  C   UNL     1      25.416  46.863  52.068  1.00  0.00     0.022 A 
ENDBRANCH  31  33
ENDBRANCH   1  27
TORSDOF 9
ENDMDL
