MODEL 1
REMARK VINA RESULT:     -10.3      0.000      0.000
REMARK  7 active torsions:
REMARK  status: ('A' for Active; 'I' for Inactive)
REMARK       I    between atoms: C_2  and  N_3 
REMARK    1  A    between atoms: N_3  and  C_4 
REMARK    2  A    between atoms: C_7  and  C_8 
REMARK    3  A    between atoms: C_8  and  N_9 
REMARK    4  A    between atoms: C_18  and  C_19 
REMARK    5  A    between atoms: C_19  and  N_20 
REMARK    6  A    between atoms: C_24  and  O_25 
REMARK    7  A    between atoms: O_25  and  C_26 
ROOT
HETATM    1  N   UNL     1      21.768  49.233  48.112  1.00  0.00    -0.061 N 
HETATM    2  H   UNL     1      21.779  50.088  47.545  1.00  0.00     0.280 HD
HETATM    3  C   UNL     1      23.200  48.745  48.079  1.00  0.00     0.276 C 
HETATM    4  C   UNL     1      23.516  47.574  48.965  1.00  0.00     0.002 A 
HETATM    5  C   UNL     1      22.891  46.344  48.760  1.00  0.00     0.076 A 
HETATM    6  O   UNL     1      21.992  46.172  47.745  1.00  0.00    -0.349 OA
HETATM    7  C   UNL     1      20.770  46.883  47.982  1.00  0.00     0.203 C 
HETATM    8  C   UNL     1      20.813  48.294  47.385  1.00  0.00     0.262 C 
HETATM    9  C   UNL     1      24.491  47.671  49.977  1.00  0.00     0.020 A 
HETATM   10  C   UNL     1      24.828  46.563  50.779  1.00  0.00    -0.032 A 
HETATM   11  C   UNL     1      24.188  45.339  50.535  1.00  0.00     0.011 A 
HETATM   12  C   UNL     1      23.233  45.229  49.522  1.00  0.00     0.038 A 
ENDROOT
BRANCH  10  13
HETATM   13  C   UNL     1      25.869  46.687  51.868  1.00  0.00     0.273 C 
BRANCH  13  14
HETATM   14  N   UNL     1      26.219  45.375  52.549  1.00  0.00    -0.067 N 
HETATM   15  H   UNL     1      25.404  44.758  52.435  1.00  0.00     0.280 HD
HETATM   16  C   UNL     1      27.409  44.691  51.913  1.00  0.00     0.237 C 
HETATM   17  C   UNL     1      27.718  43.386  52.634  1.00  0.00     0.060 C 
HETATM   18  C   UNL     1      27.979  43.624  54.122  1.00  0.00     0.132 C 
HETATM   19  C   UNL     1      26.747  44.292  54.735  1.00  0.00     0.060 C 
HETATM   20  C   UNL     1      26.419  45.603  54.036  1.00  0.00     0.237 C 
BRANCH  18  21
HETATM   21  O   UNL     1      29.073  44.533  54.301  1.00  0.00    -0.344 OA
BRANCH  21  22
HETATM   22  C   UNL     1      29.867  44.371  55.400  1.00  0.00     0.086 A 
HETATM   23  C   UNL     1      29.787  45.364  56.370  1.00  0.00     0.152 A 
HETATM   24  N   UNL     1      30.524  45.389  57.502  1.00  0.00    -0.270 NA
HETATM   25  C   UNL     1      31.344  44.337  57.710  1.00  0.00     0.116 A 
HETATM   26  C   UNL     1      31.468  43.280  56.822  1.00  0.00     0.022 A 
HETATM   27  C   UNL     1      30.718  43.300  55.645  1.00  0.00     0.039 A 
ENDBRANCH  21  22
ENDBRANCH  18  21
ENDBRANCH  13  14
ENDBRANCH  10  13
BRANCH   1  28
HETATM   28  C   UNL     1      21.241  49.678  49.462  1.00  0.00     0.273 C 
BRANCH  28  29
HETATM   29  C   UNL     1      20.013  50.548  49.412  1.00  0.00    -0.032 A 
HETATM   30  C   UNL     1      18.859  50.249  50.148  1.00  0.00     0.011 A 
HETATM   31  C   UNL     1      17.720  51.060  50.042  1.00  0.00     0.030 A 
HETATM   32  C   UNL     1      17.711  52.170  49.193  1.00  0.00     0.034 A 
HETATM   33  C   UNL     1      18.874  52.491  48.493  1.00  0.00     0.030 A 
HETATM   34  C   UNL     1      20.016  51.696  48.608  1.00  0.00     0.011 A 
BRANCH  32  35
HETATM   35  N   UNL     1      16.537  52.943  49.116  1.00  0.00    -0.328 N 
HETATM   36  C   UNL     1      15.506  52.768  48.207  1.00  0.00     0.218 C 
HETATM   37  C   UNL     1      14.488  53.881  48.241  1.00  0.00     0.117 C 
HETATM   38  O   UNL     1      15.369  51.797  47.466  1.00  0.00    -0.274 OA
HETATM   39  H   UNL     1      16.395  53.641  49.838  1.00  0.00     0.169 HD
ENDBRANCH  32  35
ENDBRANCH  28  29
ENDBRANCH   1  28
TORSDOF 7
ENDMDL
MODEL 2
REMARK VINA RESULT:     -10.2      2.224     11.747
REMARK  7 active torsions:
REMARK  status: ('A' for Active; 'I' for Inactive)
REMARK       I    between atoms: C_2  and  N_3 
REMARK    1  A    between atoms: N_3  and  C_4 
REMARK    2  A    between atoms: C_7  and  C_8 
REMARK    3  A    between atoms: C_8  and  N_9 
REMARK    4  A    between atoms: C_18  and  C_19 
REMARK    5  A    between atoms: C_19  and  N_20 
REMARK    6  A    between atoms: C_24  and  O_25 
REMARK    7  A    between atoms: O_25  and  C_26 
ROOT
HETATM    1  N   UNL     1      26.410  42.010  51.666  1.00  0.00    -0.061 N 
HETATM    2  H   UNL     1      26.549  41.561  52.577  1.00  0.00     0.280 HD
HETATM    3  C   UNL     1      25.165  42.850  51.849  1.00  0.00     0.276 C 
HETATM    4  C   UNL     1      24.805  43.752  50.703  1.00  0.00     0.002 A 
HETATM    5  C   UNL     1      24.490  43.216  49.454  1.00  0.00     0.076 A 
HETATM    6  O   UNL     1      24.488  41.864  49.248  1.00  0.00    -0.349 OA
HETATM    7  C   UNL     1      25.811  41.313  49.279  1.00  0.00     0.203 C 
HETATM    8  C   UNL     1      26.199  40.857  50.690  1.00  0.00     0.262 C 
HETATM    9  C   UNL     1      24.715  45.146  50.876  1.00  0.00     0.020 A 
HETATM   10  C   UNL     1      24.330  45.993  49.818  1.00  0.00    -0.032 A 
HETATM   11  C   UNL     1      24.009  45.418  48.581  1.00  0.00     0.011 A 
HETATM   12  C   UNL     1      24.078  44.034  48.405  1.00  0.00     0.038 A 
ENDROOT
BRANCH  10  13
HETATM   13  C   UNL     1      24.248  47.489  50.018  1.00  0.00     0.273 C 
BRANCH  13  14
HETATM   14  N   UNL     1      23.573  48.236  48.880  1.00  0.00    -0.067 N 
HETATM   15  H   UNL     1      23.899  47.799  48.008  1.00  0.00     0.280 HD
HETATM   16  C   UNL     1      22.066  48.116  48.921  1.00  0.00     0.237 C 
HETATM   17  C   UNL     1      21.442  48.883  47.765  1.00  0.00     0.060 C 
HETATM   18  C   UNL     1      21.855  50.355  47.788  1.00  0.00     0.132 C 
HETATM   19  C   UNL     1      23.381  50.436  47.719  1.00  0.00     0.060 C 
HETATM   20  C   UNL     1      24.031  49.683  48.869  1.00  0.00     0.237 C 
BRANCH  18  21
HETATM   21  O   UNL     1      21.465  50.967  49.025  1.00  0.00    -0.344 OA
BRANCH  21  22
HETATM   22  C   UNL     1      20.149  51.285  49.195  1.00  0.00     0.086 A 
HETATM   23  C   UNL     1      19.455  50.550  50.150  1.00  0.00     0.152 A 
HETATM   24  N   UNL     1      18.142  50.701  50.427  1.00  0.00    -0.270 NA
HETATM   25  C   UNL     1      17.494  51.678  49.758  1.00  0.00     0.116 A 
HETATM   26  C   UNL     1      18.104  52.489  48.813  1.00  0.00     0.022 A 
HETATM   27  C   UNL     1      19.454  52.285  48.525  1.00  0.00     0.039 A 
ENDBRANCH  21  22
ENDBRANCH  18  21
ENDBRANCH  13  14
ENDBRANCH  10  13
BRANCH   1  28
HETATM   28  C   UNL     1      27.698  42.766  51.413  1.00  0.00     0.273 C 
BRANCH  28  29
HETATM   29  C   UNL     1      28.380  43.296  52.646  1.00  0.00    -0.032 A 
HETATM   30  C   UNL     1      29.516  42.681  53.191  1.00  0.00     0.011 A 
HETATM   31  C   UNL     1      30.097  43.179  54.365  1.00  0.00     0.030 A 
HETATM   32  C   UNL     1      29.548  44.285  55.020  1.00  0.00     0.034 A 
HETATM   33  C   UNL     1      28.443  44.922  54.454  1.00  0.00     0.030 A 
HETATM   34  C   UNL     1      27.871  44.440  53.275  1.00  0.00     0.011 A 
BRANCH  32  35
HETATM   35  N   UNL     1      30.165  44.736  56.202  1.00  0.00    -0.328 N 
HETATM   36  C   UNL     1      29.666  45.699  57.064  1.00  0.00     0.218 C 
HETATM   37  C   UNL     1      30.652  46.114  58.128  1.00  0.00     0.117 C 
HETATM   38  O   UNL     1      28.525  46.157  57.034  1.00  0.00    -0.274 OA
HETATM   39  H   UNL     1      31.013  44.260  56.492  1.00  0.00     0.169 HD
ENDBRANCH  32  35
ENDBRANCH  28  29
ENDBRANCH   1  28
TORSDOF 7
ENDMDL
MODEL 3
REMARK VINA RESULT:      -9.7      5.113      9.300
REMARK  7 active torsions:
REMARK  status: ('A' for Active; 'I' for Inactive)
REMARK       I    between atoms: C_2  and  N_3 
REMARK    1  A    between atoms: N_3  and  C_4 
REMARK    2  A    between atoms: C_7  and  C_8 
REMARK    3  A    between atoms: C_8  and  N_9 
REMARK    4  A    between atoms: C_18  and  C_19 
REMARK    5  A    between atoms: C_19  and  N_20 
REMARK    6  A    between atoms: C_24  and  O_25 
REMARK    7  A    between atoms: O_25  and  C_26 
ROOT
HETATM    1  N   UNL     1      23.352  41.716  47.861  1.00  0.00    -0.061 N 
HETATM    2  H   UNL     1      23.107  40.723  47.943  1.00  0.00     0.280 HD
HETATM    3  C   UNL     1      23.143  42.268  49.254  1.00  0.00     0.276 C 
HETATM    4  C   UNL     1      23.578  43.690  49.470  1.00  0.00     0.002 A 
HETATM    5  C   UNL     1      22.974  44.729  48.761  1.00  0.00     0.076 A 
HETATM    6  O   UNL     1      21.969  44.481  47.869  1.00  0.00    -0.349 OA
HETATM    7  C   UNL     1      22.444  43.804  46.698  1.00  0.00     0.203 C 
HETATM    8  C   UNL     1      22.358  42.281  46.852  1.00  0.00     0.262 C 
HETATM    9  C   UNL     1      24.554  44.012  50.432  1.00  0.00     0.020 A 
HETATM   10  C   UNL     1      24.931  45.348  50.675  1.00  0.00    -0.032 A 
HETATM   11  C   UNL     1      24.294  46.367  49.952  1.00  0.00     0.011 A 
HETATM   12  C   UNL     1      23.312  46.057  49.009  1.00  0.00     0.038 A 
ENDROOT
BRANCH  10  13
HETATM   13  C   UNL     1      25.988  45.677  51.704  1.00  0.00     0.273 C 
BRANCH  13  14
HETATM   14  N   UNL     1      26.586  44.463  52.394  1.00  0.00    -0.067 N 
HETATM   15  H   UNL     1      25.960  43.672  52.194  1.00  0.00     0.280 HD
HETATM   16  C   UNL     1      27.958  44.111  51.863  1.00  0.00     0.237 C 
HETATM   17  C   UNL     1      28.511  42.893  52.590  1.00  0.00     0.060 C 
HETATM   18  C   UNL     1      28.574  43.129  54.099  1.00  0.00     0.132 C 
HETATM   19  C   UNL     1      27.168  43.456  54.603  1.00  0.00     0.060 C 
HETATM   20  C   UNL     1      26.593  44.675  53.897  1.00  0.00     0.237 C 
BRANCH  18  21
HETATM   21  O   UNL     1      29.393  44.268  54.396  1.00  0.00    -0.344 OA
BRANCH  21  22
HETATM   22  C   UNL     1      30.089  44.268  55.570  1.00  0.00     0.086 A 
HETATM   23  C   UNL     1      29.872  45.349  56.417  1.00  0.00     0.152 A 
HETATM   24  N   UNL     1      30.498  45.535  57.599  1.00  0.00    -0.270 NA
HETATM   25  C   UNL     1      31.346  44.560  57.990  1.00  0.00     0.116 A 
HETATM   26  C   UNL     1      31.603  43.425  57.236  1.00  0.00     0.022 A 
HETATM   27  C   UNL     1      30.965  43.279  56.004  1.00  0.00     0.039 A 
ENDBRANCH  21  22
ENDBRANCH  18  21
ENDBRANCH  13  14
ENDBRANCH  10  13
BRANCH   1  28
HETATM   28  C   UNL     1      24.777  41.716  47.345  1.00  0.00     0.273 C 
BRANCH  28  29
HETATM   29  C   UNL     1      25.758  40.937  48.181  1.00  0.00    -0.032 A 
HETATM   30  C   UNL     1      25.554  39.589  48.506  1.00  0.00     0.011 A 
HETATM   31  C   UNL     1      26.469  38.910  49.323  1.00  0.00     0.030 A 
HETATM   32  C   UNL     1      27.591  39.567  49.837  1.00  0.00     0.034 A 
HETATM   33  C   UNL     1      27.814  40.896  49.480  1.00  0.00     0.030 A 
HETATM   34  C   UNL     1      26.915  41.572  48.653  1.00  0.00     0.011 A 
BRANCH  32  35
HETATM   35  N   UNL     1      28.470  38.841  50.662  1.00  0.00    -0.328 N 
HETATM   36  C   UNL     1      29.520  38.046  50.232  1.00  0.00     0.218 C 
HETATM   37  C   UNL     1      30.146  37.235  51.339  1.00  0.00     0.117 C 
HETATM   38  O   UNL     1      29.963  38.015  49.085  1.00  0.00    -0.274 OA
HETATM   39  H   UNL     1      28.377  38.970  51.664  1.00  0.00     0.169 HD
ENDBRANCH  32  35
ENDBRANCH  28  29
ENDBRANCH   1  28
TORSDOF 7
ENDMDL
MODEL 4
REMARK VINA RESULT:      -9.3      1.906     12.946
REMARK  7 active torsions:
REMARK  status: ('A' for Active; 'I' for Inactive)
REMARK       I    between atoms: C_2  and  N_3 
REMARK    1  A    between atoms: N_3  and  C_4 
REMARK    2  A    between atoms: C_7  and  C_8 
REMARK    3  A    between atoms: C_8  and  N_9 
REMARK    4  A    between atoms: C_18  and  C_19 
REMARK    5  A    between atoms: C_19  and  N_20 
REMARK    6  A    between atoms: C_24  and  O_25 
REMARK    7  A    between atoms: O_25  and  C_26 
ROOT
HETATM    1  N   UNL     1      25.446  46.621  50.013  1.00  0.00    -0.061 N 
HETATM    2  H   UNL     1      25.672  45.621  49.958  1.00  0.00     0.280 HD
HETATM    3  C   UNL     1      24.306  46.799  49.034  1.00  0.00     0.276 C 
HETATM    4  C   UNL     1      23.661  48.155  49.017  1.00  0.00     0.002 A 
HETATM    5  C   UNL     1      24.398  49.284  48.657  1.00  0.00     0.076 A 
HETATM    6  O   UNL     1      25.714  49.182  48.302  1.00  0.00    -0.349 OA
HETATM    7  C   UNL     1      26.549  48.850  49.418  1.00  0.00     0.203 C 
HETATM    8  C   UNL     1      26.718  47.333  49.565  1.00  0.00     0.262 C 
HETATM    9  C   UNL     1      22.290  48.311  49.299  1.00  0.00     0.020 A 
HETATM   10  C   UNL     1      21.668  49.574  49.236  1.00  0.00    -0.032 A 
HETATM   11  C   UNL     1      22.437  50.683  48.859  1.00  0.00     0.011 A 
HETATM   12  C   UNL     1      23.793  50.535  48.560  1.00  0.00     0.038 A 
ENDROOT
BRANCH  10  13
HETATM   13  C   UNL     1      20.197  49.725  49.552  1.00  0.00     0.273 C 
BRANCH  13  14
HETATM   14  N   UNL     1      19.443  50.634  48.595  1.00  0.00    -0.067 N 
HETATM   15  H   UNL     1      20.109  50.902  47.859  1.00  0.00     0.280 HD
HETATM   16  C   UNL     1      18.277  49.937  47.931  1.00  0.00     0.237 C 
HETATM   17  C   UNL     1      17.556  50.891  46.989  1.00  0.00     0.060 C 
HETATM   18  C   UNL     1      17.074  52.141  47.727  1.00  0.00     0.132 C 
HETATM   19  C   UNL     1      18.283  52.831  48.362  1.00  0.00     0.060 C 
HETATM   20  C   UNL     1      19.018  51.901  49.315  1.00  0.00     0.237 C 
BRANCH  18  21
HETATM   21  O   UNL     1      16.194  51.783  48.800  1.00  0.00    -0.344 OA
BRANCH  21  22
HETATM   22  C   UNL     1      15.188  52.648  49.119  1.00  0.00     0.086 A 
HETATM   23  C   UNL     1      14.703  52.578  50.420  1.00  0.00     0.152 A 
HETATM   24  N   UNL     1      13.689  53.329  50.901  1.00  0.00    -0.270 NA
HETATM   25  C   UNL     1      13.166  54.244  50.058  1.00  0.00     0.116 A 
HETATM   26  C   UNL     1      13.603  54.418  48.754  1.00  0.00     0.022 A 
HETATM   27  C   UNL     1      14.630  53.604  48.277  1.00  0.00     0.039 A 
ENDBRANCH  21  22
ENDBRANCH  18  21
ENDBRANCH  13  14
ENDBRANCH  10  13
BRANCH   1  28
HETATM   28  C   UNL     1      25.121  46.859  51.473  1.00  0.00     0.273 C 
BRANCH  28  29
HETATM   29  C   UNL     1      26.105  46.271  52.450  1.00  0.00    -0.032 A 
HETATM   30  C   UNL     1      26.669  47.028  53.485  1.00  0.00     0.011 A 
HETATM   31  C   UNL     1      27.614  46.456  54.349  1.00  0.00     0.030 A 
HETATM   32  C   UNL     1      28.019  45.129  54.185  1.00  0.00     0.034 A 
HETATM   33  C   UNL     1      27.427  44.364  53.180  1.00  0.00     0.030 A 
HETATM   34  C   UNL     1      26.472  44.923  52.328  1.00  0.00     0.011 A 
BRANCH  32  35
HETATM   35  N   UNL     1      28.980  44.609  55.072  1.00  0.00    -0.328 N 
HETATM   36  C   UNL     1      29.947  43.666  54.764  1.00  0.00     0.218 C 
HETATM   37  C   UNL     1      30.690  43.158  55.974  1.00  0.00     0.117 C 
HETATM   38  O   UNL     1      30.238  43.292  53.629  1.00  0.00    -0.274 OA
HETATM   39  H   UNL     1      29.020  45.016  56.001  1.00  0.00     0.169 HD
ENDBRANCH  32  35
ENDBRANCH  28  29
ENDBRANCH   1  28
TORSDOF 7
ENDMDL
MODEL 5
REMARK VINA RESULT:      -9.3      1.404      1.743
REMARK  7 active torsions:
REMARK  status: ('A' for Active; 'I' for Inactive)
REMARK       I    between atoms: C_2  and  N_3 
REMARK    1  A    between atoms: N_3  and  C_4 
REMARK    2  A    between atoms: C_7  and  C_8 
REMARK    3  A    between atoms: C_8  and  N_9 
REMARK    4  A    between atoms: C_18  and  C_19 
REMARK    5  A    between atoms: C_19  and  N_20 
REMARK    6  A    between atoms: C_24  and  O_25 
REMARK    7  A    between atoms: O_25  and  C_26 
ROOT
HETATM    1  N   UNL     1      20.087  47.607  47.700  1.00  0.00    -0.061 N 
HETATM    2  H   UNL     1      19.857  48.298  46.978  1.00  0.00     0.280 HD
HETATM    3  C   UNL     1      21.496  47.171  47.363  1.00  0.00     0.276 C 
HETATM    4  C   UNL     1      22.158  46.260  48.357  1.00  0.00     0.002 A 
HETATM    5  C   UNL     1      21.626  44.997  48.623  1.00  0.00     0.076 A 
HETATM    6  O   UNL     1      20.505  44.556  47.978  1.00  0.00    -0.349 OA
HETATM    7  C   UNL     1      19.331  45.265  48.394  1.00  0.00     0.203 C 
HETATM    8  C   UNL     1      19.067  46.489  47.510  1.00  0.00     0.262 C 
HETATM    9  C   UNL     1      23.358  46.630  48.995  1.00  0.00     0.020 A 
HETATM   10  C   UNL     1      24.010  45.761  49.891  1.00  0.00    -0.032 A 
HETATM   11  C   UNL     1      23.454  44.495  50.123  1.00  0.00     0.011 A 
HETATM   12  C   UNL     1      22.273  44.113  49.482  1.00  0.00     0.038 A 
ENDROOT
BRANCH  10  13
HETATM   13  C   UNL     1      25.293  46.178  50.574  1.00  0.00     0.273 C 
BRANCH  13  14
HETATM   14  N   UNL     1      25.330  45.885  52.064  1.00  0.00    -0.067 N 
HETATM   15  H   UNL     1      24.355  45.903  52.392  1.00  0.00     0.280 HD
HETATM   16  C   UNL     1      25.895  44.516  52.372  1.00  0.00     0.237 C 
HETATM   17  C   UNL     1      25.913  44.277  53.876  1.00  0.00     0.060 C 
HETATM   18  C   UNL     1      26.719  45.356  54.599  1.00  0.00     0.132 C 
HETATM   19  C   UNL     1      26.104  46.720  54.285  1.00  0.00     0.060 C 
HETATM   20  C   UNL     1      26.079  46.989  52.788  1.00  0.00     0.237 C 
BRANCH  18  21
HETATM   21  O   UNL     1      28.066  45.389  54.111  1.00  0.00    -0.344 OA
BRANCH  21  22
HETATM   22  C   UNL     1      29.055  44.920  54.926  1.00  0.00     0.086 A 
HETATM   23  C   UNL     1      29.360  45.698  56.038  1.00  0.00     0.152 A 
HETATM   24  N   UNL     1      30.331  45.410  56.931  1.00  0.00    -0.270 NA
HETATM   25  C   UNL     1      30.998  44.252  56.742  1.00  0.00     0.116 A 
HETATM   26  C   UNL     1      30.746  43.390  55.687  1.00  0.00     0.022 A 
HETATM   27  C   UNL     1      29.759  43.732  54.762  1.00  0.00     0.039 A 
ENDBRANCH  21  22
ENDBRANCH  18  21
ENDBRANCH  13  14
ENDBRANCH  10  13
BRANCH   1  28
HETATM   28  C   UNL     1      19.909  48.349  49.009  1.00  0.00     0.273 C 
BRANCH  28  29
HETATM   29  C   UNL     1      19.003  49.550  48.943  1.00  0.00    -0.032 A 
HETATM   30  C   UNL     1      17.620  49.430  48.749  1.00  0.00     0.011 A 
HETATM   31  C   UNL     1      16.816  50.574  48.650  1.00  0.00     0.030 A 
HETATM   32  C   UNL     1      17.378  51.851  48.730  1.00  0.00     0.034 A 
HETATM   33  C   UNL     1      18.748  51.969  48.964  1.00  0.00     0.030 A 
HETATM   34  C   UNL     1      19.551  50.833  49.081  1.00  0.00     0.011 A 
BRANCH  32  35
HETATM   35  N   UNL     1      16.526  52.965  48.612  1.00  0.00    -0.328 N 
HETATM   36  C   UNL     1      15.574  53.363  49.537  1.00  0.00     0.218 C 
HETATM   37  C   UNL     1      14.679  54.467  49.032  1.00  0.00     0.117 C 
HETATM   38  O   UNL     1      15.468  52.925  50.681  1.00  0.00    -0.274 OA
HETATM   39  H   UNL     1      16.673  53.577  47.816  1.00  0.00     0.169 HD
ENDBRANCH  32  35
ENDBRANCH  28  29
ENDBRANCH   1  28
TORSDOF 7
ENDMDL
MODEL 6
REMARK VINA RESULT:      -9.0      5.667     13.981
REMARK  7 active torsions:
REMARK  status: ('A' for Active; 'I' for Inactive)
REMARK       I    between atoms: C_2  and  N_3 
REMARK    1  A    between atoms: N_3  and  C_4 
REMARK    2  A    between atoms: C_7  and  C_8 
REMARK    3  A    between atoms: C_8  and  N_9 
REMARK    4  A    between atoms: C_18  and  C_19 
REMARK    5  A    between atoms: C_19  and  N_20 
REMARK    6  A    between atoms: C_24  and  O_25 
REMARK    7  A    between atoms: O_25  and  C_26 
ROOT
HETATM    1  N   UNL     1      17.911  50.741  47.503  1.00  0.00    -0.061 N 
HETATM    2  H   UNL     1      18.341  49.813  47.574  1.00  0.00     0.280 HD
HETATM    3  C   UNL     1      16.563  50.578  48.171  1.00  0.00     0.276 C 
HETATM    4  C   UNL     1      15.763  51.837  48.352  1.00  0.00     0.002 A 
HETATM    5  C   UNL     1      15.339  52.571  47.243  1.00  0.00     0.076 A 
HETATM    6  O   UNL     1      15.628  52.157  45.973  1.00  0.00    -0.349 OA
HETATM    7  C   UNL     1      17.023  52.286  45.669  1.00  0.00     0.203 C 
HETATM    8  C   UNL     1      17.794  51.005  46.006  1.00  0.00     0.262 C 
HETATM    9  C   UNL     1      15.369  52.269  49.633  1.00  0.00     0.020 A 
HETATM   10  C   UNL     1      14.577  53.421  49.806  1.00  0.00    -0.032 A 
HETATM   11  C   UNL     1      14.159  54.126  48.669  1.00  0.00     0.011 A 
HETATM   12  C   UNL     1      14.530  53.694  47.393  1.00  0.00     0.038 A 
ENDROOT
BRANCH  10  13
HETATM   13  C   UNL     1      14.172  53.878  51.189  1.00  0.00     0.273 C 
BRANCH  13  14
HETATM   14  N   UNL     1      14.021  55.383  51.331  1.00  0.00    -0.067 N 
HETATM   15  H   UNL     1      13.979  55.765  50.377  1.00  0.00     0.280 HD
HETATM   16  C   UNL     1      12.744  55.773  52.041  1.00  0.00     0.237 C 
HETATM   17  C   UNL     1      12.645  57.288  52.159  1.00  0.00     0.060 C 
HETATM   18  C   UNL     1      13.855  57.867  52.892  1.00  0.00     0.132 C 
HETATM   19  C   UNL     1      15.122  57.474  52.132  1.00  0.00     0.060 C 
HETATM   20  C   UNL     1      15.250  55.964  52.005  1.00  0.00     0.237 C 
BRANCH  18  21
HETATM   21  O   UNL     1      13.968  57.299  54.203  1.00  0.00    -0.344 OA
BRANCH  21  22
HETATM   22  C   UNL     1      13.940  58.145  55.273  1.00  0.00     0.086 A 
HETATM   23  C   UNL     1      13.408  57.634  56.451  1.00  0.00     0.152 A 
HETATM   24  N   UNL     1      13.266  58.336  57.596  1.00  0.00    -0.270 NA
HETATM   25  C   UNL     1      13.735  59.601  57.588  1.00  0.00     0.116 A 
HETATM   26  C   UNL     1      14.316  60.192  56.476  1.00  0.00     0.022 A 
HETATM   27  C   UNL     1      14.417  59.451  55.298  1.00  0.00     0.039 A 
ENDBRANCH  21  22
ENDBRANCH  18  21
ENDBRANCH  13  14
ENDBRANCH  10  13
BRANCH   1  28
HETATM   28  C   UNL     1      18.892  51.669  48.189  1.00  0.00     0.273 C 
BRANCH  28  29
HETATM   29  C   UNL     1      20.243  51.070  48.477  1.00  0.00    -0.032 A 
HETATM   30  C   UNL     1      20.977  51.405  49.623  1.00  0.00     0.011 A 
HETATM   31  C   UNL     1      22.251  50.859  49.834  1.00  0.00     0.030 A 
HETATM   32  C   UNL     1      22.815  49.983  48.902  1.00  0.00     0.034 A 
HETATM   33  C   UNL     1      22.067  49.617  47.784  1.00  0.00     0.030 A 
HETATM   34  C   UNL     1      20.791  50.145  47.577  1.00  0.00     0.011 A 
BRANCH  32  35
HETATM   35  N   UNL     1      24.102  49.473  49.158  1.00  0.00    -0.328 N 
HETATM   36  C   UNL     1      25.228  49.674  48.376  1.00  0.00     0.218 C 
HETATM   37  C   UNL     1      26.404  48.829  48.798  1.00  0.00     0.117 C 
HETATM   38  O   UNL     1      25.318  50.485  47.456  1.00  0.00    -0.274 OA
HETATM   39  H   UNL     1      24.237  48.979  50.034  1.00  0.00     0.169 HD
ENDBRANCH  32  35
ENDBRANCH  28  29
ENDBRANCH   1  28
TORSDOF 7
ENDMDL
MODEL 7
REMARK VINA RESULT:      -8.8      5.828     14.394
REMARK  7 active torsions:
REMARK  status: ('A' for Active; 'I' for Inactive)
REMARK       I    between atoms: C_2  and  N_3 
REMARK    1  A    between atoms: N_3  and  C_4 
REMARK    2  A    between atoms: C_7  and  C_8 
REMARK    3  A    between atoms: C_8  and  N_9 
REMARK    4  A    between atoms: C_18  and  C_19 
REMARK    5  A    between atoms: C_19  and  N_20 
REMARK    6  A    between atoms: C_24  and  O_25 
REMARK    7  A    between atoms: O_25  and  C_26 
ROOT
HETATM    1  N   UNL     1      15.971  51.966  49.293  1.00  0.00    -0.061 N 
HETATM    2  H   UNL     1      16.076  51.098  49.831  1.00  0.00     0.280 HD
HETATM    3  C   UNL     1      14.740  52.621  49.878  1.00  0.00     0.276 C 
HETATM    4  C   UNL     1      14.430  54.003  49.378  1.00  0.00     0.002 A 
HETATM    5  C   UNL     1      14.139  54.219  48.030  1.00  0.00     0.076 A 
HETATM    6  O   UNL     1      14.115  53.181  47.141  1.00  0.00    -0.349 OA
HETATM    7  C   UNL     1      15.424  52.655  46.892  1.00  0.00     0.203 C 
HETATM    8  C   UNL     1      15.764  51.509  47.853  1.00  0.00     0.262 C 
HETATM    9  C   UNL     1      14.364  55.097  50.262  1.00  0.00     0.020 A 
HETATM   10  C   UNL     1      14.026  56.387  49.807  1.00  0.00    -0.032 A 
HETATM   11  C   UNL     1      13.727  56.564  48.449  1.00  0.00     0.011 A 
HETATM   12  C   UNL     1      13.772  55.480  47.568  1.00  0.00     0.038 A 
ENDROOT
BRANCH  10  13
HETATM   13  C   UNL     1      13.970  57.553  50.768  1.00  0.00     0.273 C 
BRANCH  13  14
HETATM   14  N   UNL     1      14.222  57.180  52.219  1.00  0.00    -0.067 N 
HETATM   15  H   UNL     1      14.298  56.155  52.250  1.00  0.00     0.280 HD
HETATM   16  C   UNL     1      15.517  57.755  52.749  1.00  0.00     0.237 C 
HETATM   17  C   UNL     1      15.718  57.355  54.204  1.00  0.00     0.060 C 
HETATM   18  C   UNL     1      14.544  57.810  55.071  1.00  0.00     0.132 C 
HETATM   19  C   UNL     1      13.259  57.189  54.521  1.00  0.00     0.060 C 
HETATM   20  C   UNL     1      13.030  57.579  53.069  1.00  0.00     0.237 C 
BRANCH  18  21
HETATM   21  O   UNL     1      14.381  59.231  54.992  1.00  0.00    -0.344 OA
BRANCH  21  22
HETATM   22  C   UNL     1      14.972  59.998  55.953  1.00  0.00     0.086 A 
HETATM   23  C   UNL     1      14.118  60.641  56.843  1.00  0.00     0.152 A 
HETATM   24  N   UNL     1      14.521  61.467  57.832  1.00  0.00    -0.270 NA
HETATM   25  C   UNL     1      15.854  61.617  57.983  1.00  0.00     0.116 A 
HETATM   26  C   UNL     1      16.789  60.993  57.173  1.00  0.00     0.022 A 
HETATM   27  C   UNL     1      16.339  60.172  56.138  1.00  0.00     0.039 A 
ENDBRANCH  21  22
ENDBRANCH  18  21
ENDBRANCH  13  14
ENDBRANCH  10  13
BRANCH   1  28
HETATM   28  C   UNL     1      17.282  52.699  49.495  1.00  0.00     0.273 C 
BRANCH  28  29
HETATM   29  C   UNL     1      18.509  51.827  49.487  1.00  0.00    -0.032 A 
HETATM   30  C   UNL     1      18.601  50.664  50.263  1.00  0.00     0.011 A 
HETATM   31  C   UNL     1      19.777  49.901  50.262  1.00  0.00     0.030 A 
HETATM   32  C   UNL     1      20.881  50.292  49.500  1.00  0.00     0.034 A 
HETATM   33  C   UNL     1      20.774  51.427  48.695  1.00  0.00     0.030 A 
HETATM   34  C   UNL     1      19.599  52.181  48.679  1.00  0.00     0.011 A 
BRANCH  32  35
HETATM   35  N   UNL     1      22.040  49.496  49.545  1.00  0.00    -0.328 N 
HETATM   36  C   UNL     1      22.297  48.386  48.757  1.00  0.00     0.218 C 
HETATM   37  C   UNL     1      23.527  47.624  49.184  1.00  0.00     0.117 C 
HETATM   38  O   UNL     1      21.645  48.050  47.770  1.00  0.00    -0.274 OA
HETATM   39  H   UNL     1      22.790  49.806  50.154  1.00  0.00     0.169 HD
ENDBRANCH  32  35
ENDBRANCH  28  29
ENDBRANCH   1  28
TORSDOF 7
ENDMDL
MODEL 8
REMARK VINA RESULT:      -8.7      4.080      8.059
REMARK  7 active torsions:
REMARK  status: ('A' for Active; 'I' for Inactive)
REMARK       I    between atoms: C_2  and  N_3 
REMARK    1  A    between atoms: N_3  and  C_4 
REMARK    2  A    between atoms: C_7  and  C_8 
REMARK    3  A    between atoms: C_8  and  N_9 
REMARK    4  A    between atoms: C_18  and  C_19 
REMARK    5  A    between atoms: C_19  and  N_20 
REMARK    6  A    between atoms: C_24  and  O_25 
REMARK    7  A    between atoms: O_25  and  C_26 
ROOT
HETATM    1  N   UNL     1      16.244  47.870  47.103  1.00  0.00    -0.061 N 
HETATM    2  H   UNL     1      15.906  46.903  47.144  1.00  0.00     0.280 HD
HETATM    3  C   UNL     1      16.638  48.189  48.528  1.00  0.00     0.276 C 
HETATM    4  C   UNL     1      17.321  49.510  48.742  1.00  0.00     0.002 A 
HETATM    5  C   UNL     1      16.657  50.703  48.457  1.00  0.00     0.076 A 
HETATM    6  O   UNL     1      15.371  50.699  47.992  1.00  0.00    -0.349 OA
HETATM    7  C   UNL     1      15.285  50.197  46.653  1.00  0.00     0.203 C 
HETATM    8  C   UNL     1      15.043  48.683  46.632  1.00  0.00     0.262 C 
HETATM    9  C   UNL     1      18.616  49.577  49.291  1.00  0.00     0.020 A 
HETATM   10  C   UNL     1      19.243  50.815  49.540  1.00  0.00    -0.032 A 
HETATM   11  C   UNL     1      18.540  51.993  49.253  1.00  0.00     0.011 A 
HETATM   12  C   UNL     1      17.248  51.935  48.725  1.00  0.00     0.038 A 
ENDROOT
BRANCH  10  13
HETATM   13  C   UNL     1      20.637  50.870  50.121  1.00  0.00     0.273 C 
BRANCH  13  14
HETATM   14  N   UNL     1      21.730  50.423  49.165  1.00  0.00    -0.067 N 
HETATM   15  H   UNL     1      21.456  50.754  48.230  1.00  0.00     0.280 HD
HETATM   16  C   UNL     1      23.074  51.032  49.494  1.00  0.00     0.237 C 
HETATM   17  C   UNL     1      24.131  50.549  48.510  1.00  0.00     0.060 C 
HETATM   18  C   UNL     1      24.229  49.024  48.507  1.00  0.00     0.132 C 
HETATM   19  C   UNL     1      22.860  48.445  48.145  1.00  0.00     0.060 C 
HETATM   20  C   UNL     1      21.786  48.907  49.117  1.00  0.00     0.237 C 
BRANCH  18  21
HETATM   21  O   UNL     1      24.548  48.538  49.817  1.00  0.00    -0.344 OA
BRANCH  21  22
HETATM   22  C   UNL     1      25.163  47.323  49.917  1.00  0.00     0.086 A 
HETATM   23  C   UNL     1      26.481  47.261  49.477  1.00  0.00     0.152 A 
HETATM   24  N   UNL     1      27.232  46.139  49.466  1.00  0.00    -0.270 NA
HETATM   25  C   UNL     1      26.661  45.027  49.976  1.00  0.00     0.116 A 
HETATM   26  C   UNL     1      25.367  44.994  50.473  1.00  0.00     0.022 A 
HETATM   27  C   UNL     1      24.605  46.162  50.439  1.00  0.00     0.039 A 
ENDBRANCH  21  22
ENDBRANCH  18  21
ENDBRANCH  13  14
ENDBRANCH  10  13
BRANCH   1  28
HETATM   28  C   UNL     1      17.368  47.838  46.086  1.00  0.00     0.273 C 
BRANCH  28  29
HETATM   29  C   UNL     1      18.414  46.783  46.325  1.00  0.00    -0.032 A 
HETATM   30  C   UNL     1      18.078  45.458  46.633  1.00  0.00     0.011 A 
HETATM   31  C   UNL     1      19.081  44.513  46.891  1.00  0.00     0.030 A 
HETATM   32  C   UNL     1      20.430  44.877  46.859  1.00  0.00     0.034 A 
HETATM   33  C   UNL     1      20.765  46.186  46.511  1.00  0.00     0.030 A 
HETATM   34  C   UNL     1      19.771  47.127  46.237  1.00  0.00     0.011 A 
BRANCH  32  35
HETATM   35  N   UNL     1      21.396  43.892  47.138  1.00  0.00    -0.328 N 
HETATM   36  C   UNL     1      22.045  43.707  48.348  1.00  0.00     0.218 C 
HETATM   37  C   UNL     1      23.172  42.708  48.272  1.00  0.00     0.117 C 
HETATM   38  O   UNL     1      21.733  44.244  49.410  1.00  0.00    -0.274 OA
HETATM   39  H   UNL     1      21.578  43.206  46.413  1.00  0.00     0.169 HD
ENDBRANCH  32  35
ENDBRANCH  28  29
ENDBRANCH   1  28
TORSDOF 7
ENDMDL
MODEL 9
REMARK VINA RESULT:      -8.7      2.311     11.988
REMARK  7 active torsions:
REMARK  status: ('A' for Active; 'I' for Inactive)
REMARK       I    between atoms: C_2  and  N_3 
REMARK    1  A    between atoms: N_3  and  C_4 
REMARK    2  A    between atoms: C_7  and  C_8 
REMARK    3  A    between atoms: C_8  and  N_9 
REMARK    4  A    between atoms: C_18  and  C_19 
REMARK    5  A    between atoms: C_19  and  N_20 
REMARK    6  A    between atoms: C_24  and  O_25 
REMARK    7  A    between atoms: O_25  and  C_26 
ROOT
HETATM    1  N   UNL     1      23.805  42.292  49.387  1.00  0.00    -0.061 N 
HETATM    2  H   UNL     1      23.989  41.768  50.249  1.00  0.00     0.280 HD
HETATM    3  C   UNL     1      22.833  43.372  49.807  1.00  0.00     0.276 C 
HETATM    4  C   UNL     1      22.500  44.401  48.764  1.00  0.00     0.002 A 
HETATM    5  C   UNL     1      21.867  44.026  47.579  1.00  0.00     0.076 A 
HETATM    6  O   UNL     1      21.523  42.724  47.346  1.00  0.00    -0.349 OA
HETATM    7  C   UNL     1      22.672  41.894  47.129  1.00  0.00     0.203 C 
HETATM    8  C   UNL     1      23.177  41.277  48.438  1.00  0.00     0.262 C 
HETATM    9  C   UNL     1      22.761  45.767  48.983  1.00  0.00     0.020 A 
HETATM   10  C   UNL     1      22.406  46.742  48.030  1.00  0.00    -0.032 A 
HETATM   11  C   UNL     1      21.760  46.330  46.856  1.00  0.00     0.011 A 
HETATM   12  C   UNL     1      21.482  44.979  46.639  1.00  0.00     0.038 A 
ENDROOT
BRANCH  10  13
HETATM   13  C   UNL     1      22.702  48.204  48.275  1.00  0.00     0.273 C 
BRANCH  13  14
HETATM   14  N   UNL     1      21.832  48.847  49.341  1.00  0.00    -0.067 N 
HETATM   15  H   UNL     1      22.073  48.393  50.232  1.00  0.00     0.280 HD
HETATM   16  C   UNL     1      22.097  50.328  49.492  1.00  0.00     0.237 C 
HETATM   17  C   UNL     1      21.198  50.921  50.567  1.00  0.00     0.060 C 
HETATM   18  C   UNL     1      19.722  50.679  50.251  1.00  0.00     0.132 C 
HETATM   19  C   UNL     1      19.487  49.173  50.132  1.00  0.00     0.060 C 
HETATM   20  C   UNL     1      20.369  48.555  49.058  1.00  0.00     0.237 C 
BRANCH  18  21
HETATM   21  O   UNL     1      19.379  51.251  48.982  1.00  0.00    -0.344 OA
BRANCH  21  22
HETATM   22  C   UNL     1      18.100  51.692  48.803  1.00  0.00     0.086 A 
HETATM   23  C   UNL     1      17.603  51.634  47.506  1.00  0.00     0.152 A 
HETATM   24  N   UNL     1      16.376  52.060  47.135  1.00  0.00    -0.270 NA
HETATM   25  C   UNL     1      15.575  52.517  48.121  1.00  0.00     0.116 A 
HETATM   26  C   UNL     1      15.963  52.582  49.451  1.00  0.00     0.022 A 
HETATM   27  C   UNL     1      17.249  52.165  49.795  1.00  0.00     0.039 A 
ENDBRANCH  21  22
ENDBRANCH  18  21
ENDBRANCH  13  14
ENDBRANCH  10  13
BRANCH   1  28
HETATM   28  C   UNL     1      25.170  42.760  48.926  1.00  0.00     0.273 C 
BRANCH  28  29
HETATM   29  C   UNL     1      26.230  42.785  49.996  1.00  0.00    -0.032 A 
HETATM   30  C   UNL     1      26.789  43.982  50.462  1.00  0.00     0.011 A 
HETATM   31  C   UNL     1      27.805  43.962  51.428  1.00  0.00     0.030 A 
HETATM   32  C   UNL     1      28.287  42.751  51.932  1.00  0.00     0.034 A 
HETATM   33  C   UNL     1      27.701  41.561  51.498  1.00  0.00     0.030 A 
HETATM   34  C   UNL     1      26.677  41.577  50.549  1.00  0.00     0.011 A 
BRANCH  32  35
HETATM   35  N   UNL     1      29.316  42.788  52.891  1.00  0.00    -0.328 N 
HETATM   36  C   UNL     1      29.197  43.241  54.195  1.00  0.00     0.218 C 
HETATM   37  C   UNL     1      30.521  43.350  54.910  1.00  0.00     0.117 C 
HETATM   38  O   UNL     1      28.137  43.490  54.767  1.00  0.00    -0.274 OA
HETATM   39  H   UNL     1      30.205  42.375  52.631  1.00  0.00     0.169 HD
ENDBRANCH  32  35
ENDBRANCH  28  29
ENDBRANCH   1  28
TORSDOF 7
ENDMDL
MODEL 10
REMARK VINA RESULT:      -8.6      5.233     10.651
REMARK  7 active torsions:
REMARK  status: ('A' for Active; 'I' for Inactive)
REMARK       I    between atoms: C_2  and  N_3 
REMARK    1  A    between atoms: N_3  and  C_4 
REMARK    2  A    between atoms: C_7  and  C_8 
REMARK    3  A    between atoms: C_8  and  N_9 
REMARK    4  A    between atoms: C_18  and  C_19 
REMARK    5  A    between atoms: C_19  and  N_20 
REMARK    6  A    between atoms: C_24  and  O_25 
REMARK    7  A    between atoms: O_25  and  C_26 
ROOT
HETATM    1  N   UNL     1      26.048  46.679  51.107  1.00  0.00    -0.061 N 
HETATM    2  H   UNL     1      26.734  47.431  51.238  1.00  0.00     0.280 HD
HETATM    3  C   UNL     1      26.828  45.580  50.420  1.00  0.00     0.276 C 
HETATM    4  C   UNL     1      26.104  44.276  50.238  1.00  0.00     0.002 A 
HETATM    5  C   UNL     1      24.952  44.210  49.454  1.00  0.00     0.076 A 
HETATM    6  O   UNL     1      24.465  45.322  48.825  1.00  0.00    -0.349 OA
HETATM    7  C   UNL     1      23.919  46.269  49.752  1.00  0.00     0.203 C 
HETATM    8  C   UNL     1      24.974  47.283  50.209  1.00  0.00     0.262 C 
HETATM    9  C   UNL     1      26.603  43.084  50.799  1.00  0.00     0.020 A 
HETATM   10  C   UNL     1      25.956  41.850  50.591  1.00  0.00    -0.032 A 
HETATM   11  C   UNL     1      24.808  41.820  49.787  1.00  0.00     0.011 A 
HETATM   12  C   UNL     1      24.316  42.995  49.212  1.00  0.00     0.038 A 
ENDROOT
BRANCH  10  13
HETATM   13  C   UNL     1      26.498  40.581  51.208  1.00  0.00     0.273 C 
BRANCH  13  14
HETATM   14  N   UNL     1      27.439  39.800  50.306  1.00  0.00    -0.067 N 
HETATM   15  H   UNL     1      28.203  39.459  50.904  1.00  0.00     0.280 HD
HETATM   16  C   UNL     1      26.773  38.598  49.676  1.00  0.00     0.237 C 
HETATM   17  C   UNL     1      27.756  37.856  48.781  1.00  0.00     0.060 C 
HETATM   18  C   UNL     1      28.322  38.774  47.698  1.00  0.00     0.132 C 
HETATM   19  C   UNL     1      29.009  39.963  48.373  1.00  0.00     0.060 C 
HETATM   20  C   UNL     1      28.046  40.727  49.268  1.00  0.00     0.237 C 
BRANCH  18  21
HETATM   21  O   UNL     1      27.266  39.312  46.892  1.00  0.00    -0.344 OA
BRANCH  21  22
HETATM   22  C   UNL     1      27.566  39.703  45.620  1.00  0.00     0.086 A 
HETATM   23  C   UNL     1      26.998  40.898  45.191  1.00  0.00     0.152 A 
HETATM   24  N   UNL     1      27.154  41.420  43.955  1.00  0.00    -0.270 NA
HETATM   25  C   UNL     1      27.968  40.746  43.116  1.00  0.00     0.116 A 
HETATM   26  C   UNL     1      28.610  39.566  43.459  1.00  0.00     0.022 A 
HETATM   27  C   UNL     1      28.401  39.035  44.732  1.00  0.00     0.039 A 
ENDBRANCH  21  22
ENDBRANCH  18  21
ENDBRANCH  13  14
ENDBRANCH  10  13
BRANCH   1  28
HETATM   28  C   UNL     1      25.545  46.375  52.503  1.00  0.00     0.273 C 
BRANCH  28  29
HETATM   29  C   UNL     1      26.616  46.053  53.511  1.00  0.00    -0.032 A 
HETATM   30  C   UNL     1      27.388  47.051  54.121  1.00  0.00     0.011 A 
HETATM   31  C   UNL     1      28.405  46.709  55.023  1.00  0.00     0.030 A 
HETATM   32  C   UNL     1      28.675  45.370  55.320  1.00  0.00     0.034 A 
HETATM   33  C   UNL     1      27.879  44.380  54.745  1.00  0.00     0.030 A 
HETATM   34  C   UNL     1      26.853  44.716  53.859  1.00  0.00     0.011 A 
BRANCH  32  35
HETATM   35  N   UNL     1      29.715  45.082  56.223  1.00  0.00    -0.328 N 
HETATM   36  C   UNL     1      30.696  44.119  56.056  1.00  0.00     0.218 C 
HETATM   37  C   UNL     1      31.541  43.908  57.287  1.00  0.00     0.117 C 
HETATM   38  O   UNL     1      30.923  43.510  55.011  1.00  0.00    -0.274 OA
HETATM   39  H   UNL     1      29.803  45.685  57.035  1.00  0.00     0.169 HD
ENDBRANCH  32  35
ENDBRANCH  28  29
ENDBRANCH   1  28
TORSDOF 7
ENDMDL
