MODEL 1
REMARK VINA RESULT:      -8.7      0.000      0.000
REMARK  11 active torsions:
REMARK  status: ('A' for Active; 'I' for Inactive)
REMARK    1  A    between atoms: C_2  and  C_3 
REMARK    2  A    between atoms: C_3  and  C_4 
REMARK    3  A    between atoms: C_4  and  O_5 
REMARK    4  A    between atoms: O_5  and  C_6 
REMARK    5  A    between atoms: C_9  and  C_10 
REMARK       I    between atoms: C_10  and  N_11 
REMARK    6  A    between atoms: N_11  and  C_12 
REMARK    7  A    between atoms: C_12  and  C_13 
REMARK       I    between atoms: C_13  and  N_14 
REMARK    8  A    between atoms: N_14  and  N_15 
REMARK    9  A    between atoms: C_16  and  C_17 
REMARK   10  A    between atoms: C_18  and  O_19 
REMARK   11  A    between atoms: C_21  and  O_22 
ROOT
HETATM    1  C   UNL     1      25.559  45.780  50.024  1.00  0.00     0.227 C 
ENDROOT
BRANCH   1   2
HETATM    2  N   UNL     1      26.305  45.215  51.145  1.00  0.00    -0.348 N 
HETATM    3  C   UNL     1      27.273  44.255  50.957  1.00  0.00     0.252 C 
HETATM    4  O   UNL     1      27.460  43.729  49.863  1.00  0.00    -0.268 OA
HETATM    5  H   UNL     1      26.254  45.712  52.024  1.00  0.00     0.163 HD
BRANCH   3   6
HETATM    6  C   UNL     1      28.069  43.836  52.141  1.00  0.00     0.032 A 
HETATM    7  C   UNL     1      29.052  42.842  52.070  1.00  0.00     0.020 A 
HETATM    8  C   UNL     1      29.830  42.543  53.195  1.00  0.00     0.038 A 
HETATM    9  C   UNL     1      29.641  43.247  54.386  1.00  0.00     0.068 A 
HETATM   10  C   UNL     1      28.635  44.209  54.467  1.00  0.00     0.038 A 
HETATM   11  C   UNL     1      27.858  44.513  53.348  1.00  0.00     0.020 A 
BRANCH   9  12
HETATM   12  O   UNL     1      30.375  43.074  55.526  1.00  0.00    -0.351 OA
BRANCH  12  13
HETATM   13  C   UNL     1      31.044  44.236  56.019  1.00  0.00     0.175 C 
BRANCH  13  14
HETATM   14  C   UNL     1      31.350  44.042  57.503  1.00  0.00     0.026 C 
BRANCH  14  15
HETATM   15  C   UNL     1      30.793  45.169  58.374  1.00  0.00    -0.002 C 
HETATM   16  C   UNL     1      29.683  45.920  57.654  1.00  0.00     0.005 C 
ENDBRANCH  14  15
ENDBRANCH  13  14
ENDBRANCH  12  13
ENDBRANCH   9  12
ENDBRANCH   3   6
ENDBRANCH   1   2
BRANCH   1  17
HETATM   17  C   UNL     1      24.718  47.015  50.371  1.00  0.00     0.255 C 
HETATM   18  N   UNL     1      23.792  47.348  49.396  1.00  0.00    -0.246 N 
HETATM   19  H   UNL     1      23.758  46.795  48.534  1.00  0.00     0.192 HD
HETATM   20  O   UNL     1      24.946  47.683  51.380  1.00  0.00    -0.270 OA
BRANCH  18  21
HETATM   21  N   UNL     1      23.015  48.456  49.532  1.00  0.00    -0.184 NA
HETATM   22  C   UNL     1      21.810  48.342  49.068  1.00  0.00     0.153 C 
BRANCH  22  23
HETATM   23  C   UNL     1      20.865  49.474  49.134  1.00  0.00     0.016 A 
HETATM   24  C   UNL     1      19.699  49.426  49.909  1.00  0.00     0.080 A 
HETATM   25  C   UNL     1      18.836  50.520  49.956  1.00  0.00     0.074 A 
HETATM   26  C   UNL     1      19.144  51.659  49.218  1.00  0.00     0.068 A 
HETATM   27  C   UNL     1      20.296  51.720  48.439  1.00  0.00     0.037 A 
HETATM   28  C   UNL     1      21.163  50.625  48.397  1.00  0.00     0.018 A 
BRANCH  24  29
HETATM   29  O   UNL     1      19.336  48.337  50.656  1.00  0.00    -0.360 OA
HETATM   30  H   UNL     1      18.554  47.916  50.230  1.00  0.00     0.217 HD
ENDBRANCH  24  29
BRANCH  26  31
HETATM   31  O   UNL     1      18.331  52.754  49.232  1.00  0.00    -0.361 OA
HETATM   32  H   UNL     1      18.856  53.530  48.969  1.00  0.00     0.217 HD
ENDBRANCH  26  31
ENDBRANCH  22  23
ENDBRANCH  18  21
ENDBRANCH   1  17
TORSDOF 11
ENDMDL
MODEL 2
REMARK VINA RESULT:      -8.6      2.566     11.801
REMARK  11 active torsions:
REMARK  status: ('A' for Active; 'I' for Inactive)
REMARK    1  A    between atoms: C_2  and  C_3 
REMARK    2  A    between atoms: C_3  and  C_4 
REMARK    3  A    between atoms: C_4  and  O_5 
REMARK    4  A    between atoms: O_5  and  C_6 
REMARK    5  A    between atoms: C_9  and  C_10 
REMARK       I    between atoms: C_10  and  N_11 
REMARK    6  A    between atoms: N_11  and  C_12 
REMARK    7  A    between atoms: C_12  and  C_13 
REMARK       I    between atoms: C_13  and  N_14 
REMARK    8  A    between atoms: N_14  and  N_15 
REMARK    9  A    between atoms: C_16  and  C_17 
REMARK   10  A    between atoms: C_18  and  O_19 
REMARK   11  A    between atoms: C_21  and  O_22 
ROOT
HETATM    1  C   UNL     1      23.093  47.664  48.934  1.00  0.00     0.227 C 
ENDROOT
BRANCH   1   2
HETATM    2  N   UNL     1      21.947  48.501  49.279  1.00  0.00    -0.348 N 
HETATM    3  C   UNL     1      21.702  49.691  48.632  1.00  0.00     0.252 C 
HETATM    4  O   UNL     1      22.502  50.173  47.836  1.00  0.00    -0.268 OA
HETATM    5  H   UNL     1      21.221  48.072  49.837  1.00  0.00     0.163 HD
BRANCH   3   6
HETATM    6  C   UNL     1      20.441  50.408  48.963  1.00  0.00     0.032 A 
HETATM    7  C   UNL     1      19.513  49.907  49.883  1.00  0.00     0.020 A 
HETATM    8  C   UNL     1      18.383  50.661  50.221  1.00  0.00     0.038 A 
HETATM    9  C   UNL     1      18.187  51.922  49.656  1.00  0.00     0.068 A 
HETATM   10  C   UNL     1      19.091  52.403  48.710  1.00  0.00     0.038 A 
HETATM   11  C   UNL     1      20.221  51.657  48.371  1.00  0.00     0.020 A 
BRANCH   9  12
HETATM   12  O   UNL     1      17.149  52.763  49.951  1.00  0.00    -0.351 OA
BRANCH  12  13
HETATM   13  C   UNL     1      15.841  52.243  49.710  1.00  0.00     0.175 C 
BRANCH  13  14
HETATM   14  C   UNL     1      15.643  52.071  48.204  1.00  0.00     0.026 C 
BRANCH  14  15
HETATM   15  C   UNL     1      15.521  50.605  47.787  1.00  0.00    -0.002 C 
HETATM   16  C   UNL     1      16.649  50.209  46.845  1.00  0.00     0.005 C 
ENDBRANCH  14  15
ENDBRANCH  13  14
ENDBRANCH  12  13
ENDBRANCH   9  12
ENDBRANCH   3   6
ENDBRANCH   1   2
BRANCH   1  17
HETATM   17  C   UNL     1      24.331  47.877  49.813  1.00  0.00     0.255 C 
HETATM   18  N   UNL     1      24.317  47.133  50.982  1.00  0.00    -0.246 N 
HETATM   19  H   UNL     1      23.503  46.547  51.187  1.00  0.00     0.192 HD
HETATM   20  O   UNL     1      25.184  48.718  49.527  1.00  0.00    -0.270 OA
BRANCH  18  21
HETATM   21  N   UNL     1      25.318  47.262  51.894  1.00  0.00    -0.184 NA
HETATM   22  C   UNL     1      25.414  46.288  52.744  1.00  0.00     0.153 C 
BRANCH  22  23
HETATM   23  C   UNL     1      26.445  46.307  53.800  1.00  0.00     0.016 A 
HETATM   24  C   UNL     1      26.532  47.345  54.738  1.00  0.00     0.080 A 
HETATM   25  C   UNL     1      27.512  47.322  55.729  1.00  0.00     0.074 A 
HETATM   26  C   UNL     1      28.409  46.259  55.771  1.00  0.00     0.068 A 
HETATM   27  C   UNL     1      28.340  45.224  54.843  1.00  0.00     0.037 A 
HETATM   28  C   UNL     1      27.354  45.244  53.854  1.00  0.00     0.018 A 
BRANCH  24  29
HETATM   29  O   UNL     1      25.682  48.419  54.751  1.00  0.00    -0.360 OA
HETATM   30  H   UNL     1      26.214  49.232  54.919  1.00  0.00     0.217 HD
ENDBRANCH  24  29
BRANCH  26  31
HETATM   31  O   UNL     1      29.386  46.193  56.721  1.00  0.00    -0.361 OA
HETATM   32  H   UNL     1      29.686  47.098  56.916  1.00  0.00     0.217 HD
ENDBRANCH  26  31
ENDBRANCH  22  23
ENDBRANCH  18  21
ENDBRANCH   1  17
TORSDOF 11
ENDMDL
MODEL 3
REMARK VINA RESULT:      -8.5      2.693     11.987
REMARK  11 active torsions:
REMARK  status: ('A' for Active; 'I' for Inactive)
REMARK    1  A    between atoms: C_2  and  C_3 
REMARK    2  A    between atoms: C_3  and  C_4 
REMARK    3  A    between atoms: C_4  and  O_5 
REMARK    4  A    between atoms: O_5  and  C_6 
REMARK    5  A    between atoms: C_9  and  C_10 
REMARK       I    between atoms: C_10  and  N_11 
REMARK    6  A    between atoms: N_11  and  C_12 
REMARK    7  A    between atoms: C_12  and  C_13 
REMARK       I    between atoms: C_13  and  N_14 
REMARK    8  A    between atoms: N_14  and  N_15 
REMARK    9  A    between atoms: C_16  and  C_17 
REMARK   10  A    between atoms: C_18  and  O_19 
REMARK   11  A    between atoms: C_21  and  O_22 
ROOT
HETATM    1  C   UNL     1      23.116  47.656  49.002  1.00  0.00     0.227 C 
ENDROOT
BRANCH   1   2
HETATM    2  N   UNL     1      21.983  48.504  49.361  1.00  0.00    -0.348 N 
HETATM    3  C   UNL     1      21.770  49.720  48.752  1.00  0.00     0.252 C 
HETATM    4  O   UNL     1      22.591  50.212  47.984  1.00  0.00    -0.268 OA
HETATM    5  H   UNL     1      21.240  48.071  49.894  1.00  0.00     0.163 HD
BRANCH   3   6
HETATM    6  C   UNL     1      20.520  50.451  49.091  1.00  0.00     0.032 A 
HETATM    7  C   UNL     1      20.202  51.693  48.528  1.00  0.00     0.020 A 
HETATM    8  C   UNL     1      18.974  52.300  48.816  1.00  0.00     0.038 A 
HETATM    9  C   UNL     1      18.054  51.662  49.649  1.00  0.00     0.068 A 
HETATM   10  C   UNL     1      18.388  50.444  50.241  1.00  0.00     0.038 A 
HETATM   11  C   UNL     1      19.610  49.832  49.956  1.00  0.00     0.020 A 
BRANCH   9  12
HETATM   12  O   UNL     1      16.810  52.138  49.957  1.00  0.00    -0.351 OA
BRANCH  12  13
HETATM   13  C   UNL     1      15.773  51.813  49.030  1.00  0.00     0.175 C 
BRANCH  13  14
HETATM   14  C   UNL     1      15.052  53.097  48.621  1.00  0.00     0.026 C 
BRANCH  14  15
HETATM   15  C   UNL     1      14.822  54.047  49.796  1.00  0.00    -0.002 C 
HETATM   16  C   UNL     1      13.671  53.570  50.669  1.00  0.00     0.005 C 
ENDBRANCH  14  15
ENDBRANCH  13  14
ENDBRANCH  12  13
ENDBRANCH   9  12
ENDBRANCH   3   6
ENDBRANCH   1   2
BRANCH   1  17
HETATM   17  C   UNL     1      24.365  47.853  49.872  1.00  0.00     0.255 C 
HETATM   18  N   UNL     1      24.323  47.155  51.068  1.00  0.00    -0.246 N 
HETATM   19  H   UNL     1      23.486  46.611  51.297  1.00  0.00     0.192 HD
HETATM   20  O   UNL     1      25.250  48.646  49.553  1.00  0.00    -0.270 OA
BRANCH  18  21
HETATM   21  N   UNL     1      25.330  47.277  51.974  1.00  0.00    -0.184 NA
HETATM   22  C   UNL     1      25.453  46.283  52.796  1.00  0.00     0.153 C 
BRANCH  22  23
HETATM   23  C   UNL     1      26.494  46.293  53.842  1.00  0.00     0.016 A 
HETATM   24  C   UNL     1      26.606  47.335  54.772  1.00  0.00     0.080 A 
HETATM   25  C   UNL     1      27.595  47.303  55.754  1.00  0.00     0.074 A 
HETATM   26  C   UNL     1      28.475  46.227  55.795  1.00  0.00     0.068 A 
HETATM   27  C   UNL     1      28.381  45.187  54.875  1.00  0.00     0.037 A 
HETATM   28  C   UNL     1      27.387  45.216  53.895  1.00  0.00     0.018 A 
BRANCH  24  29
HETATM   29  O   UNL     1      25.774  48.422  54.786  1.00  0.00    -0.360 OA
HETATM   30  H   UNL     1      25.409  48.545  53.879  1.00  0.00     0.217 HD
ENDBRANCH  24  29
BRANCH  26  31
HETATM   31  O   UNL     1      29.460  46.151  56.737  1.00  0.00    -0.361 OA
HETATM   32  H   UNL     1      29.053  46.254  57.615  1.00  0.00     0.217 HD
ENDBRANCH  26  31
ENDBRANCH  22  23
ENDBRANCH  18  21
ENDBRANCH   1  17
TORSDOF 11
ENDMDL
MODEL 4
REMARK VINA RESULT:      -8.5      2.121      2.770
REMARK  11 active torsions:
REMARK  status: ('A' for Active; 'I' for Inactive)
REMARK    1  A    between atoms: C_2  and  C_3 
REMARK    2  A    between atoms: C_3  and  C_4 
REMARK    3  A    between atoms: C_4  and  O_5 
REMARK    4  A    between atoms: O_5  and  C_6 
REMARK    5  A    between atoms: C_9  and  C_10 
REMARK       I    between atoms: C_10  and  N_11 
REMARK    6  A    between atoms: N_11  and  C_12 
REMARK    7  A    between atoms: C_12  and  C_13 
REMARK       I    between atoms: C_13  and  N_14 
REMARK    8  A    between atoms: N_14  and  N_15 
REMARK    9  A    between atoms: C_16  and  C_17 
REMARK   10  A    between atoms: C_18  and  O_19 
REMARK   11  A    between atoms: C_21  and  O_22 
ROOT
HETATM    1  C   UNL     1      23.852  45.459  49.115  1.00  0.00     0.227 C 
ENDROOT
BRANCH   1   2
HETATM    2  N   UNL     1      24.523  45.851  50.351  1.00  0.00    -0.348 N 
HETATM    3  C   UNL     1      24.581  45.010  51.439  1.00  0.00     0.252 C 
HETATM    4  O   UNL     1      23.957  43.953  51.475  1.00  0.00    -0.268 OA
HETATM    5  H   UNL     1      25.137  46.653  50.302  1.00  0.00     0.163 HD
BRANCH   3   6
HETATM    6  C   UNL     1      25.397  45.445  52.604  1.00  0.00     0.032 A 
HETATM    7  C   UNL     1      25.933  44.536  53.524  1.00  0.00     0.020 A 
HETATM    8  C   UNL     1      26.763  44.990  54.556  1.00  0.00     0.038 A 
HETATM    9  C   UNL     1      27.074  46.347  54.661  1.00  0.00     0.068 A 
HETATM   10  C   UNL     1      26.508  47.256  53.768  1.00  0.00     0.038 A 
HETATM   11  C   UNL     1      25.681  46.809  52.735  1.00  0.00     0.020 A 
BRANCH   9  12
HETATM   12  O   UNL     1      27.911  46.892  55.594  1.00  0.00    -0.351 OA
BRANCH  12  13
HETATM   13  C   UNL     1      28.579  45.962  56.449  1.00  0.00     0.175 C 
BRANCH  13  14
HETATM   14  C   UNL     1      30.041  45.853  56.018  1.00  0.00     0.026 C 
BRANCH  14  15
HETATM   15  C   UNL     1      30.683  44.529  56.434  1.00  0.00    -0.002 C 
HETATM   16  C   UNL     1      30.594  43.502  55.314  1.00  0.00     0.005 C 
ENDBRANCH  14  15
ENDBRANCH  13  14
ENDBRANCH  12  13
ENDBRANCH   9  12
ENDBRANCH   3   6
ENDBRANCH   1   2
BRANCH   1  17
HETATM   17  C   UNL     1      22.524  46.180  48.850  1.00  0.00     0.255 C 
HETATM   18  N   UNL     1      22.537  47.517  49.212  1.00  0.00    -0.246 N 
HETATM   19  H   UNL     1      23.380  47.906  49.645  1.00  0.00     0.192 HD
HETATM   20  O   UNL     1      21.532  45.570  48.452  1.00  0.00    -0.270 OA
BRANCH  18  21
HETATM   21  N   UNL     1      21.414  48.275  49.094  1.00  0.00    -0.184 NA
HETATM   22  C   UNL     1      21.562  49.526  49.397  1.00  0.00     0.153 C 
BRANCH  22  23
HETATM   23  C   UNL     1      20.420  50.459  49.331  1.00  0.00     0.016 A 
HETATM   24  C   UNL     1      19.288  50.311  50.144  1.00  0.00     0.080 A 
HETATM   25  C   UNL     1      18.235  51.219  50.061  1.00  0.00     0.074 A 
HETATM   26  C   UNL     1      18.316  52.272  49.156  1.00  0.00     0.068 A 
HETATM   27  C   UNL     1      19.430  52.430  48.336  1.00  0.00     0.037 A 
HETATM   28  C   UNL     1      20.489  51.523  48.423  1.00  0.00     0.018 A 
BRANCH  24  29
HETATM   29  O   UNL     1      19.145  49.298  51.054  1.00  0.00    -0.360 OA
HETATM   30  H   UNL     1      19.312  48.442  50.594  1.00  0.00     0.217 HD
ENDBRANCH  24  29
BRANCH  26  31
HETATM   31  O   UNL     1      17.310  53.186  49.038  1.00  0.00    -0.361 OA
HETATM   32  H   UNL     1      17.705  54.057  48.863  1.00  0.00     0.217 HD
ENDBRANCH  26  31
ENDBRANCH  22  23
ENDBRANCH  18  21
ENDBRANCH   1  17
TORSDOF 11
ENDMDL
MODEL 5
REMARK VINA RESULT:      -8.4      2.816     10.503
REMARK  11 active torsions:
REMARK  status: ('A' for Active; 'I' for Inactive)
REMARK    1  A    between atoms: C_2  and  C_3 
REMARK    2  A    between atoms: C_3  and  C_4 
REMARK    3  A    between atoms: C_4  and  O_5 
REMARK    4  A    between atoms: O_5  and  C_6 
REMARK    5  A    between atoms: C_9  and  C_10 
REMARK       I    between atoms: C_10  and  N_11 
REMARK    6  A    between atoms: N_11  and  C_12 
REMARK    7  A    between atoms: C_12  and  C_13 
REMARK       I    between atoms: C_13  and  N_14 
REMARK    8  A    between atoms: N_14  and  N_15 
REMARK    9  A    between atoms: C_16  and  C_17 
REMARK   10  A    between atoms: C_18  and  O_19 
REMARK   11  A    between atoms: C_21  and  O_22 
ROOT
HETATM    1  C   UNL     1      26.667  41.837  50.615  1.00  0.00     0.227 C 
ENDROOT
BRANCH   1   2
HETATM    2  N   UNL     1      26.252  43.168  50.182  1.00  0.00    -0.348 N 
HETATM    3  C   UNL     1      25.075  43.735  50.618  1.00  0.00     0.252 C 
HETATM    4  O   UNL     1      24.255  43.100  51.275  1.00  0.00    -0.268 OA
HETATM    5  H   UNL     1      26.957  43.747  49.747  1.00  0.00     0.163 HD
BRANCH   3   6
HETATM    6  C   UNL     1      24.802  45.143  50.227  1.00  0.00     0.032 A 
HETATM    7  C   UNL     1      23.689  45.505  49.459  1.00  0.00     0.020 A 
HETATM    8  C   UNL     1      23.432  46.855  49.189  1.00  0.00     0.038 A 
HETATM    9  C   UNL     1      24.273  47.845  49.700  1.00  0.00     0.068 A 
HETATM   10  C   UNL     1      25.403  47.481  50.432  1.00  0.00     0.038 A 
HETATM   11  C   UNL     1      25.663  46.137  50.706  1.00  0.00     0.020 A 
BRANCH   9  12
HETATM   12  O   UNL     1      24.090  49.191  49.542  1.00  0.00    -0.351 OA
BRANCH  12  13
HETATM   13  C   UNL     1      24.215  49.683  48.207  1.00  0.00     0.175 C 
BRANCH  13  14
HETATM   14  C   UNL     1      22.892  50.322  47.787  1.00  0.00     0.026 C 
BRANCH  14  15
HETATM   15  C   UNL     1      22.005  50.683  48.978  1.00  0.00    -0.002 C 
HETATM   16  C   UNL     1      20.773  51.456  48.530  1.00  0.00     0.005 C 
ENDBRANCH  14  15
ENDBRANCH  13  14
ENDBRANCH  12  13
ENDBRANCH   9  12
ENDBRANCH   3   6
ENDBRANCH   1   2
BRANCH   1  17
HETATM   17  C   UNL     1      27.469  41.807  51.922  1.00  0.00     0.255 C 
HETATM   18  N   UNL     1      27.147  42.836  52.793  1.00  0.00    -0.246 N 
HETATM   19  H   UNL     1      26.456  43.534  52.504  1.00  0.00     0.192 HD
HETATM   20  O   UNL     1      28.377  40.996  52.099  1.00  0.00    -0.270 OA
BRANCH  18  21
HETATM   21  N   UNL     1      27.817  42.980  53.968  1.00  0.00    -0.184 NA
HETATM   22  C   UNL     1      28.699  43.929  53.985  1.00  0.00     0.153 C 
BRANCH  22  23
HETATM   23  C   UNL     1      29.511  44.185  55.191  1.00  0.00     0.016 A 
HETATM   24  C   UNL     1      29.335  45.331  55.978  1.00  0.00     0.080 A 
HETATM   25  C   UNL     1      30.113  45.531  57.117  1.00  0.00     0.074 A 
HETATM   26  C   UNL     1      31.071  44.582  57.460  1.00  0.00     0.068 A 
HETATM   27  C   UNL     1      31.261  43.442  56.686  1.00  0.00     0.037 A 
HETATM   28  C   UNL     1      30.478  43.238  55.547  1.00  0.00     0.018 A 
BRANCH  24  29
HETATM   29  O   UNL     1      28.413  46.303  55.696  1.00  0.00    -0.360 OA
HETATM   30  H   UNL     1      28.867  47.177  55.719  1.00  0.00     0.217 HD
ENDBRANCH  24  29
BRANCH  26  31
HETATM   31  O   UNL     1      31.856  44.735  58.566  1.00  0.00    -0.361 OA
HETATM   32  H   UNL     1      32.364  45.559  58.470  1.00  0.00     0.217 HD
ENDBRANCH  26  31
ENDBRANCH  22  23
ENDBRANCH  18  21
ENDBRANCH   1  17
TORSDOF 11
ENDMDL
MODEL 6
REMARK VINA RESULT:      -8.3      2.103     11.365
REMARK  11 active torsions:
REMARK  status: ('A' for Active; 'I' for Inactive)
REMARK    1  A    between atoms: C_2  and  C_3 
REMARK    2  A    between atoms: C_3  and  C_4 
REMARK    3  A    between atoms: C_4  and  O_5 
REMARK    4  A    between atoms: O_5  and  C_6 
REMARK    5  A    between atoms: C_9  and  C_10 
REMARK       I    between atoms: C_10  and  N_11 
REMARK    6  A    between atoms: N_11  and  C_12 
REMARK    7  A    between atoms: C_12  and  C_13 
REMARK       I    between atoms: C_13  and  N_14 
REMARK    8  A    between atoms: N_14  and  N_15 
REMARK    9  A    between atoms: C_16  and  C_17 
REMARK   10  A    between atoms: C_18  and  O_19 
REMARK   11  A    between atoms: C_21  and  O_22 
ROOT
HETATM    1  C   UNL     1      25.156  45.312  50.997  1.00  0.00     0.227 C 
ENDROOT
BRANCH   1   2
HETATM    2  N   UNL     1      24.228  46.311  50.475  1.00  0.00    -0.348 N 
HETATM    3  C   UNL     1      24.661  47.366  49.704  1.00  0.00     0.252 C 
HETATM    4  O   UNL     1      25.855  47.597  49.535  1.00  0.00    -0.268 OA
HETATM    5  H   UNL     1      23.245  46.076  50.500  1.00  0.00     0.163 HD
BRANCH   3   6
HETATM    6  C   UNL     1      23.628  48.256  49.111  1.00  0.00     0.032 A 
HETATM    7  C   UNL     1      23.817  49.637  48.975  1.00  0.00     0.020 A 
HETATM    8  C   UNL     1      22.848  50.418  48.334  1.00  0.00     0.038 A 
HETATM    9  C   UNL     1      21.699  49.821  47.811  1.00  0.00     0.068 A 
HETATM   10  C   UNL     1      21.494  48.453  47.982  1.00  0.00     0.038 A 
HETATM   11  C   UNL     1      22.458  47.668  48.619  1.00  0.00     0.020 A 
BRANCH   9  12
HETATM   12  O   UNL     1      20.716  50.477  47.125  1.00  0.00    -0.351 OA
BRANCH  12  13
HETATM   13  C   UNL     1      19.385  50.277  47.603  1.00  0.00     0.175 C 
BRANCH  13  14
HETATM   14  C   UNL     1      18.824  51.614  48.087  1.00  0.00     0.026 C 
BRANCH  14  15
HETATM   15  C   UNL     1      19.124  51.882  49.562  1.00  0.00    -0.002 C 
HETATM   16  C   UNL     1      19.152  50.587  50.360  1.00  0.00     0.005 C 
ENDBRANCH  14  15
ENDBRANCH  13  14
ENDBRANCH  12  13
ENDBRANCH   9  12
ENDBRANCH   3   6
ENDBRANCH   1   2
BRANCH   1  17
HETATM   17  C   UNL     1      25.784  45.666  52.352  1.00  0.00     0.255 C 
HETATM   18  N   UNL     1      26.761  44.773  52.761  1.00  0.00    -0.246 N 
HETATM   19  H   UNL     1      26.963  43.956  52.177  1.00  0.00     0.192 HD
HETATM   20  O   UNL     1      25.358  46.600  53.031  1.00  0.00    -0.270 OA
BRANCH  18  21
HETATM   21  N   UNL     1      27.366  44.918  53.970  1.00  0.00    -0.184 NA
HETATM   22  C   UNL     1      28.626  44.615  53.994  1.00  0.00     0.153 C 
BRANCH  22  23
HETATM   23  C   UNL     1      29.401  44.710  55.246  1.00  0.00     0.016 A 
HETATM   24  C   UNL     1      29.162  45.711  56.197  1.00  0.00     0.080 A 
HETATM   25  C   UNL     1      29.907  45.761  57.374  1.00  0.00     0.074 A 
HETATM   26  C   UNL     1      30.897  44.809  57.590  1.00  0.00     0.068 A 
HETATM   27  C   UNL     1      31.152  43.812  56.654  1.00  0.00     0.037 A 
HETATM   28  C   UNL     1      30.401  43.758  55.477  1.00  0.00     0.018 A 
BRANCH  24  29
HETATM   29  O   UNL     1      28.204  46.679  56.044  1.00  0.00    -0.360 OA
HETATM   30  H   UNL     1      28.509  47.309  55.351  1.00  0.00     0.217 HD
ENDBRANCH  24  29
BRANCH  26  31
HETATM   31  O   UNL     1      31.653  44.817  58.726  1.00  0.00    -0.361 OA
HETATM   32  H   UNL     1      31.123  45.205  59.444  1.00  0.00     0.217 HD
ENDBRANCH  26  31
ENDBRANCH  22  23
ENDBRANCH  18  21
ENDBRANCH   1  17
TORSDOF 11
ENDMDL
MODEL 7
REMARK VINA RESULT:      -7.9      2.320     11.733
REMARK  11 active torsions:
REMARK  status: ('A' for Active; 'I' for Inactive)
REMARK    1  A    between atoms: C_2  and  C_3 
REMARK    2  A    between atoms: C_3  and  C_4 
REMARK    3  A    between atoms: C_4  and  O_5 
REMARK    4  A    between atoms: O_5  and  C_6 
REMARK    5  A    between atoms: C_9  and  C_10 
REMARK       I    between atoms: C_10  and  N_11 
REMARK    6  A    between atoms: N_11  and  C_12 
REMARK    7  A    between atoms: C_12  and  C_13 
REMARK       I    between atoms: C_13  and  N_14 
REMARK    8  A    between atoms: N_14  and  N_15 
REMARK    9  A    between atoms: C_16  and  C_17 
REMARK   10  A    between atoms: C_18  and  O_19 
REMARK   11  A    between atoms: C_21  and  O_22 
ROOT
HETATM    1  C   UNL     1      23.622  46.703  49.187  1.00  0.00     0.227 C 
ENDROOT
BRANCH   1   2
HETATM    2  N   UNL     1      22.508  47.581  49.532  1.00  0.00    -0.348 N 
HETATM    3  C   UNL     1      22.113  48.606  48.703  1.00  0.00     0.252 C 
HETATM    4  O   UNL     1      22.760  48.920  47.707  1.00  0.00    -0.268 OA
HETATM    5  H   UNL     1      21.895  47.271  50.274  1.00  0.00     0.163 HD
BRANCH   3   6
HETATM    6  C   UNL     1      20.889  49.363  49.076  1.00  0.00     0.032 A 
HETATM    7  C   UNL     1      19.759  48.740  49.619  1.00  0.00     0.020 A 
HETATM    8  C   UNL     1      18.664  49.509  50.031  1.00  0.00     0.038 A 
HETATM    9  C   UNL     1      18.701  50.899  49.919  1.00  0.00     0.068 A 
HETATM   10  C   UNL     1      19.810  51.516  49.341  1.00  0.00     0.038 A 
HETATM   11  C   UNL     1      20.906  50.755  48.931  1.00  0.00     0.020 A 
BRANCH   9  12
HETATM   12  O   UNL     1      17.713  51.748  50.334  1.00  0.00    -0.351 OA
BRANCH  12  13
HETATM   13  C   UNL     1      17.286  52.720  49.378  1.00  0.00     0.175 C 
BRANCH  13  14
HETATM   14  C   UNL     1      16.118  53.513  49.963  1.00  0.00     0.026 C 
BRANCH  14  15
HETATM   15  C   UNL     1      14.815  52.714  49.992  1.00  0.00    -0.002 C 
HETATM   16  C   UNL     1      13.718  53.480  50.717  1.00  0.00     0.005 C 
ENDBRANCH  14  15
ENDBRANCH  13  14
ENDBRANCH  12  13
ENDBRANCH   9  12
ENDBRANCH   3   6
ENDBRANCH   1   2
BRANCH   1  17
HETATM   17  C   UNL     1      24.864  46.865  50.073  1.00  0.00     0.255 C 
HETATM   18  N   UNL     1      25.343  45.669  50.582  1.00  0.00    -0.246 N 
HETATM   19  H   UNL     1      24.838  44.803  50.372  1.00  0.00     0.192 HD
HETATM   20  O   UNL     1      25.301  47.978  50.367  1.00  0.00    -0.270 OA
BRANCH  18  21
HETATM   21  N   UNL     1      26.402  45.656  51.435  1.00  0.00    -0.184 NA
HETATM   22  C   UNL     1      26.094  45.616  52.693  1.00  0.00     0.153 C 
BRANCH  22  23
HETATM   23  C   UNL     1      27.146  45.616  53.728  1.00  0.00     0.016 A 
HETATM   24  C   UNL     1      28.019  44.534  53.902  1.00  0.00     0.080 A 
HETATM   25  C   UNL     1      29.009  44.575  54.883  1.00  0.00     0.074 A 
HETATM   26  C   UNL     1      29.115  45.702  55.692  1.00  0.00     0.068 A 
HETATM   27  C   UNL     1      28.252  46.782  55.536  1.00  0.00     0.037 A 
HETATM   28  C   UNL     1      27.264  46.743  54.549  1.00  0.00     0.018 A 
BRANCH  24  29
HETATM   29  O   UNL     1      27.967  43.396  53.142  1.00  0.00    -0.360 OA
HETATM   30  H   UNL     1      28.770  42.857  53.335  1.00  0.00     0.217 HD
ENDBRANCH  24  29
BRANCH  26  31
HETATM   31  O   UNL     1      30.067  45.788  56.666  1.00  0.00    -0.361 OA
HETATM   32  H   UNL     1      30.734  46.439  56.386  1.00  0.00     0.217 HD
ENDBRANCH  26  31
ENDBRANCH  22  23
ENDBRANCH  18  21
ENDBRANCH   1  17
TORSDOF 11
ENDMDL
MODEL 8
REMARK VINA RESULT:      -7.8      2.431      2.952
REMARK  11 active torsions:
REMARK  status: ('A' for Active; 'I' for Inactive)
REMARK    1  A    between atoms: C_2  and  C_3 
REMARK    2  A    between atoms: C_3  and  C_4 
REMARK    3  A    between atoms: C_4  and  O_5 
REMARK    4  A    between atoms: O_5  and  C_6 
REMARK    5  A    between atoms: C_9  and  C_10 
REMARK       I    between atoms: C_10  and  N_11 
REMARK    6  A    between atoms: N_11  and  C_12 
REMARK    7  A    between atoms: C_12  and  C_13 
REMARK       I    between atoms: C_13  and  N_14 
REMARK    8  A    between atoms: N_14  and  N_15 
REMARK    9  A    between atoms: C_16  and  C_17 
REMARK   10  A    between atoms: C_18  and  O_19 
REMARK   11  A    between atoms: C_21  and  O_22 
ROOT
HETATM    1  C   UNL     1      24.964  47.616  49.801  1.00  0.00     0.227 C 
ENDROOT
BRANCH   1   2
HETATM    2  N   UNL     1      25.417  47.287  51.150  1.00  0.00    -0.348 N 
HETATM    3  C   UNL     1      26.186  46.174  51.402  1.00  0.00     0.252 C 
HETATM    4  O   UNL     1      26.411  45.333  50.536  1.00  0.00    -0.268 OA
HETATM    5  H   UNL     1      25.348  48.018  51.845  1.00  0.00     0.163 HD
BRANCH   3   6
HETATM    6  C   UNL     1      26.707  45.994  52.783  1.00  0.00     0.032 A 
HETATM    7  C   UNL     1      27.217  44.772  53.238  1.00  0.00     0.020 A 
HETATM    8  C   UNL     1      27.772  44.677  54.520  1.00  0.00     0.038 A 
HETATM    9  C   UNL     1      27.837  45.804  55.341  1.00  0.00     0.068 A 
HETATM   10  C   UNL     1      27.293  47.010  54.902  1.00  0.00     0.038 A 
HETATM   11  C   UNL     1      26.740  47.112  53.624  1.00  0.00     0.020 A 
BRANCH   9  12
HETATM   12  O   UNL     1      28.401  45.837  56.586  1.00  0.00    -0.351 OA
BRANCH  12  13
HETATM   13  C   UNL     1      29.826  45.937  56.621  1.00  0.00     0.175 C 
BRANCH  13  14
HETATM   14  C   UNL     1      30.335  45.315  57.921  1.00  0.00     0.026 C 
BRANCH  14  15
HETATM   15  C   UNL     1      31.303  44.156  57.683  1.00  0.00    -0.002 C 
HETATM   16  C   UNL     1      31.132  43.578  56.286  1.00  0.00     0.005 C 
ENDBRANCH  14  15
ENDBRANCH  13  14
ENDBRANCH  12  13
ENDBRANCH   9  12
ENDBRANCH   3   6
ENDBRANCH   1   2
BRANCH   1  17
HETATM   17  C   UNL     1      23.588  47.047  49.431  1.00  0.00     0.255 C 
HETATM   18  N   UNL     1      22.595  48.009  49.342  1.00  0.00    -0.246 N 
HETATM   19  H   UNL     1      22.827  48.983  49.556  1.00  0.00     0.192 HD
HETATM   20  O   UNL     1      23.401  45.834  49.334  1.00  0.00    -0.270 OA
BRANCH  18  21
HETATM   21  N   UNL     1      21.309  47.652  49.082  1.00  0.00    -0.184 NA
HETATM   22  C   UNL     1      20.550  48.609  48.650  1.00  0.00     0.153 C 
BRANCH  22  23
HETATM   23  C   UNL     1      19.126  48.364  48.345  1.00  0.00     0.016 A 
HETATM   24  C   UNL     1      18.226  47.900  49.314  1.00  0.00     0.080 A 
HETATM   25  C   UNL     1      16.886  47.693  48.991  1.00  0.00     0.074 A 
HETATM   26  C   UNL     1      16.454  47.945  47.693  1.00  0.00     0.068 A 
HETATM   27  C   UNL     1      17.337  48.400  46.718  1.00  0.00     0.037 A 
HETATM   28  C   UNL     1      18.678  48.613  47.043  1.00  0.00     0.018 A 
BRANCH  24  29
HETATM   29  O   UNL     1      18.586  47.632  50.607  1.00  0.00    -0.360 OA
HETATM   30  H   UNL     1      18.516  48.466  51.128  1.00  0.00     0.217 HD
ENDBRANCH  24  29
BRANCH  26  31
HETATM   31  O   UNL     1      15.152  47.756  47.330  1.00  0.00    -0.361 OA
HETATM   32  H   UNL     1      14.706  47.256  48.035  1.00  0.00     0.217 HD
ENDBRANCH  26  31
ENDBRANCH  22  23
ENDBRANCH  18  21
ENDBRANCH   1  17
TORSDOF 11
ENDMDL
MODEL 9
REMARK VINA RESULT:      -7.8      1.958     11.665
REMARK  11 active torsions:
REMARK  status: ('A' for Active; 'I' for Inactive)
REMARK    1  A    between atoms: C_2  and  C_3 
REMARK    2  A    between atoms: C_3  and  C_4 
REMARK    3  A    between atoms: C_4  and  O_5 
REMARK    4  A    between atoms: O_5  and  C_6 
REMARK    5  A    between atoms: C_9  and  C_10 
REMARK       I    between atoms: C_10  and  N_11 
REMARK    6  A    between atoms: N_11  and  C_12 
REMARK    7  A    between atoms: C_12  and  C_13 
REMARK       I    between atoms: C_13  and  N_14 
REMARK    8  A    between atoms: N_14  and  N_15 
REMARK    9  A    between atoms: C_16  and  C_17 
REMARK   10  A    between atoms: C_18  and  O_19 
REMARK   11  A    between atoms: C_21  and  O_22 
ROOT
HETATM    1  C   UNL     1      24.084  45.932  49.689  1.00  0.00     0.227 C 
ENDROOT
BRANCH   1   2
HETATM    2  N   UNL     1      23.400  47.206  49.482  1.00  0.00    -0.348 N 
HETATM    3  C   UNL     1      22.661  47.452  48.348  1.00  0.00     0.252 C 
HETATM    4  O   UNL     1      22.653  46.674  47.398  1.00  0.00    -0.268 OA
HETATM    5  H   UNL     1      23.295  47.803  50.291  1.00  0.00     0.163 HD
BRANCH   3   6
HETATM    6  C   UNL     1      21.896  48.726  48.287  1.00  0.00     0.032 A 
HETATM    7  C   UNL     1      20.701  48.848  47.567  1.00  0.00     0.020 A 
HETATM    8  C   UNL     1      19.976  50.046  47.610  1.00  0.00     0.038 A 
HETATM    9  C   UNL     1      20.431  51.114  48.384  1.00  0.00     0.068 A 
HETATM   10  C   UNL     1      21.642  51.005  49.068  1.00  0.00     0.038 A 
HETATM   11  C   UNL     1      22.368  49.813  49.031  1.00  0.00     0.020 A 
BRANCH   9  12
HETATM   12  O   UNL     1      19.781  52.307  48.538  1.00  0.00    -0.351 OA
BRANCH  12  13
HETATM   13  C   UNL     1      18.366  52.272  48.346  1.00  0.00     0.175 C 
BRANCH  13  14
HETATM   14  C   UNL     1      17.686  52.051  49.697  1.00  0.00     0.026 C 
BRANCH  14  15
HETATM   15  C   UNL     1      16.579  53.068  49.976  1.00  0.00    -0.002 C 
HETATM   16  C   UNL     1      15.210  52.490  49.650  1.00  0.00     0.005 C 
ENDBRANCH  14  15
ENDBRANCH  13  14
ENDBRANCH  12  13
ENDBRANCH   9  12
ENDBRANCH   3   6
ENDBRANCH   1   2
BRANCH   1  17
HETATM   17  C   UNL     1      25.433  46.039  50.412  1.00  0.00     0.255 C 
HETATM   18  N   UNL     1      25.423  45.500  51.688  1.00  0.00    -0.246 N 
HETATM   19  H   UNL     1      24.548  45.119  52.059  1.00  0.00     0.192 HD
HETATM   20  O   UNL     1      26.381  46.647  49.914  1.00  0.00    -0.270 OA
BRANCH  18  21
HETATM   21  N   UNL     1      26.528  45.575  52.478  1.00  0.00    -0.184 NA
HETATM   22  C   UNL     1      26.928  44.444  52.969  1.00  0.00     0.153 C 
BRANCH  22  23
HETATM   23  C   UNL     1      28.106  44.382  53.857  1.00  0.00     0.016 A 
HETATM   24  C   UNL     1      28.347  45.349  54.843  1.00  0.00     0.080 A 
HETATM   25  C   UNL     1      29.464  45.250  55.671  1.00  0.00     0.074 A 
HETATM   26  C   UNL     1      30.341  44.183  55.503  1.00  0.00     0.068 A 
HETATM   27  C   UNL     1      30.118  43.218  54.525  1.00  0.00     0.037 A 
HETATM   28  C   UNL     1      28.996  43.314  53.699  1.00  0.00     0.018 A 
BRANCH  24  29
HETATM   29  O   UNL     1      27.526  46.423  55.059  1.00  0.00    -0.360 OA
HETATM   30  H   UNL     1      26.608  46.166  54.809  1.00  0.00     0.217 HD
ENDBRANCH  24  29
BRANCH  26  31
HETATM   31  O   UNL     1      31.447  44.044  56.289  1.00  0.00    -0.361 OA
HETATM   32  H   UNL     1      31.416  44.723  56.985  1.00  0.00     0.217 HD
ENDBRANCH  26  31
ENDBRANCH  22  23
ENDBRANCH  18  21
ENDBRANCH   1  17
TORSDOF 11
ENDMDL
MODEL 10
REMARK VINA RESULT:      -7.4      2.514      3.557
REMARK  11 active torsions:
REMARK  status: ('A' for Active; 'I' for Inactive)
REMARK    1  A    between atoms: C_2  and  C_3 
REMARK    2  A    between atoms: C_3  and  C_4 
REMARK    3  A    between atoms: C_4  and  O_5 
REMARK    4  A    between atoms: O_5  and  C_6 
REMARK    5  A    between atoms: C_9  and  C_10 
REMARK       I    between atoms: C_10  and  N_11 
REMARK    6  A    between atoms: N_11  and  C_12 
REMARK    7  A    between atoms: C_12  and  C_13 
REMARK       I    between atoms: C_13  and  N_14 
REMARK    8  A    between atoms: N_14  and  N_15 
REMARK    9  A    between atoms: C_16  and  C_17 
REMARK   10  A    between atoms: C_18  and  O_19 
REMARK   11  A    between atoms: C_21  and  O_22 
ROOT
HETATM    1  C   UNL     1      24.851  48.753  49.047  1.00  0.00     0.227 C 
ENDROOT
BRANCH   1   2
HETATM    2  N   UNL     1      25.028  47.849  50.180  1.00  0.00    -0.348 N 
HETATM    3  C   UNL     1      24.840  46.491  50.057  1.00  0.00     0.252 C 
HETATM    4  O   UNL     1      24.382  45.991  49.033  1.00  0.00    -0.268 OA
HETATM    5  H   UNL     1      25.515  48.218  50.986  1.00  0.00     0.163 HD
BRANCH   3   6
HETATM    6  C   UNL     1      25.169  45.640  51.230  1.00  0.00     0.032 A 
HETATM    7  C   UNL     1      24.922  44.262  51.250  1.00  0.00     0.020 A 
HETATM    8  C   UNL     1      25.327  43.492  52.346  1.00  0.00     0.038 A 
HETATM    9  C   UNL     1      25.996  44.090  53.415  1.00  0.00     0.068 A 
HETATM   10  C   UNL     1      26.207  45.469  53.413  1.00  0.00     0.038 A 
HETATM   11  C   UNL     1      25.807  46.242  52.321  1.00  0.00     0.020 A 
BRANCH   9  12
HETATM   12  O   UNL     1      26.480  43.429  54.510  1.00  0.00    -0.351 OA
BRANCH  12  13
HETATM   13  C   UNL     1      27.891  43.206  54.529  1.00  0.00     0.175 C 
BRANCH  13  14
HETATM   14  C   UNL     1      28.185  41.831  53.932  1.00  0.00     0.026 C 
BRANCH  14  15
HETATM   15  C   UNL     1      29.302  41.865  52.888  1.00  0.00    -0.002 C 
HETATM   16  C   UNL     1      29.655  43.296  52.510  1.00  0.00     0.005 C 
ENDBRANCH  14  15
ENDBRANCH  13  14
ENDBRANCH  12  13
ENDBRANCH   9  12
ENDBRANCH   3   6
ENDBRANCH   1   2
BRANCH   1  17
HETATM   17  C   UNL     1      23.390  49.042  48.679  1.00  0.00     0.255 C 
HETATM   18  N   UNL     1      22.631  49.505  49.742  1.00  0.00    -0.246 N 
HETATM   19  H   UNL     1      23.067  49.584  50.666  1.00  0.00     0.192 HD
HETATM   20  O   UNL     1      22.944  48.775  47.563  1.00  0.00    -0.270 OA
BRANCH  18  21
HETATM   21  N   UNL     1      21.302  49.747  49.588  1.00  0.00    -0.184 NA
HETATM   22  C   UNL     1      20.979  50.999  49.496  1.00  0.00     0.153 C 
BRANCH  22  23
HETATM   23  C   UNL     1      19.568  51.405  49.343  1.00  0.00     0.016 A 
HETATM   24  C   UNL     1      18.537  50.804  50.077  1.00  0.00     0.080 A 
HETATM   25  C   UNL     1      17.217  51.223  49.914  1.00  0.00     0.074 A 
HETATM   26  C   UNL     1      16.935  52.241  49.009  1.00  0.00     0.068 A 
HETATM   27  C   UNL     1      17.948  52.844  48.268  1.00  0.00     0.037 A 
HETATM   28  C   UNL     1      19.271  52.428  48.435  1.00  0.00     0.018 A 
BRANCH  24  29
HETATM   29  O   UNL     1      18.745  49.798  50.982  1.00  0.00    -0.360 OA
HETATM   30  H   UNL     1      19.715  49.720  51.140  1.00  0.00     0.217 HD
ENDBRANCH  24  29
BRANCH  26  31
HETATM   31  O   UNL     1      15.660  52.685  48.815  1.00  0.00    -0.361 OA
HETATM   32  H   UNL     1      15.573  52.975  47.890  1.00  0.00     0.217 HD
ENDBRANCH  26  31
ENDBRANCH  22  23
ENDBRANCH  18  21
ENDBRANCH   1  17
TORSDOF 11
ENDMDL
