MODEL 1
REMARK VINA RESULT:      -9.1      0.000      0.000
REMARK  9 active torsions:
REMARK  status: ('A' for Active; 'I' for Inactive)
REMARK    1  A    between atoms: C_3  and  N_4 
REMARK       I    between atoms: N_4  and  C_5 
REMARK    2  A    between atoms: C_5  and  C_6 
REMARK    3  A    between atoms: C_6  and  O_7 
REMARK    4  A    between atoms: O_7  and  C_8 
REMARK    5  A    between atoms: C_8  and  C_9 
REMARK    6  A    between atoms: C_9  and  N_10 
REMARK    7  A    between atoms: C_9  and  C_18 
REMARK       I    between atoms: N_10  and  C_11 
REMARK    8  A    between atoms: C_11  and  C_12 
REMARK    9  A    between atoms: C_18  and  C_19 
ROOT
HETATM    1  C   UNL     1      25.472  45.872  51.058  1.00  0.00     0.189 C 
ENDROOT
BRANCH   1   2
HETATM    2  C   UNL     1      25.347  45.940  52.588  1.00  0.00     0.282 C 
HETATM    3  O   UNL     1      25.095  44.984  53.317  1.00  0.00    -0.263 OA
BRANCH   2   4
HETATM    4  O   UNL     1      25.580  47.200  53.042  1.00  0.00    -0.311 OA
BRANCH   4   5
HETATM    5  C   UNL     1      26.045  47.314  54.385  1.00  0.00     0.281 C 
BRANCH   5   6
HETATM    6  C   UNL     1      27.513  46.936  54.659  1.00  0.00     0.246 C 
HETATM    7  N   UNL     1      27.661  45.642  55.127  1.00  0.00    -0.324 N 
HETATM    8  H   UNL     1      26.791  45.181  55.389  1.00  0.00     0.169 HD
HETATM    9  O   UNL     1      28.404  47.777  54.564  1.00  0.00    -0.271 OA
BRANCH   7  10
HETATM   10  C   UNL     1      28.849  45.024  55.576  1.00  0.00     0.046 A 
HETATM   11  C   UNL     1      29.472  44.107  54.690  1.00  0.00    -0.035 A 
HETATM   12  C   UNL     1      28.881  43.757  53.350  1.00  0.00     0.050 C 
HETATM   13  C   UNL     1      30.662  43.467  55.073  1.00  0.00     0.009 A 
HETATM   14  C   UNL     1      31.235  43.721  56.313  1.00  0.00     0.001 A 
HETATM   15  C   UNL     1      30.640  44.638  57.172  1.00  0.00     0.009 A 
HETATM   16  C   UNL     1      29.463  45.322  56.811  1.00  0.00    -0.035 A 
HETATM   17  C   UNL     1      28.977  46.380  57.764  1.00  0.00     0.050 C 
ENDBRANCH   7  10
ENDBRANCH   5   6
ENDBRANCH   4   5
ENDBRANCH   2   4
ENDBRANCH   1   2
BRANCH   1  18
HETATM   18  N   UNL     1      25.089  44.550  50.570  1.00  0.00    -0.341 N 
HETATM   19  C   UNL     1      25.894  43.868  49.678  1.00  0.00     0.276 C 
HETATM   20  O   UNL     1      27.046  44.222  49.441  1.00  0.00    -0.265 OA
HETATM   21  H   UNL     1      24.110  44.279  50.575  1.00  0.00     0.163 HD
BRANCH  19  22
HETATM   22  C   UNL     1      25.257  42.744  49.028  1.00  0.00     0.142 A 
HETATM   23  O   UNL     1      25.933  41.558  48.906  1.00  0.00    -0.317 OA
HETATM   24  C   UNL     1      25.092  40.681  48.296  1.00  0.00     0.143 A 
HETATM   25  C   UNL     1      23.887  41.279  48.018  1.00  0.00     0.027 A 
HETATM   26  C   UNL     1      23.990  42.609  48.489  1.00  0.00     0.045 A 
ENDBRANCH  19  22
ENDBRANCH   1  18
BRANCH   1  27
HETATM   27  C   UNL     1      24.573  46.982  50.479  1.00  0.00     0.074 C 
BRANCH  27  28
HETATM   28  C   UNL     1      25.277  48.073  49.700  1.00  0.00    -0.056 A 
HETATM   29  C   UNL     1      26.678  48.147  49.738  1.00  0.00     0.007 A 
HETATM   30  C   UNL     1      27.362  49.117  49.004  1.00  0.00     0.001 A 
HETATM   31  C   UNL     1      26.655  50.021  48.217  1.00  0.00     0.000 A 
HETATM   32  C   UNL     1      25.265  49.950  48.159  1.00  0.00     0.001 A 
HETATM   33  C   UNL     1      24.578  48.978  48.890  1.00  0.00     0.007 A 
ENDBRANCH  27  28
ENDBRANCH   1  27
TORSDOF 9
ENDMDL
MODEL 2
REMARK VINA RESULT:      -9.1      3.085      4.621
REMARK  9 active torsions:
REMARK  status: ('A' for Active; 'I' for Inactive)
REMARK    1  A    between atoms: C_3  and  N_4 
REMARK       I    between atoms: N_4  and  C_5 
REMARK    2  A    between atoms: C_5  and  C_6 
REMARK    3  A    between atoms: C_6  and  O_7 
REMARK    4  A    between atoms: O_7  and  C_8 
REMARK    5  A    between atoms: C_8  and  C_9 
REMARK    6  A    between atoms: C_9  and  N_10 
REMARK    7  A    between atoms: C_9  and  C_18 
REMARK       I    between atoms: N_10  and  C_11 
REMARK    8  A    between atoms: C_11  and  C_12 
REMARK    9  A    between atoms: C_18  and  C_19 
ROOT
HETATM    1  C   UNL     1      23.572  46.087  49.250  1.00  0.00     0.189 C 
ENDROOT
BRANCH   1   2
HETATM    2  C   UNL     1      23.689  44.623  49.707  1.00  0.00     0.282 C 
HETATM    3  O   UNL     1      23.631  43.648  48.963  1.00  0.00    -0.263 OA
BRANCH   2   4
HETATM    4  O   UNL     1      23.892  44.544  51.048  1.00  0.00    -0.311 OA
BRANCH   4   5
HETATM    5  C   UNL     1      24.725  43.479  51.500  1.00  0.00     0.281 C 
BRANCH   5   6
HETATM    6  C   UNL     1      26.162  43.836  51.924  1.00  0.00     0.246 C 
HETATM    7  N   UNL     1      26.468  43.416  53.207  1.00  0.00    -0.324 N 
HETATM    8  H   UNL     1      25.670  43.092  53.752  1.00  0.00     0.169 HD
HETATM    9  O   UNL     1      26.876  44.525  51.200  1.00  0.00    -0.271 OA
BRANCH   7  10
HETATM   10  C   UNL     1      27.650  43.678  53.936  1.00  0.00     0.046 A 
HETATM   11  C   UNL     1      28.616  42.641  53.989  1.00  0.00    -0.035 A 
HETATM   12  C   UNL     1      28.388  41.296  53.349  1.00  0.00     0.050 C 
HETATM   13  C   UNL     1      29.817  42.842  54.688  1.00  0.00     0.009 A 
HETATM   14  C   UNL     1      30.069  44.048  55.330  1.00  0.00     0.001 A 
HETATM   15  C   UNL     1      29.134  45.075  55.257  1.00  0.00     0.009 A 
HETATM   16  C   UNL     1      27.932  44.921  54.541  1.00  0.00    -0.035 A 
HETATM   17  C   UNL     1      27.054  46.137  54.426  1.00  0.00     0.050 C 
ENDBRANCH   7  10
ENDBRANCH   5   6
ENDBRANCH   4   5
ENDBRANCH   2   4
ENDBRANCH   1   2
BRANCH   1  18
HETATM   18  N   UNL     1      22.174  46.506  49.225  1.00  0.00    -0.341 N 
HETATM   19  C   UNL     1      21.631  47.076  48.089  1.00  0.00     0.276 C 
HETATM   20  O   UNL     1      22.208  47.043  47.006  1.00  0.00    -0.265 OA
HETATM   21  H   UNL     1      21.702  46.727  50.096  1.00  0.00     0.163 HD
BRANCH  19  22
HETATM   22  C   UNL     1      20.363  47.740  48.296  1.00  0.00     0.142 A 
HETATM   23  O   UNL     1      19.989  48.110  49.563  1.00  0.00    -0.317 OA
HETATM   24  C   UNL     1      18.787  48.736  49.456  1.00  0.00     0.143 A 
HETATM   25  C   UNL     1      18.375  48.775  48.145  1.00  0.00     0.027 A 
HETATM   26  C   UNL     1      19.389  48.134  47.396  1.00  0.00     0.045 A 
ENDBRANCH  19  22
ENDBRANCH   1  18
BRANCH   1  27
HETATM   27  C   UNL     1      24.410  46.935  50.228  1.00  0.00     0.074 C 
BRANCH  27  28
HETATM   28  C   UNL     1      25.329  47.962  49.601  1.00  0.00    -0.056 A 
HETATM   29  C   UNL     1      24.773  49.014  48.856  1.00  0.00     0.007 A 
HETATM   30  C   UNL     1      25.586  49.999  48.294  1.00  0.00     0.001 A 
HETATM   31  C   UNL     1      26.965  49.950  48.476  1.00  0.00     0.000 A 
HETATM   32  C   UNL     1      27.529  48.919  49.225  1.00  0.00     0.001 A 
HETATM   33  C   UNL     1      26.716  47.934  49.791  1.00  0.00     0.007 A 
ENDBRANCH  27  28
ENDBRANCH   1  27
TORSDOF 9
ENDMDL
MODEL 3
REMARK VINA RESULT:      -9.0      3.229      4.842
REMARK  9 active torsions:
REMARK  status: ('A' for Active; 'I' for Inactive)
REMARK    1  A    between atoms: C_3  and  N_4 
REMARK       I    between atoms: N_4  and  C_5 
REMARK    2  A    between atoms: C_5  and  C_6 
REMARK    3  A    between atoms: C_6  and  O_7 
REMARK    4  A    between atoms: O_7  and  C_8 
REMARK    5  A    between atoms: C_8  and  C_9 
REMARK    6  A    between atoms: C_9  and  N_10 
REMARK    7  A    between atoms: C_9  and  C_18 
REMARK       I    between atoms: N_10  and  C_11 
REMARK    8  A    between atoms: C_11  and  C_12 
REMARK    9  A    between atoms: C_18  and  C_19 
ROOT
HETATM    1  C   UNL     1      23.530  46.172  49.182  1.00  0.00     0.189 C 
ENDROOT
BRANCH   1   2
HETATM    2  C   UNL     1      23.635  44.693  49.590  1.00  0.00     0.282 C 
HETATM    3  O   UNL     1      23.484  43.741  48.828  1.00  0.00    -0.263 OA
BRANCH   2   4
HETATM    4  O   UNL     1      23.947  44.569  50.906  1.00  0.00    -0.311 OA
BRANCH   4   5
HETATM    5  C   UNL     1      24.706  43.419  51.272  1.00  0.00     0.281 C 
BRANCH   5   6
HETATM    6  C   UNL     1      26.174  43.641  51.682  1.00  0.00     0.246 C 
HETATM    7  N   UNL     1      26.420  43.325  53.006  1.00  0.00    -0.324 N 
HETATM    8  H   UNL     1      25.587  43.160  53.568  1.00  0.00     0.169 HD
HETATM    9  O   UNL     1      26.970  44.157  50.901  1.00  0.00    -0.271 OA
BRANCH   7  10
HETATM   10  C   UNL     1      27.623  43.517  53.724  1.00  0.00     0.046 A 
HETATM   11  C   UNL     1      27.789  44.763  54.380  1.00  0.00    -0.035 A 
HETATM   12  C   UNL     1      26.765  45.864  54.285  1.00  0.00     0.050 C 
HETATM   13  C   UNL     1      28.957  45.012  55.119  1.00  0.00     0.009 A 
HETATM   14  C   UNL     1      29.954  44.049  55.212  1.00  0.00     0.001 A 
HETATM   15  C   UNL     1      29.781  42.817  54.591  1.00  0.00     0.009 A 
HETATM   16  C   UNL     1      28.611  42.520  53.866  1.00  0.00    -0.035 A 
HETATM   17  C   UNL     1      28.480  41.116  53.342  1.00  0.00     0.050 C 
ENDBRANCH   7  10
ENDBRANCH   5   6
ENDBRANCH   4   5
ENDBRANCH   2   4
ENDBRANCH   1   2
BRANCH   1  18
HETATM   18  N   UNL     1      22.135  46.604  49.176  1.00  0.00    -0.341 N 
HETATM   19  C   UNL     1      21.596  47.224  48.067  1.00  0.00     0.276 C 
HETATM   20  O   UNL     1      22.171  47.231  46.982  1.00  0.00    -0.265 OA
HETATM   21  H   UNL     1      21.666  46.792  50.058  1.00  0.00     0.163 HD
BRANCH  19  22
HETATM   22  C   UNL     1      20.334  47.890  48.302  1.00  0.00     0.142 A 
HETATM   23  O   UNL     1      19.454  48.064  47.265  1.00  0.00    -0.317 OA
HETATM   24  C   UNL     1      18.353  48.678  47.775  1.00  0.00     0.143 A 
HETATM   25  C   UNL     1      18.506  48.907  49.121  1.00  0.00     0.027 A 
HETATM   26  C   UNL     1      19.782  48.401  49.463  1.00  0.00     0.045 A 
ENDBRANCH  19  22
ENDBRANCH   1  18
BRANCH   1  27
HETATM   27  C   UNL     1      24.379  46.979  50.184  1.00  0.00     0.074 C 
BRANCH  27  28
HETATM   28  C   UNL     1      25.270  48.051  49.592  1.00  0.00    -0.056 A 
HETATM   29  C   UNL     1      26.658  47.971  49.782  1.00  0.00     0.007 A 
HETATM   30  C   UNL     1      27.512  48.921  49.221  1.00  0.00     0.001 A 
HETATM   31  C   UNL     1      26.991  49.959  48.456  1.00  0.00     0.000 A 
HETATM   32  C   UNL     1      25.616  50.043  48.247  1.00  0.00     0.001 A 
HETATM   33  C   UNL     1      24.759  49.091  48.805  1.00  0.00     0.007 A 
ENDBRANCH  27  28
ENDBRANCH   1  27
TORSDOF 9
ENDMDL
MODEL 4
REMARK VINA RESULT:      -8.9      2.404      3.198
REMARK  9 active torsions:
REMARK  status: ('A' for Active; 'I' for Inactive)
REMARK    1  A    between atoms: C_3  and  N_4 
REMARK       I    between atoms: N_4  and  C_5 
REMARK    2  A    between atoms: C_5  and  C_6 
REMARK    3  A    between atoms: C_6  and  O_7 
REMARK    4  A    between atoms: O_7  and  C_8 
REMARK    5  A    between atoms: C_8  and  C_9 
REMARK    6  A    between atoms: C_9  and  N_10 
REMARK    7  A    between atoms: C_9  and  C_18 
REMARK       I    between atoms: N_10  and  C_11 
REMARK    8  A    between atoms: C_11  and  C_12 
REMARK    9  A    between atoms: C_18  and  C_19 
ROOT
HETATM    1  C   UNL     1      24.526  45.537  50.204  1.00  0.00     0.189 C 
ENDROOT
BRANCH   1   2
HETATM    2  C   UNL     1      24.942  44.505  51.264  1.00  0.00     0.282 C 
HETATM    3  O   UNL     1      24.170  43.762  51.864  1.00  0.00    -0.263 OA
BRANCH   2   4
HETATM    4  O   UNL     1      26.290  44.498  51.437  1.00  0.00    -0.311 OA
BRANCH   4   5
HETATM    5  C   UNL     1      26.831  43.390  52.153  1.00  0.00     0.281 C 
BRANCH   5   6
HETATM    6  C   UNL     1      27.241  43.627  53.619  1.00  0.00     0.246 C 
HETATM    7  N   UNL     1      28.350  44.446  53.745  1.00  0.00    -0.324 N 
HETATM    8  H   UNL     1      28.842  44.637  52.873  1.00  0.00     0.169 HD
HETATM    9  O   UNL     1      26.676  43.030  54.532  1.00  0.00    -0.271 OA
BRANCH   7  10
HETATM   10  C   UNL     1      29.045  44.771  54.931  1.00  0.00     0.046 A 
HETATM   11  C   UNL     1      30.153  43.953  55.272  1.00  0.00    -0.035 A 
HETATM   12  C   UNL     1      30.553  42.758  54.448  1.00  0.00     0.050 C 
HETATM   13  C   UNL     1      30.892  44.229  56.434  1.00  0.00     0.009 A 
HETATM   14  C   UNL     1      30.548  45.296  57.254  1.00  0.00     0.001 A 
HETATM   15  C   UNL     1      29.478  46.115  56.908  1.00  0.00     0.009 A 
HETATM   16  C   UNL     1      28.732  45.887  55.736  1.00  0.00    -0.035 A 
HETATM   17  C   UNL     1      27.679  46.906  55.398  1.00  0.00     0.050 C 
ENDBRANCH   7  10
ENDBRANCH   5   6
ENDBRANCH   4   5
ENDBRANCH   2   4
ENDBRANCH   1   2
BRANCH   1  18
HETATM   18  N   UNL     1      23.132  45.342  49.817  1.00  0.00    -0.341 N 
HETATM   19  C   UNL     1      22.809  44.593  48.703  1.00  0.00     0.276 C 
HETATM   20  O   UNL     1      23.634  43.882  48.137  1.00  0.00    -0.265 OA
HETATM   21  H   UNL     1      22.432  46.017  50.112  1.00  0.00     0.163 HD
BRANCH  19  22
HETATM   22  C   UNL     1      21.446  44.751  48.245  1.00  0.00     0.142 A 
HETATM   23  O   UNL     1      20.977  43.963  47.225  1.00  0.00    -0.317 OA
HETATM   24  C   UNL     1      19.674  44.298  47.030  1.00  0.00     0.143 A 
HETATM   25  C   UNL     1      19.293  45.290  47.900  1.00  0.00     0.027 A 
HETATM   26  C   UNL     1      20.433  45.584  48.685  1.00  0.00     0.045 A 
ENDBRANCH  19  22
ENDBRANCH   1  18
BRANCH   1  27
HETATM   27  C   UNL     1      24.766  46.933  50.813  1.00  0.00     0.074 C 
BRANCH  27  28
HETATM   28  C   UNL     1      25.406  47.958  49.900  1.00  0.00    -0.056 A 
HETATM   29  C   UNL     1      24.587  48.771  49.102  1.00  0.00     0.007 A 
HETATM   30  C   UNL     1      25.140  49.751  48.276  1.00  0.00     0.001 A 
HETATM   31  C   UNL     1      26.519  49.935  48.243  1.00  0.00     0.000 A 
HETATM   32  C   UNL     1      27.343  49.144  49.042  1.00  0.00     0.001 A 
HETATM   33  C   UNL     1      26.791  48.166  49.871  1.00  0.00     0.007 A 
ENDBRANCH  27  28
ENDBRANCH   1  27
TORSDOF 9
ENDMDL
MODEL 5
REMARK VINA RESULT:      -8.7      2.466      6.918
REMARK  9 active torsions:
REMARK  status: ('A' for Active; 'I' for Inactive)
REMARK    1  A    between atoms: C_3  and  N_4 
REMARK       I    between atoms: N_4  and  C_5 
REMARK    2  A    between atoms: C_5  and  C_6 
REMARK    3  A    between atoms: C_6  and  O_7 
REMARK    4  A    between atoms: O_7  and  C_8 
REMARK    5  A    between atoms: C_8  and  C_9 
REMARK    6  A    between atoms: C_9  and  N_10 
REMARK    7  A    between atoms: C_9  and  C_18 
REMARK       I    between atoms: N_10  and  C_11 
REMARK    8  A    between atoms: C_11  and  C_12 
REMARK    9  A    between atoms: C_18  and  C_19 
ROOT
HETATM    1  C   UNL     1      26.394  45.515  52.103  1.00  0.00     0.189 C 
ENDROOT
BRANCH   1   2
HETATM    2  C   UNL     1      25.221  44.522  52.126  1.00  0.00     0.282 C 
HETATM    3  O   UNL     1      24.662  44.117  53.142  1.00  0.00    -0.263 OA
BRANCH   2   4
HETATM    4  O   UNL     1      24.857  44.165  50.866  1.00  0.00    -0.311 OA
BRANCH   4   5
HETATM    5  C   UNL     1      24.791  42.767  50.598  1.00  0.00     0.281 C 
BRANCH   5   6
HETATM    6  C   UNL     1      26.043  42.101  49.997  1.00  0.00     0.246 C 
HETATM    7  N   UNL     1      26.182  40.775  50.369  1.00  0.00    -0.324 N 
HETATM    8  H   UNL     1      25.554  40.471  51.112  1.00  0.00     0.169 HD
HETATM    9  O   UNL     1      26.857  42.762  49.356  1.00  0.00    -0.271 OA
BRANCH   7  10
HETATM   10  C   UNL     1      27.267  39.915  50.085  1.00  0.00     0.046 A 
HETATM   11  C   UNL     1      27.197  39.165  48.883  1.00  0.00    -0.035 A 
HETATM   12  C   UNL     1      26.006  39.230  47.964  1.00  0.00     0.050 C 
HETATM   13  C   UNL     1      28.248  38.300  48.539  1.00  0.00     0.009 A 
HETATM   14  C   UNL     1      29.357  38.170  49.366  1.00  0.00     0.001 A 
HETATM   15  C   UNL     1      29.439  38.923  50.531  1.00  0.00     0.009 A 
HETATM   16  C   UNL     1      28.419  39.823  50.895  1.00  0.00    -0.035 A 
HETATM   17  C   UNL     1      28.671  40.674  52.109  1.00  0.00     0.050 C 
ENDBRANCH   7  10
ENDBRANCH   5   6
ENDBRANCH   4   5
ENDBRANCH   2   4
ENDBRANCH   1   2
BRANCH   1  18
HETATM   18  N   UNL     1      26.099  46.639  51.219  1.00  0.00    -0.341 N 
HETATM   19  C   UNL     1      26.726  46.754  49.994  1.00  0.00     0.276 C 
HETATM   20  O   UNL     1      27.363  45.828  49.501  1.00  0.00    -0.265 OA
HETATM   21  H   UNL     1      25.739  47.503  51.613  1.00  0.00     0.163 HD
BRANCH  19  22
HETATM   22  C   UNL     1      26.603  48.055  49.374  1.00  0.00     0.142 A 
HETATM   23  O   UNL     1      25.359  48.549  49.075  1.00  0.00    -0.317 OA
HETATM   24  C   UNL     1      25.540  49.786  48.542  1.00  0.00     0.143 A 
HETATM   25  C   UNL     1      26.876  50.100  48.486  1.00  0.00     0.027 A 
HETATM   26  C   UNL     1      27.564  48.985  49.022  1.00  0.00     0.045 A 
ENDBRANCH  19  22
ENDBRANCH   1  18
BRANCH   1  27
HETATM   27  C   UNL     1      26.630  45.971  53.556  1.00  0.00     0.074 C 
BRANCH  27  28
HETATM   28  C   UNL     1      27.842  45.386  54.251  1.00  0.00    -0.056 A 
HETATM   29  C   UNL     1      28.353  44.153  53.816  1.00  0.00     0.007 A 
HETATM   30  C   UNL     1      29.489  43.601  54.408  1.00  0.00     0.001 A 
HETATM   31  C   UNL     1      30.134  44.278  55.440  1.00  0.00     0.000 A 
HETATM   32  C   UNL     1      29.645  45.509  55.873  1.00  0.00     0.001 A 
HETATM   33  C   UNL     1      28.510  46.065  55.278  1.00  0.00     0.007 A 
ENDBRANCH  27  28
ENDBRANCH   1  27
TORSDOF 9
ENDMDL
MODEL 6
REMARK VINA RESULT:      -8.6      2.786      8.704
REMARK  9 active torsions:
REMARK  status: ('A' for Active; 'I' for Inactive)
REMARK    1  A    between atoms: C_3  and  N_4 
REMARK       I    between atoms: N_4  and  C_5 
REMARK    2  A    between atoms: C_5  and  C_6 
REMARK    3  A    between atoms: C_6  and  O_7 
REMARK    4  A    between atoms: O_7  and  C_8 
REMARK    5  A    between atoms: C_8  and  C_9 
REMARK    6  A    between atoms: C_9  and  N_10 
REMARK    7  A    between atoms: C_9  and  C_18 
REMARK       I    between atoms: N_10  and  C_11 
REMARK    8  A    between atoms: C_11  and  C_12 
REMARK    9  A    between atoms: C_18  and  C_19 
ROOT
HETATM    1  C   UNL     1      25.743  45.127  50.555  1.00  0.00     0.189 C 
ENDROOT
BRANCH   1   2
HETATM    2  C   UNL     1      24.386  44.421  50.398  1.00  0.00     0.282 C 
HETATM    3  O   UNL     1      23.784  43.846  51.302  1.00  0.00    -0.263 OA
BRANCH   2   4
HETATM    4  O   UNL     1      23.919  44.535  49.127  1.00  0.00    -0.311 OA
BRANCH   4   5
HETATM    5  C   UNL     1      22.588  45.026  48.984  1.00  0.00     0.281 C 
BRANCH   5   6
HETATM    6  C   UNL     1      22.412  46.424  48.361  1.00  0.00     0.246 C 
HETATM    7  N   UNL     1      22.136  47.403  49.299  1.00  0.00    -0.324 N 
HETATM    8  H   UNL     1      21.916  47.053  50.230  1.00  0.00     0.169 HD
HETATM    9  O   UNL     1      22.413  46.570  47.141  1.00  0.00    -0.271 OA
BRANCH   7  10
HETATM   10  C   UNL     1      21.813  48.757  49.054  1.00  0.00     0.046 A 
HETATM   11  C   UNL     1      20.458  49.138  49.231  1.00  0.00    -0.035 A 
HETATM   12  C   UNL     1      19.388  48.147  49.611  1.00  0.00     0.050 C 
HETATM   13  C   UNL     1      20.074  50.470  49.013  1.00  0.00     0.009 A 
HETATM   14  C   UNL     1      21.009  51.422  48.625  1.00  0.00     0.001 A 
HETATM   15  C   UNL     1      22.342  51.056  48.476  1.00  0.00     0.009 A 
HETATM   16  C   UNL     1      22.770  49.736  48.714  1.00  0.00    -0.035 A 
HETATM   17  C   UNL     1      24.251  49.484  48.643  1.00  0.00     0.050 C 
ENDBRANCH   7  10
ENDBRANCH   5   6
ENDBRANCH   4   5
ENDBRANCH   2   4
ENDBRANCH   1   2
BRANCH   1  18
HETATM   18  N   UNL     1      25.943  45.552  51.938  1.00  0.00    -0.341 N 
HETATM   19  C   UNL     1      25.672  46.851  52.321  1.00  0.00     0.276 C 
HETATM   20  O   UNL     1      25.047  47.623  51.600  1.00  0.00    -0.265 OA
HETATM   21  H   UNL     1      26.600  45.047  52.525  1.00  0.00     0.163 HD
BRANCH  19  22
HETATM   22  C   UNL     1      26.218  47.226  53.607  1.00  0.00     0.142 A 
HETATM   23  O   UNL     1      25.601  48.201  54.347  1.00  0.00    -0.317 OA
HETATM   24  C   UNL     1      26.298  48.321  55.508  1.00  0.00     0.143 A 
HETATM   25  C   UNL     1      27.356  47.444  55.531  1.00  0.00     0.027 A 
HETATM   26  C   UNL     1      27.306  46.737  54.306  1.00  0.00     0.045 A 
ENDBRANCH  19  22
ENDBRANCH   1  18
BRANCH   1  27
HETATM   27  C   UNL     1      26.827  44.133  50.094  1.00  0.00     0.074 C 
BRANCH  27  28
HETATM   28  C   UNL     1      27.471  43.297  51.180  1.00  0.00    -0.056 A 
HETATM   29  C   UNL     1      28.525  43.842  51.930  1.00  0.00     0.007 A 
HETATM   30  C   UNL     1      29.118  43.114  52.963  1.00  0.00     0.001 A 
HETATM   31  C   UNL     1      28.661  41.834  53.263  1.00  0.00     0.000 A 
HETATM   32  C   UNL     1      27.606  41.287  52.535  1.00  0.00     0.001 A 
HETATM   33  C   UNL     1      27.009  42.015  51.504  1.00  0.00     0.007 A 
ENDBRANCH  27  28
ENDBRANCH   1  27
TORSDOF 9
ENDMDL
MODEL 7
REMARK VINA RESULT:      -8.6      2.111      4.651
REMARK  9 active torsions:
REMARK  status: ('A' for Active; 'I' for Inactive)
REMARK    1  A    between atoms: C_3  and  N_4 
REMARK       I    between atoms: N_4  and  C_5 
REMARK    2  A    between atoms: C_5  and  C_6 
REMARK    3  A    between atoms: C_6  and  O_7 
REMARK    4  A    between atoms: O_7  and  C_8 
REMARK    5  A    between atoms: C_8  and  C_9 
REMARK    6  A    between atoms: C_9  and  N_10 
REMARK    7  A    between atoms: C_9  and  C_18 
REMARK       I    between atoms: N_10  and  C_11 
REMARK    8  A    between atoms: C_11  and  C_12 
REMARK    9  A    between atoms: C_18  and  C_19 
ROOT
HETATM    1  C   UNL     1      24.697  44.926  50.373  1.00  0.00     0.189 C 
ENDROOT
BRANCH   1   2
HETATM    2  C   UNL     1      25.880  43.950  50.268  1.00  0.00     0.282 C 
HETATM    3  O   UNL     1      26.509  43.715  49.239  1.00  0.00    -0.263 OA
BRANCH   2   4
HETATM    4  O   UNL     1      26.163  43.392  51.474  1.00  0.00    -0.311 OA
BRANCH   4   5
HETATM    5  C   UNL     1      25.609  44.041  52.617  1.00  0.00     0.281 C 
BRANCH   5   6
HETATM    6  C   UNL     1      26.467  44.075  53.896  1.00  0.00     0.246 C 
HETATM    7  N   UNL     1      27.778  44.450  53.658  1.00  0.00    -0.324 N 
HETATM    8  H   UNL     1      28.041  44.482  52.674  1.00  0.00     0.169 HD
HETATM    9  O   UNL     1      26.009  43.687  54.967  1.00  0.00    -0.271 OA
BRANCH   7  10
HETATM   10  C   UNL     1      28.844  44.475  54.585  1.00  0.00     0.046 A 
HETATM   11  C   UNL     1      29.772  43.404  54.528  1.00  0.00    -0.035 A 
HETATM   12  C   UNL     1      29.617  42.257  53.564  1.00  0.00     0.050 C 
HETATM   13  C   UNL     1      30.860  43.376  55.415  1.00  0.00     0.009 A 
HETATM   14  C   UNL     1      31.035  44.387  56.352  1.00  0.00     0.001 A 
HETATM   15  C   UNL     1      30.141  45.451  56.392  1.00  0.00     0.009 A 
HETATM   16  C   UNL     1      29.055  45.529  55.499  1.00  0.00    -0.035 A 
HETATM   17  C   UNL     1      28.226  46.783  55.552  1.00  0.00     0.050 C 
ENDBRANCH   7  10
ENDBRANCH   5   6
ENDBRANCH   4   5
ENDBRANCH   2   4
ENDBRANCH   1   2
BRANCH   1  18
HETATM   18  N   UNL     1      24.963  46.139  49.605  1.00  0.00    -0.341 N 
HETATM   19  C   UNL     1      24.934  47.378  50.215  1.00  0.00     0.276 C 
HETATM   20  O   UNL     1      24.917  47.501  51.436  1.00  0.00    -0.265 OA
HETATM   21  H   UNL     1      24.812  46.139  48.601  1.00  0.00     0.163 HD
BRANCH  19  22
HETATM   22  C   UNL     1      24.883  48.498  49.301  1.00  0.00     0.142 A 
HETATM   23  O   UNL     1      26.050  49.054  48.842  1.00  0.00    -0.317 OA
HETATM   24  C   UNL     1      25.706  50.050  47.984  1.00  0.00     0.143 A 
HETATM   25  C   UNL     1      24.340  50.153  47.882  1.00  0.00     0.027 A 
HETATM   26  C   UNL     1      23.807  49.154  48.730  1.00  0.00     0.045 A 
ENDBRANCH  19  22
ENDBRANCH   1  18
BRANCH   1  27
HETATM   27  C   UNL     1      23.448  44.182  49.860  1.00  0.00     0.074 C 
BRANCH  27  28
HETATM   28  C   UNL     1      22.947  44.585  48.489  1.00  0.00    -0.056 A 
HETATM   29  C   UNL     1      22.075  45.679  48.373  1.00  0.00     0.007 A 
HETATM   30  C   UNL     1      21.621  46.101  47.122  1.00  0.00     0.001 A 
HETATM   31  C   UNL     1      22.039  45.439  45.971  1.00  0.00     0.000 A 
HETATM   32  C   UNL     1      22.916  44.361  46.071  1.00  0.00     0.001 A 
HETATM   33  C   UNL     1      23.374  43.939  47.322  1.00  0.00     0.007 A 
ENDBRANCH  27  28
ENDBRANCH   1  27
TORSDOF 9
ENDMDL
MODEL 8
REMARK VINA RESULT:      -8.6      1.222      2.029
REMARK  9 active torsions:
REMARK  status: ('A' for Active; 'I' for Inactive)
REMARK    1  A    between atoms: C_3  and  N_4 
REMARK       I    between atoms: N_4  and  C_5 
REMARK    2  A    between atoms: C_5  and  C_6 
REMARK    3  A    between atoms: C_6  and  O_7 
REMARK    4  A    between atoms: O_7  and  C_8 
REMARK    5  A    between atoms: C_8  and  C_9 
REMARK    6  A    between atoms: C_9  and  N_10 
REMARK    7  A    between atoms: C_9  and  C_18 
REMARK       I    between atoms: N_10  and  C_11 
REMARK    8  A    between atoms: C_11  and  C_12 
REMARK    9  A    between atoms: C_18  and  C_19 
ROOT
HETATM    1  C   UNL     1      25.200  45.956  50.393  1.00  0.00     0.189 C 
ENDROOT
BRANCH   1   2
HETATM    2  C   UNL     1      25.330  45.968  51.924  1.00  0.00     0.282 C 
HETATM    3  O   UNL     1      25.972  46.793  52.569  1.00  0.00    -0.263 OA
BRANCH   2   4
HETATM    4  O   UNL     1      24.617  44.956  52.484  1.00  0.00    -0.311 OA
BRANCH   4   5
HETATM    5  C   UNL     1      25.354  43.795  52.863  1.00  0.00     0.281 C 
BRANCH   5   6
HETATM    6  C   UNL     1      26.288  43.916  54.082  1.00  0.00     0.246 C 
HETATM    7  N   UNL     1      27.566  44.326  53.745  1.00  0.00    -0.324 N 
HETATM    8  H   UNL     1      27.767  44.323  52.746  1.00  0.00     0.169 HD
HETATM    9  O   UNL     1      25.912  43.561  55.196  1.00  0.00    -0.271 OA
BRANCH   7  10
HETATM   10  C   UNL     1      28.686  44.429  54.602  1.00  0.00     0.046 A 
HETATM   11  C   UNL     1      29.579  43.327  54.629  1.00  0.00    -0.035 A 
HETATM   12  C   UNL     1      29.335  42.075  53.828  1.00  0.00     0.050 C 
HETATM   13  C   UNL     1      30.716  43.372  55.451  1.00  0.00     0.009 A 
HETATM   14  C   UNL     1      30.975  44.485  56.241  1.00  0.00     0.001 A 
HETATM   15  C   UNL     1      30.115  45.576  56.196  1.00  0.00     0.009 A 
HETATM   16  C   UNL     1      28.981  45.580  55.361  1.00  0.00    -0.035 A 
HETATM   17  C   UNL     1      28.192  46.860  55.301  1.00  0.00     0.050 C 
ENDBRANCH   7  10
ENDBRANCH   5   6
ENDBRANCH   4   5
ENDBRANCH   2   4
ENDBRANCH   1   2
BRANCH   1  18
HETATM   18  N   UNL     1      24.682  44.671  49.932  1.00  0.00    -0.341 N 
HETATM   19  C   UNL     1      25.514  43.755  49.319  1.00  0.00     0.276 C 
HETATM   20  O   UNL     1      26.736  43.871  49.342  1.00  0.00    -0.265 OA
HETATM   21  H   UNL     1      23.693  44.578  49.719  1.00  0.00     0.163 HD
BRANCH  19  22
HETATM   22  C   UNL     1      24.828  42.689  48.623  1.00  0.00     0.142 A 
HETATM   23  O   UNL     1      23.864  42.993  47.697  1.00  0.00    -0.317 OA
HETATM   24  C   UNL     1      23.420  41.816  47.182  1.00  0.00     0.143 A 
HETATM   25  C   UNL     1      24.076  40.756  47.761  1.00  0.00     0.027 A 
HETATM   26  C   UNL     1      24.984  41.316  48.690  1.00  0.00     0.045 A 
ENDBRANCH  19  22
ENDBRANCH   1  18
BRANCH   1  27
HETATM   27  C   UNL     1      24.271  47.124  50.008  1.00  0.00     0.074 C 
BRANCH  27  28
HETATM   28  C   UNL     1      24.918  48.275  49.266  1.00  0.00    -0.056 A 
HETATM   29  C   UNL     1      24.107  49.178  48.562  1.00  0.00     0.007 A 
HETATM   30  C   UNL     1      24.665  50.271  47.897  1.00  0.00     0.001 A 
HETATM   31  C   UNL     1      26.041  50.479  47.934  1.00  0.00     0.000 A 
HETATM   32  C   UNL     1      26.856  49.598  48.641  1.00  0.00     0.001 A 
HETATM   33  C   UNL     1      26.299  48.506  49.310  1.00  0.00     0.007 A 
ENDBRANCH  27  28
ENDBRANCH   1  27
TORSDOF 9
ENDMDL
MODEL 9
REMARK VINA RESULT:      -8.4      3.812      5.352
REMARK  9 active torsions:
REMARK  status: ('A' for Active; 'I' for Inactive)
REMARK    1  A    between atoms: C_3  and  N_4 
REMARK       I    between atoms: N_4  and  C_5 
REMARK    2  A    between atoms: C_5  and  C_6 
REMARK    3  A    between atoms: C_6  and  O_7 
REMARK    4  A    between atoms: O_7  and  C_8 
REMARK    5  A    between atoms: C_8  and  C_9 
REMARK    6  A    between atoms: C_9  and  N_10 
REMARK    7  A    between atoms: C_9  and  C_18 
REMARK       I    between atoms: N_10  and  C_11 
REMARK    8  A    between atoms: C_11  and  C_12 
REMARK    9  A    between atoms: C_18  and  C_19 
ROOT
HETATM    1  C   UNL     1      23.480  47.994  48.862  1.00  0.00     0.189 C 
ENDROOT
BRANCH   1   2
HETATM    2  C   UNL     1      24.394  47.359  49.922  1.00  0.00     0.282 C 
HETATM    3  O   UNL     1      24.641  47.848  51.021  1.00  0.00    -0.263 OA
BRANCH   2   4
HETATM    4  O   UNL     1      24.880  46.164  49.497  1.00  0.00    -0.311 OA
BRANCH   4   5
HETATM    5  C   UNL     1      25.048  45.157  50.493  1.00  0.00     0.281 C 
BRANCH   5   6
HETATM    6  C   UNL     1      26.487  44.713  50.814  1.00  0.00     0.246 C 
HETATM    7  N   UNL     1      26.607  44.132  52.065  1.00  0.00    -0.324 N 
HETATM    8  H   UNL     1      25.789  44.232  52.663  1.00  0.00     0.169 HD
HETATM    9  O   UNL     1      27.410  44.978  50.048  1.00  0.00    -0.271 OA
BRANCH   7  10
HETATM   10  C   UNL     1      27.797  43.721  52.708  1.00  0.00     0.046 A 
HETATM   11  C   UNL     1      28.197  44.455  53.853  1.00  0.00    -0.035 A 
HETATM   12  C   UNL     1      27.430  45.654  54.347  1.00  0.00     0.050 C 
HETATM   13  C   UNL     1      29.364  44.090  54.543  1.00  0.00     0.009 A 
HETATM   14  C   UNL     1      30.133  43.016  54.114  1.00  0.00     0.001 A 
HETATM   15  C   UNL     1      29.729  42.279  53.006  1.00  0.00     0.009 A 
HETATM   16  C   UNL     1      28.548  42.596  52.306  1.00  0.00    -0.035 A 
HETATM   17  C   UNL     1      28.145  41.657  51.203  1.00  0.00     0.050 C 
ENDBRANCH   7  10
ENDBRANCH   5   6
ENDBRANCH   4   5
ENDBRANCH   2   4
ENDBRANCH   1   2
BRANCH   1  18
HETATM   18  N   UNL     1      22.113  47.499  49.000  1.00  0.00    -0.341 N 
HETATM   19  C   UNL     1      21.424  47.020  47.903  1.00  0.00     0.276 C 
HETATM   20  O   UNL     1      21.986  46.775  46.839  1.00  0.00    -0.265 OA
HETATM   21  H   UNL     1      21.540  47.823  49.773  1.00  0.00     0.163 HD
BRANCH  19  22
HETATM   22  C   UNL     1      19.999  46.876  48.102  1.00  0.00     0.142 A 
HETATM   23  O   UNL     1      19.331  45.836  47.507  1.00  0.00    -0.317 OA
HETATM   24  C   UNL     1      18.031  45.927  47.890  1.00  0.00     0.143 A 
HETATM   25  C   UNL     1      17.843  47.007  48.719  1.00  0.00     0.027 A 
HETATM   26  C   UNL     1      19.110  47.621  48.857  1.00  0.00     0.045 A 
ENDBRANCH  19  22
ENDBRANCH   1  18
BRANCH   1  27
HETATM   27  C   UNL     1      23.561  49.522  49.049  1.00  0.00     0.074 C 
BRANCH  27  28
HETATM   28  C   UNL     1      22.240  50.261  49.087  1.00  0.00    -0.056 A 
HETATM   29  C   UNL     1      21.608  50.597  47.880  1.00  0.00     0.007 A 
HETATM   30  C   UNL     1      20.373  51.246  47.876  1.00  0.00     0.001 A 
HETATM   31  C   UNL     1      19.749  51.561  49.080  1.00  0.00     0.000 A 
HETATM   32  C   UNL     1      20.359  51.220  50.286  1.00  0.00     0.001 A 
HETATM   33  C   UNL     1      21.594  50.568  50.291  1.00  0.00     0.007 A 
ENDBRANCH  27  28
ENDBRANCH   1  27
TORSDOF 9
ENDMDL
MODEL 10
REMARK VINA RESULT:      -8.3      2.854      6.779
REMARK  9 active torsions:
REMARK  status: ('A' for Active; 'I' for Inactive)
REMARK    1  A    between atoms: C_3  and  N_4 
REMARK       I    between atoms: N_4  and  C_5 
REMARK    2  A    between atoms: C_5  and  C_6 
REMARK    3  A    between atoms: C_6  and  O_7 
REMARK    4  A    between atoms: O_7  and  C_8 
REMARK    5  A    between atoms: C_8  and  C_9 
REMARK    6  A    between atoms: C_9  and  N_10 
REMARK    7  A    between atoms: C_9  and  C_18 
REMARK       I    between atoms: N_10  and  C_11 
REMARK    8  A    between atoms: C_11  and  C_12 
REMARK    9  A    between atoms: C_18  and  C_19 
ROOT
HETATM    1  C   UNL     1      25.784  46.957  50.753  1.00  0.00     0.189 C 
ENDROOT
BRANCH   1   2
HETATM    2  C   UNL     1      26.304  45.719  50.005  1.00  0.00     0.282 C 
HETATM    3  O   UNL     1      27.324  45.686  49.321  1.00  0.00    -0.263 OA
BRANCH   2   4
HETATM    4  O   UNL     1      25.499  44.645  50.218  1.00  0.00    -0.311 OA
BRANCH   4   5
HETATM    5  C   UNL     1      25.457  43.668  49.180  1.00  0.00     0.281 C 
BRANCH   5   6
HETATM    6  C   UNL     1      25.895  42.236  49.539  1.00  0.00     0.246 C 
HETATM    7  N   UNL     1      27.267  42.060  49.484  1.00  0.00    -0.324 N 
HETATM    8  H   UNL     1      27.780  42.829  49.055  1.00  0.00     0.169 HD
HETATM    9  O   UNL     1      25.061  41.356  49.731  1.00  0.00    -0.271 OA
BRANCH   7  10
HETATM   10  C   UNL     1      27.983  40.853  49.645  1.00  0.00     0.046 A 
HETATM   11  C   UNL     1      28.380  40.177  48.463  1.00  0.00    -0.035 A 
HETATM   12  C   UNL     1      28.019  40.680  47.090  1.00  0.00     0.050 C 
HETATM   13  C   UNL     1      29.104  38.977  48.555  1.00  0.00     0.009 A 
HETATM   14  C   UNL     1      29.434  38.444  49.795  1.00  0.00     0.001 A 
HETATM   15  C   UNL     1      29.069  39.118  50.954  1.00  0.00     0.009 A 
HETATM   16  C   UNL     1      28.369  40.339  50.901  1.00  0.00    -0.035 A 
HETATM   17  C   UNL     1      28.135  41.040  52.211  1.00  0.00     0.050 C 
ENDBRANCH   7  10
ENDBRANCH   5   6
ENDBRANCH   4   5
ENDBRANCH   2   4
ENDBRANCH   1   2
BRANCH   1  18
HETATM   18  N   UNL     1      24.696  47.587  50.010  1.00  0.00    -0.341 N 
HETATM   19  C   UNL     1      24.936  48.683  49.205  1.00  0.00     0.276 C 
HETATM   20  O   UNL     1      26.074  49.028  48.898  1.00  0.00    -0.265 OA
HETATM   21  H   UNL     1      23.741  47.481  50.338  1.00  0.00     0.163 HD
BRANCH  19  22
HETATM   22  C   UNL     1      23.749  49.403  48.798  1.00  0.00     0.142 A 
HETATM   23  O   UNL     1      22.694  48.718  48.252  1.00  0.00    -0.317 OA
HETATM   24  C   UNL     1      21.716  49.627  48.000  1.00  0.00     0.143 A 
HETATM   25  C   UNL     1      22.120  50.888  48.370  1.00  0.00     0.027 A 
HETATM   26  C   UNL     1      23.430  50.746  48.884  1.00  0.00     0.045 A 
ENDBRANCH  19  22
ENDBRANCH   1  18
BRANCH   1  27
HETATM   27  C   UNL     1      25.332  46.487  52.150  1.00  0.00     0.074 C 
BRANCH  27  28
HETATM   28  C   UNL     1      26.421  46.352  53.193  1.00  0.00    -0.056 A 
HETATM   29  C   UNL     1      26.772  47.470  53.965  1.00  0.00     0.007 A 
HETATM   30  C   UNL     1      27.745  47.374  54.961  1.00  0.00     0.001 A 
HETATM   31  C   UNL     1      28.375  46.157  55.202  1.00  0.00     0.000 A 
HETATM   32  C   UNL     1      28.026  45.035  54.453  1.00  0.00     0.001 A 
HETATM   33  C   UNL     1      27.049  45.129  53.459  1.00  0.00     0.007 A 
ENDBRANCH  27  28
ENDBRANCH   1  27
TORSDOF 9
ENDMDL
