MODEL 1
REMARK VINA RESULT:      -9.1      0.000      0.000
REMARK  3 active torsions:
REMARK  status: ('A' for Active; 'I' for Inactive)
REMARK    1  A    between atoms: C_5  and  N_6 
REMARK    2  A    between atoms: C_10  and  C_11 
REMARK    3  A    between atoms: C_21  and  O_22 
ROOT
HETATM    1  N   UNL     1      24.042  48.991  48.882  1.00  0.00    -0.231 N 
HETATM    2  N   UNL     1      25.263  49.643  48.775  1.00  0.00    -0.257 N 
HETATM    3  C   UNL     1      26.244  48.772  49.215  1.00  0.00     0.275 C 
HETATM    4  O   UNL     1      27.448  48.886  49.067  1.00  0.00    -0.266 OA
HETATM    5  C   UNL     1      25.555  47.615  49.862  1.00  0.00     0.087 C 
HETATM    6  C   UNL     1      24.255  47.819  49.583  1.00  0.00     0.178 C 
HETATM    7  H   UNL     1      25.452  50.301  48.034  1.00  0.00     0.191 HD
ENDROOT
BRANCH   5   8
HETATM    8  C   UNL     1      26.226  46.505  50.478  1.00  0.00     0.035 C 
HETATM    9  C   UNL     1      26.213  46.203  51.781  1.00  0.00    -0.005 A 
HETATM   10  C   UNL     1      26.795  45.044  52.443  1.00  0.00     0.004 A 
HETATM   11  C   UNL     1      25.585  46.968  52.894  1.00  0.00     0.129 A 
HETATM   12  C   UNL     1      26.451  45.207  53.796  1.00  0.00     0.067 A 
HETATM   13  C   UNL     1      27.502  43.940  51.999  1.00  0.00     0.014 A 
HETATM   14  C   UNL     1      26.815  44.261  54.735  1.00  0.00     0.032 A 
HETATM   15  N   UNL     1      25.714  46.388  54.054  1.00  0.00    -0.259 NA
HETATM   16  C   UNL     1      27.529  43.140  54.303  1.00  0.00     0.002 A 
HETATM   17  C   UNL     1      27.869  42.981  52.948  1.00  0.00     0.001 A 
ENDBRANCH   5   8
BRANCH   6  18
HETATM   18  O   UNL     1      23.234  46.948  49.863  1.00  0.00    -0.344 OA
HETATM   19  H   UNL     1      23.540  46.312  50.530  1.00  0.00     0.219 HD
ENDBRANCH   6  18
BRANCH   1  20
HETATM   20  C   UNL     1      22.869  49.775  48.751  1.00  0.00     0.059 A 
HETATM   21  C   UNL     1      22.124  49.770  47.559  1.00  0.00     0.032 A 
HETATM   22  C   UNL     1      20.935  50.501  47.431  1.00  0.00     0.009 A 
HETATM   23  C   UNL     1      20.458  51.269  48.495  1.00  0.00    -0.062 A 
HETATM   24  C   UNL     1      19.166  52.022  48.391  1.00  0.00     0.048 C 
HETATM   25  C   UNL     1      21.187  51.290  49.686  1.00  0.00     0.009 A 
HETATM   26  C   UNL     1      22.372  50.553  49.808  1.00  0.00     0.032 A 
ENDBRANCH   1  20
TORSDOF 3
ENDMDL
MODEL 2
REMARK VINA RESULT:      -9.0      2.236      8.561
REMARK  3 active torsions:
REMARK  status: ('A' for Active; 'I' for Inactive)
REMARK    1  A    between atoms: C_5  and  N_6 
REMARK    2  A    between atoms: C_10  and  C_11 
REMARK    3  A    between atoms: C_21  and  O_22 
ROOT
HETATM    1  N   UNL     1      27.330  44.609  51.788  1.00  0.00    -0.231 N 
HETATM    2  N   UNL     1      26.890  43.622  50.916  1.00  0.00    -0.257 N 
HETATM    3  C   UNL     1      25.855  44.155  50.168  1.00  0.00     0.275 C 
HETATM    4  O   UNL     1      25.364  43.687  49.156  1.00  0.00    -0.266 OA
HETATM    5  C   UNL     1      25.477  45.458  50.793  1.00  0.00     0.087 C 
HETATM    6  C   UNL     1      26.430  45.656  51.723  1.00  0.00     0.178 C 
HETATM    7  H   UNL     1      27.522  42.946  50.515  1.00  0.00     0.191 HD
ENDROOT
BRANCH   5   8
HETATM    8  C   UNL     1      24.417  46.309  50.332  1.00  0.00     0.035 C 
HETATM    9  C   UNL     1      24.566  47.485  49.713  1.00  0.00    -0.005 A 
HETATM   10  C   UNL     1      23.533  48.341  49.144  1.00  0.00     0.004 A 
HETATM   11  C   UNL     1      25.829  48.221  49.429  1.00  0.00     0.129 A 
HETATM   12  C   UNL     1      24.243  49.418  48.587  1.00  0.00     0.067 A 
HETATM   13  C   UNL     1      22.156  48.248  49.048  1.00  0.00     0.014 A 
HETATM   14  C   UNL     1      23.578  50.431  47.920  1.00  0.00     0.032 A 
HETATM   15  N   UNL     1      25.643  49.330  48.772  1.00  0.00    -0.259 NA
HETATM   16  C   UNL     1      22.186  50.351  47.813  1.00  0.00     0.002 A 
HETATM   17  C   UNL     1      21.482  49.270  48.372  1.00  0.00     0.001 A 
ENDBRANCH   5   8
BRANCH   6  18
HETATM   18  O   UNL     1      26.581  46.789  52.478  1.00  0.00    -0.344 OA
HETATM   19  H   UNL     1      27.071  46.563  53.286  1.00  0.00     0.219 HD
ENDBRANCH   6  18
BRANCH   1  20
HETATM   20  C   UNL     1      28.194  44.214  52.840  1.00  0.00     0.059 A 
HETATM   21  C   UNL     1      29.258  43.326  52.607  1.00  0.00     0.032 A 
HETATM   22  C   UNL     1      30.151  42.965  53.626  1.00  0.00     0.009 A 
HETATM   23  C   UNL     1      29.999  43.477  54.915  1.00  0.00    -0.062 A 
HETATM   24  C   UNL     1      30.969  43.136  56.005  1.00  0.00     0.048 C 
HETATM   25  C   UNL     1      28.945  44.357  55.166  1.00  0.00     0.009 A 
HETATM   26  C   UNL     1      28.059  44.718  54.143  1.00  0.00     0.032 A 
ENDBRANCH   1  20
TORSDOF 3
ENDMDL
MODEL 3
REMARK VINA RESULT:      -8.9      3.478      8.761
REMARK  3 active torsions:
REMARK  status: ('A' for Active; 'I' for Inactive)
REMARK    1  A    between atoms: C_5  and  N_6 
REMARK    2  A    between atoms: C_10  and  C_11 
REMARK    3  A    between atoms: C_21  and  O_22 
ROOT
HETATM    1  N   UNL     1      27.583  45.622  54.473  1.00  0.00    -0.231 N 
HETATM    2  N   UNL     1      27.082  46.803  55.003  1.00  0.00    -0.257 N 
HETATM    3  C   UNL     1      26.164  47.311  54.102  1.00  0.00     0.275 C 
HETATM    4  O   UNL     1      25.353  48.199  54.300  1.00  0.00    -0.266 OA
HETATM    5  C   UNL     1      26.298  46.527  52.838  1.00  0.00     0.087 C 
HETATM    6  C   UNL     1      27.138  45.528  53.168  1.00  0.00     0.178 C 
HETATM    7  H   UNL     1      26.955  46.929  55.996  1.00  0.00     0.191 HD
ENDROOT
BRANCH   5   8
HETATM    8  C   UNL     1      25.541  46.767  51.642  1.00  0.00     0.035 C 
HETATM    9  C   UNL     1      24.702  45.905  51.056  1.00  0.00    -0.005 A 
HETATM   10  C   UNL     1      23.843  46.128  49.901  1.00  0.00     0.004 A 
HETATM   11  C   UNL     1      24.416  44.495  51.442  1.00  0.00     0.129 A 
HETATM   12  C   UNL     1      23.152  44.914  49.743  1.00  0.00     0.067 A 
HETATM   13  C   UNL     1      23.608  47.213  49.076  1.00  0.00     0.014 A 
HETATM   14  C   UNL     1      22.207  44.767  48.744  1.00  0.00     0.032 A 
HETATM   15  N   UNL     1      23.515  43.928  50.690  1.00  0.00    -0.259 NA
HETATM   16  C   UNL     1      21.957  45.854  47.903  1.00  0.00     0.002 A 
HETATM   17  C   UNL     1      22.651  47.066  48.067  1.00  0.00     0.001 A 
ENDBRANCH   5   8
BRANCH   6  18
HETATM   18  O   UNL     1      27.470  44.469  52.364  1.00  0.00    -0.344 OA
HETATM   19  H   UNL     1      27.160  43.649  52.783  1.00  0.00     0.219 HD
ENDBRANCH   6  18
BRANCH   1  20
HETATM   20  C   UNL     1      28.735  45.068  55.085  1.00  0.00     0.059 A 
HETATM   21  C   UNL     1      29.362  45.713  56.165  1.00  0.00     0.032 A 
HETATM   22  C   UNL     1      30.472  45.153  56.813  1.00  0.00     0.009 A 
HETATM   23  C   UNL     1      30.995  43.930  56.390  1.00  0.00    -0.062 A 
HETATM   24  C   UNL     1      32.154  43.295  57.099  1.00  0.00     0.048 C 
HETATM   25  C   UNL     1      30.389  43.277  55.316  1.00  0.00     0.009 A 
HETATM   26  C   UNL     1      29.277  43.839  54.676  1.00  0.00     0.032 A 
ENDBRANCH   1  20
TORSDOF 3
ENDMDL
MODEL 4
REMARK VINA RESULT:      -8.4      2.314      8.502
REMARK  3 active torsions:
REMARK  status: ('A' for Active; 'I' for Inactive)
REMARK    1  A    between atoms: C_5  and  N_6 
REMARK    2  A    between atoms: C_10  and  C_11 
REMARK    3  A    between atoms: C_21  and  O_22 
ROOT
HETATM    1  N   UNL     1      24.036  46.242  49.331  1.00  0.00    -0.231 N 
HETATM    2  N   UNL     1      23.023  45.513  48.725  1.00  0.00    -0.257 N 
HETATM    3  C   UNL     1      22.090  46.414  48.242  1.00  0.00     0.275 C 
HETATM    4  O   UNL     1      21.183  46.184  47.461  1.00  0.00    -0.266 OA
HETATM    5  C   UNL     1      22.430  47.754  48.806  1.00  0.00     0.087 C 
HETATM    6  C   UNL     1      23.617  47.557  49.408  1.00  0.00     0.178 C 
HETATM    7  H   UNL     1      23.206  44.649  48.238  1.00  0.00     0.191 HD
ENDROOT
BRANCH   5   8
HETATM    8  C   UNL     1      21.679  48.955  48.570  1.00  0.00     0.035 C 
HETATM    9  C   UNL     1      20.463  49.231  49.054  1.00  0.00    -0.005 A 
HETATM   10  C   UNL     1      19.700  50.464  48.923  1.00  0.00     0.004 A 
HETATM   11  C   UNL     1      19.578  48.352  49.867  1.00  0.00     0.129 A 
HETATM   12  C   UNL     1      18.523  50.223  49.652  1.00  0.00     0.067 A 
HETATM   13  C   UNL     1      19.940  51.681  48.309  1.00  0.00     0.014 A 
HETATM   14  C   UNL     1      17.558  51.205  49.777  1.00  0.00     0.032 A 
HETATM   15  N   UNL     1      18.464  48.928  50.220  1.00  0.00    -0.259 NA
HETATM   16  C   UNL     1      17.786  52.440  49.164  1.00  0.00     0.002 A 
HETATM   17  C   UNL     1      18.966  52.675  48.436  1.00  0.00     0.001 A 
ENDBRANCH   5   8
BRANCH   6  18
HETATM   18  O   UNL     1      24.398  48.534  49.968  1.00  0.00    -0.344 OA
HETATM   19  H   UNL     1      24.944  48.137  50.666  1.00  0.00     0.219 HD
ENDBRANCH   6  18
BRANCH   1  20
HETATM   20  C   UNL     1      24.960  45.532  50.137  1.00  0.00     0.059 A 
HETATM   21  C   UNL     1      26.270  45.284  49.691  1.00  0.00     0.032 A 
HETATM   22  C   UNL     1      27.210  44.627  50.496  1.00  0.00     0.009 A 
HETATM   23  C   UNL     1      26.863  44.187  51.774  1.00  0.00    -0.062 A 
HETATM   24  C   UNL     1      27.868  43.521  52.666  1.00  0.00     0.048 C 
HETATM   25  C   UNL     1      25.565  44.420  52.234  1.00  0.00     0.009 A 
HETATM   26  C   UNL     1      24.632  45.082  51.426  1.00  0.00     0.032 A 
ENDBRANCH   1  20
TORSDOF 3
ENDMDL
MODEL 5
REMARK VINA RESULT:      -8.4      5.038      8.564
REMARK  3 active torsions:
REMARK  status: ('A' for Active; 'I' for Inactive)
REMARK    1  A    between atoms: C_5  and  N_6 
REMARK    2  A    between atoms: C_10  and  C_11 
REMARK    3  A    between atoms: C_21  and  O_22 
ROOT
HETATM    1  N   UNL     1      27.195  45.465  54.545  1.00  0.00    -0.231 N 
HETATM    2  N   UNL     1      26.982  46.669  53.888  1.00  0.00    -0.257 N 
HETATM    3  C   UNL     1      26.066  46.439  52.877  1.00  0.00     0.275 C 
HETATM    4  O   UNL     1      25.459  47.276  52.232  1.00  0.00    -0.266 OA
HETATM    5  C   UNL     1      25.900  44.960  52.752  1.00  0.00     0.087 C 
HETATM    6  C   UNL     1      26.582  44.471  53.805  1.00  0.00     0.178 C 
HETATM    7  H   UNL     1      27.003  47.552  54.375  1.00  0.00     0.191 HD
ENDROOT
BRANCH   5   8
HETATM    8  C   UNL     1      25.057  44.310  51.790  1.00  0.00     0.035 C 
HETATM    9  C   UNL     1      25.469  43.623  50.718  1.00  0.00    -0.005 A 
HETATM   10  C   UNL     1      24.664  42.870  49.766  1.00  0.00     0.004 A 
HETATM   11  C   UNL     1      26.863  43.437  50.228  1.00  0.00     0.129 A 
HETATM   12  C   UNL     1      25.603  42.319  48.877  1.00  0.00     0.067 A 
HETATM   13  C   UNL     1      23.309  42.617  49.644  1.00  0.00     0.014 A 
HETATM   14  C   UNL     1      25.195  41.500  47.841  1.00  0.00     0.032 A 
HETATM   15  N   UNL     1      26.940  42.676  49.173  1.00  0.00    -0.259 NA
HETATM   16  C   UNL     1      23.830  41.234  47.704  1.00  0.00     0.002 A 
HETATM   17  C   UNL     1      22.896  41.787  48.597  1.00  0.00     0.001 A 
ENDBRANCH   5   8
BRANCH   6  18
HETATM   18  O   UNL     1      26.617  43.156  54.189  1.00  0.00    -0.344 OA
HETATM   19  H   UNL     1      26.050  43.043  54.970  1.00  0.00     0.219 HD
ENDBRANCH   6  18
BRANCH   1  20
HETATM   20  C   UNL     1      28.295  45.391  55.435  1.00  0.00     0.059 A 
HETATM   21  C   UNL     1      28.297  46.107  56.644  1.00  0.00     0.032 A 
HETATM   22  C   UNL     1      29.355  46.006  57.558  1.00  0.00     0.009 A 
HETATM   23  C   UNL     1      30.452  45.188  57.282  1.00  0.00    -0.062 A 
HETATM   24  C   UNL     1      31.572  45.033  58.267  1.00  0.00     0.048 C 
HETATM   25  C   UNL     1      30.470  44.471  56.084  1.00  0.00     0.009 A 
HETATM   26  C   UNL     1      29.407  44.573  55.178  1.00  0.00     0.032 A 
ENDBRANCH   1  20
TORSDOF 3
ENDMDL
MODEL 6
REMARK VINA RESULT:      -8.4      1.749      2.301
REMARK  3 active torsions:
REMARK  status: ('A' for Active; 'I' for Inactive)
REMARK    1  A    between atoms: C_5  and  N_6 
REMARK    2  A    between atoms: C_10  and  C_11 
REMARK    3  A    between atoms: C_21  and  O_22 
ROOT
HETATM    1  N   UNL     1      23.125  47.145  49.368  1.00  0.00    -0.231 N 
HETATM    2  N   UNL     1      23.081  46.104  48.452  1.00  0.00    -0.257 N 
HETATM    3  C   UNL     1      24.079  45.206  48.789  1.00  0.00     0.275 C 
HETATM    4  O   UNL     1      24.216  44.069  48.372  1.00  0.00    -0.266 OA
HETATM    5  C   UNL     1      24.940  45.861  49.818  1.00  0.00     0.087 C 
HETATM    6  C   UNL     1      24.274  46.991  50.121  1.00  0.00     0.178 C 
HETATM    7  H   UNL     1      22.213  45.783  48.051  1.00  0.00     0.191 HD
ENDROOT
BRANCH   5   8
HETATM    8  C   UNL     1      26.108  45.269  50.404  1.00  0.00     0.035 C 
HETATM    9  C   UNL     1      26.198  44.760  51.638  1.00  0.00    -0.005 A 
HETATM   10  C   UNL     1      27.325  44.067  52.248  1.00  0.00     0.004 A 
HETATM   11  C   UNL     1      25.160  44.755  52.707  1.00  0.00     0.129 A 
HETATM   12  C   UNL     1      26.865  43.714  53.528  1.00  0.00     0.067 A 
HETATM   13  C   UNL     1      28.589  43.718  51.806  1.00  0.00     0.014 A 
HETATM   14  C   UNL     1      27.671  43.001  54.395  1.00  0.00     0.032 A 
HETATM   15  N   UNL     1      25.542  44.144  53.793  1.00  0.00    -0.259 NA
HETATM   16  C   UNL     1      28.951  42.639  53.964  1.00  0.00     0.002 A 
HETATM   17  C   UNL     1      29.405  42.995  52.681  1.00  0.00     0.001 A 
ENDBRANCH   5   8
BRANCH   6  18
HETATM   18  O   UNL     1      24.612  47.872  51.115  1.00  0.00    -0.344 OA
HETATM   19  H   UNL     1      25.533  47.710  51.377  1.00  0.00     0.219 HD
ENDBRANCH   6  18
BRANCH   1  20
HETATM   20  C   UNL     1      22.384  48.314  49.065  1.00  0.00     0.059 A 
HETATM   21  C   UNL     1      20.978  48.305  49.083  1.00  0.00     0.032 A 
HETATM   22  C   UNL     1      20.232  49.465  48.835  1.00  0.00     0.009 A 
HETATM   23  C   UNL     1      20.873  50.672  48.549  1.00  0.00    -0.062 A 
HETATM   24  C   UNL     1      20.092  51.931  48.324  1.00  0.00     0.048 C 
HETATM   25  C   UNL     1      22.268  50.700  48.523  1.00  0.00     0.009 A 
HETATM   26  C   UNL     1      23.009  49.538  48.777  1.00  0.00     0.032 A 
ENDBRANCH   1  20
TORSDOF 3
ENDMDL
MODEL 7
REMARK VINA RESULT:      -8.4      2.181      3.251
REMARK  3 active torsions:
REMARK  status: ('A' for Active; 'I' for Inactive)
REMARK    1  A    between atoms: C_5  and  N_6 
REMARK    2  A    between atoms: C_10  and  C_11 
REMARK    3  A    between atoms: C_21  and  O_22 
ROOT
HETATM    1  N   UNL     1      24.161  46.409  50.326  1.00  0.00    -0.231 N 
HETATM    2  N   UNL     1      23.574  45.153  50.380  1.00  0.00    -0.257 N 
HETATM    3  C   UNL     1      24.482  44.290  50.970  1.00  0.00     0.275 C 
HETATM    4  O   UNL     1      24.261  43.170  51.395  1.00  0.00    -0.266 OA
HETATM    5  C   UNL     1      25.790  45.007  51.052  1.00  0.00     0.087 C 
HETATM    6  C   UNL     1      25.490  46.265  50.679  1.00  0.00     0.178 C 
HETATM    7  H   UNL     1      22.582  45.034  50.522  1.00  0.00     0.191 HD
ENDROOT
BRANCH   5   8
HETATM    8  C   UNL     1      27.001  44.440  51.573  1.00  0.00     0.035 C 
HETATM    9  C   UNL     1      27.530  44.686  52.777  1.00  0.00    -0.005 A 
HETATM   10  C   UNL     1      28.700  44.071  53.389  1.00  0.00     0.004 A 
HETATM   11  C   UNL     1      27.050  45.642  53.813  1.00  0.00     0.129 A 
HETATM   12  C   UNL     1      28.777  44.663  54.662  1.00  0.00     0.067 A 
HETATM   13  C   UNL     1      29.598  43.100  52.982  1.00  0.00     0.014 A 
HETATM   14  C   UNL     1      29.766  44.291  55.553  1.00  0.00     0.032 A 
HETATM   15  N   UNL     1      27.764  45.622  54.903  1.00  0.00    -0.259 NA
HETATM   16  C   UNL     1      30.680  43.311  55.157  1.00  0.00     0.002 A 
HETATM   17  C   UNL     1      30.597  42.721  53.884  1.00  0.00     0.001 A 
ENDBRANCH   5   8
BRANCH   6  18
HETATM   18  O   UNL     1      26.349  47.332  50.715  1.00  0.00    -0.344 OA
HETATM   19  H   UNL     1      27.140  47.080  51.220  1.00  0.00     0.219 HD
ENDBRANCH   6  18
BRANCH   1  20
HETATM   20  C   UNL     1      23.534  47.389  49.518  1.00  0.00     0.059 A 
HETATM   21  C   UNL     1      22.402  47.075  48.746  1.00  0.00     0.032 A 
HETATM   22  C   UNL     1      21.741  48.046  47.981  1.00  0.00     0.009 A 
HETATM   23  C   UNL     1      22.202  49.363  47.956  1.00  0.00    -0.062 A 
HETATM   24  C   UNL     1      21.482  50.423  47.178  1.00  0.00     0.048 C 
HETATM   25  C   UNL     1      23.328  49.693  48.713  1.00  0.00     0.009 A 
HETATM   26  C   UNL     1      23.980  48.720  49.480  1.00  0.00     0.032 A 
ENDBRANCH   1  20
TORSDOF 3
ENDMDL
MODEL 8
REMARK VINA RESULT:      -8.3      3.712      5.135
REMARK  3 active torsions:
REMARK  status: ('A' for Active; 'I' for Inactive)
REMARK    1  A    between atoms: C_5  and  N_6 
REMARK    2  A    between atoms: C_10  and  C_11 
REMARK    3  A    between atoms: C_21  and  O_22 
ROOT
HETATM    1  N   UNL     1      24.821  44.908  50.795  1.00  0.00    -0.231 N 
HETATM    2  N   UNL     1      24.080  44.662  51.943  1.00  0.00    -0.257 N 
HETATM    3  C   UNL     1      24.971  44.390  52.967  1.00  0.00     0.275 C 
HETATM    4  O   UNL     1      24.728  44.348  54.160  1.00  0.00    -0.266 OA
HETATM    5  C   UNL     1      26.320  44.215  52.350  1.00  0.00     0.087 C 
HETATM    6  C   UNL     1      26.135  44.576  51.066  1.00  0.00     0.178 C 
HETATM    7  H   UNL     1      23.211  45.139  52.129  1.00  0.00     0.191 HD
ENDROOT
BRANCH   5   8
HETATM    8  C   UNL     1      27.514  43.887  53.075  1.00  0.00     0.035 C 
HETATM    9  C   UNL     1      28.085  44.632  54.028  1.00  0.00    -0.005 A 
HETATM   10  C   UNL     1      29.239  44.307  54.856  1.00  0.00     0.004 A 
HETATM   11  C   UNL     1      27.680  45.984  54.503  1.00  0.00     0.129 A 
HETATM   12  C   UNL     1      29.378  45.415  55.709  1.00  0.00     0.067 A 
HETATM   13  C   UNL     1      30.076  43.209  54.945  1.00  0.00     0.014 A 
HETATM   14  C   UNL     1      30.369  45.443  56.672  1.00  0.00     0.032 A 
HETATM   15  N   UNL     1      28.420  46.431  55.478  1.00  0.00    -0.259 NA
HETATM   16  C   UNL     1      31.223  44.341  56.776  1.00  0.00     0.002 A 
HETATM   17  C   UNL     1      31.078  43.235  55.921  1.00  0.00     0.001 A 
ENDBRANCH   5   8
BRANCH   6  18
HETATM   18  O   UNL     1      27.122  44.700  50.124  1.00  0.00    -0.344 OA
HETATM   19  H   UNL     1      26.868  45.395  49.494  1.00  0.00     0.219 HD
ENDBRANCH   6  18
BRANCH   1  20
HETATM   20  C   UNL     1      24.124  44.938  49.562  1.00  0.00     0.059 A 
HETATM   21  C   UNL     1      23.379  46.067  49.178  1.00  0.00     0.032 A 
HETATM   22  C   UNL     1      22.726  46.130  47.939  1.00  0.00     0.009 A 
HETATM   23  C   UNL     1      22.790  45.058  47.049  1.00  0.00    -0.062 A 
HETATM   24  C   UNL     1      22.134  45.126  45.703  1.00  0.00     0.048 C 
HETATM   25  C   UNL     1      23.522  43.926  47.414  1.00  0.00     0.009 A 
HETATM   26  C   UNL     1      24.177  43.871  48.651  1.00  0.00     0.032 A 
ENDBRANCH   1  20
TORSDOF 3
ENDMDL
MODEL 9
REMARK VINA RESULT:      -8.1      5.822      9.106
REMARK  3 active torsions:
REMARK  status: ('A' for Active; 'I' for Inactive)
REMARK    1  A    between atoms: C_5  and  N_6 
REMARK    2  A    between atoms: C_10  and  C_11 
REMARK    3  A    between atoms: C_21  and  O_22 
ROOT
HETATM    1  N   UNL     1      27.704  43.361  52.226  1.00  0.00    -0.231 N 
HETATM    2  N   UNL     1      27.692  44.369  51.273  1.00  0.00    -0.257 N 
HETATM    3  C   UNL     1      27.041  43.881  50.154  1.00  0.00     0.275 C 
HETATM    4  O   UNL     1      26.633  44.523  49.202  1.00  0.00    -0.266 OA
HETATM    5  C   UNL     1      26.868  42.409  50.345  1.00  0.00     0.087 C 
HETATM    6  C   UNL     1      27.260  42.203  51.616  1.00  0.00     0.178 C 
HETATM    7  H   UNL     1      27.619  45.342  51.528  1.00  0.00     0.191 HD
ENDROOT
BRANCH   5   8
HETATM    8  C   UNL     1      26.265  41.526  49.388  1.00  0.00     0.035 C 
HETATM    9  C   UNL     1      24.971  41.498  49.050  1.00  0.00    -0.005 A 
HETATM   10  C   UNL     1      24.325  40.690  48.024  1.00  0.00     0.004 A 
HETATM   11  C   UNL     1      23.854  42.298  49.625  1.00  0.00     0.129 A 
HETATM   12  C   UNL     1      22.977  41.087  48.067  1.00  0.00     0.067 A 
HETATM   13  C   UNL     1      24.780  39.752  47.114  1.00  0.00     0.014 A 
HETATM   14  C   UNL     1      22.055  40.543  47.193  1.00  0.00     0.032 A 
HETATM   15  N   UNL     1      22.707  42.067  49.051  1.00  0.00    -0.259 NA
HETATM   16  C   UNL     1      22.498  39.595  46.267  1.00  0.00     0.002 A 
HETATM   17  C   UNL     1      23.848  39.203  46.228  1.00  0.00     0.001 A 
ENDBRANCH   5   8
BRANCH   6  18
HETATM   18  O   UNL     1      27.163  41.017  52.296  1.00  0.00    -0.344 OA
HETATM   19  H   UNL     1      26.262  40.670  52.192  1.00  0.00     0.219 HD
ENDBRANCH   6  18
BRANCH   1  20
HETATM   20  C   UNL     1      28.553  43.532  53.348  1.00  0.00     0.059 A 
HETATM   21  C   UNL     1      29.715  42.756  53.500  1.00  0.00     0.032 A 
HETATM   22  C   UNL     1      30.591  42.947  54.578  1.00  0.00     0.009 A 
HETATM   23  C   UNL     1      30.323  43.918  55.544  1.00  0.00    -0.062 A 
HETATM   24  C   UNL     1      31.271  44.166  56.679  1.00  0.00     0.048 C 
HETATM   25  C   UNL     1      29.171  44.696  55.412  1.00  0.00     0.009 A 
HETATM   26  C   UNL     1      28.303  44.503  54.330  1.00  0.00     0.032 A 
ENDBRANCH   1  20
TORSDOF 3
ENDMDL
MODEL 10
REMARK VINA RESULT:      -8.1      7.082      9.773
REMARK  3 active torsions:
REMARK  status: ('A' for Active; 'I' for Inactive)
REMARK    1  A    between atoms: C_5  and  N_6 
REMARK    2  A    between atoms: C_10  and  C_11 
REMARK    3  A    between atoms: C_21  and  O_22 
ROOT
HETATM    1  N   UNL     1      27.741  42.102  52.665  1.00  0.00    -0.231 N 
HETATM    2  N   UNL     1      26.561  42.541  52.080  1.00  0.00    -0.257 N 
HETATM    3  C   UNL     1      26.249  41.664  51.056  1.00  0.00     0.275 C 
HETATM    4  O   UNL     1      25.190  41.578  50.460  1.00  0.00    -0.266 OA
HETATM    5  C   UNL     1      27.438  40.785  50.843  1.00  0.00     0.087 C 
HETATM    6  C   UNL     1      28.254  41.097  51.867  1.00  0.00     0.178 C 
HETATM    7  H   UNL     1      25.833  42.986  52.618  1.00  0.00     0.191 HD
ENDROOT
BRANCH   5   8
HETATM    8  C   UNL     1      27.528  39.759  49.843  1.00  0.00     0.035 C 
HETATM    9  C   UNL     1      27.696  39.954  48.530  1.00  0.00    -0.005 A 
HETATM   10  C   UNL     1      27.886  38.953  47.488  1.00  0.00     0.004 A 
HETATM   11  C   UNL     1      27.749  41.246  47.793  1.00  0.00     0.129 A 
HETATM   12  C   UNL     1      28.053  39.704  46.312  1.00  0.00     0.067 A 
HETATM   13  C   UNL     1      27.956  37.571  47.487  1.00  0.00     0.014 A 
HETATM   14  C   UNL     1      28.293  39.077  45.104  1.00  0.00     0.032 A 
HETATM   15  N   UNL     1      27.964  41.102  46.516  1.00  0.00    -0.259 NA
HETATM   16  C   UNL     1      28.369  37.682  45.085  1.00  0.00     0.002 A 
HETATM   17  C   UNL     1      28.202  36.936  46.266  1.00  0.00     0.001 A 
ENDBRANCH   5   8
BRANCH   6  18
HETATM   18  O   UNL     1      29.427  40.457  52.173  1.00  0.00    -0.344 OA
HETATM   19  H   UNL     1      29.224  39.668  52.701  1.00  0.00     0.219 HD
ENDBRANCH   6  18
BRANCH   1  20
HETATM   20  C   UNL     1      28.401  42.989  53.551  1.00  0.00     0.059 A 
HETATM   21  C   UNL     1      27.848  44.243  53.865  1.00  0.00     0.032 A 
HETATM   22  C   UNL     1      28.464  45.110  54.778  1.00  0.00     0.009 A 
HETATM   23  C   UNL     1      29.661  44.752  55.398  1.00  0.00    -0.062 A 
HETATM   24  C   UNL     1      30.310  45.648  56.409  1.00  0.00     0.048 C 
HETATM   25  C   UNL     1      30.227  43.512  55.096  1.00  0.00     0.009 A 
HETATM   26  C   UNL     1      29.605  42.647  54.187  1.00  0.00     0.032 A 
ENDBRANCH   1  20
TORSDOF 3
ENDMDL
