MODEL 1
REMARK VINA RESULT:      -8.6      0.000      0.000
REMARK  4 active torsions:
REMARK  status: ('A' for Active; 'I' for Inactive)
REMARK    1  A    between atoms: C_2  and  C_3 
REMARK    2  A    between atoms: C_5  and  C_6 
REMARK       I    between atoms: C_6  and  N_7 
REMARK    3  A    between atoms: N_7  and  C_8 
REMARK    4  A    between atoms: C_10  and  C_11 
ROOT
HETATM    1  C   UNL     1      26.428  44.889  52.484  1.00  0.00     0.035 A 
HETATM    2  C   UNL     1      26.285  46.074  51.755  1.00  0.00     0.042 A 
HETATM    3  C   UNL     1      25.246  46.233  50.819  1.00  0.00    -0.021 A 
HETATM    4  C   UNL     1      24.359  45.170  50.612  1.00  0.00     0.012 A 
HETATM    5  C   UNL     1      24.499  43.980  51.327  1.00  0.00     0.003 A 
HETATM    6  C   UNL     1      25.526  43.844  52.261  1.00  0.00     0.029 A 
ENDROOT
BRANCH   1   7
HETATM    7  N   UNL     1      27.424  44.679  53.456  1.00  0.00    -0.321 N 
HETATM    8  C   UNL     1      28.636  44.025  53.322  1.00  0.00     0.280 C 
HETATM    9  O   UNL     1      29.029  43.451  52.312  1.00  0.00    -0.265 OA
HETATM   10  H   UNL     1      27.258  45.064  54.381  1.00  0.00     0.169 HD
BRANCH   8  11
HETATM   11  C   UNL     1      29.436  44.082  54.534  1.00  0.00     0.144 A 
HETATM   12  O   UNL     1      29.221  45.087  55.440  1.00  0.00    -0.309 OA
HETATM   13  C   UNL     1      30.122  44.924  56.450  1.00  0.00     0.059 A 
HETATM   14  C   UNL     1      30.912  43.812  56.219  1.00  0.00    -0.029 A 
HETATM   15  C   UNL     1      30.461  43.274  54.983  1.00  0.00     0.052 A 
HETATM   16  C   UNL     1      32.007  43.292  57.074  1.00  0.00     0.050 C 
BRANCH  13  17
HETATM   17  C   UNL     1      30.080  45.939  57.535  1.00  0.00     0.061 C 
HETATM   18  C   UNL     1      28.653  46.320  57.893  1.00  0.00     0.012 C 
ENDBRANCH  13  17
ENDBRANCH   8  11
ENDBRANCH   1   7
BRANCH   3  19
HETATM   19  C   UNL     1      25.083  47.476  50.079  1.00  0.00     0.010 A 
HETATM   20  C   UNL     1      23.918  48.203  49.731  1.00  0.00     0.152 A 
HETATM   21  N   UNL     1      24.185  49.326  49.056  1.00  0.00    -0.187 NA
HETATM   22  N   UNL     1      25.524  49.322  48.965  1.00  0.00    -0.289 N 
HETATM   23  H   UNL     1      25.977  50.091  48.484  1.00  0.00     0.188 HD
HETATM   24  C   UNL     1      26.107  48.244  49.565  1.00  0.00     0.123 A 
ENDBRANCH   3  19
TORSDOF 4
ENDMDL
MODEL 2
REMARK VINA RESULT:      -8.6      1.579      2.707
REMARK  4 active torsions:
REMARK  status: ('A' for Active; 'I' for Inactive)
REMARK    1  A    between atoms: C_2  and  C_3 
REMARK    2  A    between atoms: C_5  and  C_6 
REMARK       I    between atoms: C_6  and  N_7 
REMARK    3  A    between atoms: N_7  and  C_8 
REMARK    4  A    between atoms: C_10  and  C_11 
ROOT
HETATM    1  C   UNL     1      26.074  46.265  51.901  1.00  0.00     0.035 A 
HETATM    2  C   UNL     1      26.099  47.353  51.022  1.00  0.00     0.042 A 
HETATM    3  C   UNL     1      25.161  47.469  49.980  1.00  0.00    -0.021 A 
HETATM    4  C   UNL     1      24.202  46.461  49.822  1.00  0.00     0.012 A 
HETATM    5  C   UNL     1      24.174  45.367  50.688  1.00  0.00     0.003 A 
HETATM    6  C   UNL     1      25.103  45.274  51.725  1.00  0.00     0.029 A 
ENDROOT
BRANCH   1   7
HETATM    7  N   UNL     1      26.963  46.106  52.981  1.00  0.00    -0.321 N 
HETATM    8  C   UNL     1      26.802  46.502  54.297  1.00  0.00     0.280 C 
HETATM    9  O   UNL     1      25.847  47.131  54.741  1.00  0.00    -0.265 OA
HETATM   10  H   UNL     1      27.837  45.626  52.794  1.00  0.00     0.169 HD
BRANCH   8  11
HETATM   11  C   UNL     1      27.909  46.089  55.142  1.00  0.00     0.144 A 
HETATM   12  O   UNL     1      28.719  45.060  54.740  1.00  0.00    -0.309 OA
HETATM   13  C   UNL     1      29.641  44.859  55.725  1.00  0.00     0.059 A 
HETATM   14  C   UNL     1      29.448  45.759  56.759  1.00  0.00    -0.029 A 
HETATM   15  C   UNL     1      28.332  46.550  56.373  1.00  0.00     0.052 A 
HETATM   16  C   UNL     1      30.235  45.872  58.012  1.00  0.00     0.050 C 
BRANCH  13  17
HETATM   17  C   UNL     1      30.609  43.754  55.501  1.00  0.00     0.061 C 
HETATM   18  C   UNL     1      30.390  43.079  54.157  1.00  0.00     0.012 C 
ENDBRANCH  13  17
ENDBRANCH   8  11
ENDBRANCH   1   7
BRANCH   3  19
HETATM   19  C   UNL     1      25.172  48.614  49.081  1.00  0.00     0.010 A 
HETATM   20  C   UNL     1      26.244  49.281  48.439  1.00  0.00     0.152 A 
HETATM   21  N   UNL     1      25.841  50.291  47.663  1.00  0.00    -0.187 NA
HETATM   22  N   UNL     1      24.506  50.280  47.807  1.00  0.00    -0.289 N 
HETATM   23  H   UNL     1      23.961  50.971  47.303  1.00  0.00     0.188 HD
HETATM   24  C   UNL     1      24.057  49.295  48.637  1.00  0.00     0.123 A 
ENDBRANCH   3  19
TORSDOF 4
ENDMDL
MODEL 3
REMARK VINA RESULT:      -8.3      3.970      7.938
REMARK  4 active torsions:
REMARK  status: ('A' for Active; 'I' for Inactive)
REMARK    1  A    between atoms: C_2  and  C_3 
REMARK    2  A    between atoms: C_5  and  C_6 
REMARK       I    between atoms: C_6  and  N_7 
REMARK    3  A    between atoms: N_7  and  C_8 
REMARK    4  A    between atoms: C_10  and  C_11 
ROOT
HETATM    1  C   UNL     1      28.418  44.138  53.566  1.00  0.00     0.035 A 
HETATM    2  C   UNL     1      29.325  44.070  54.629  1.00  0.00     0.042 A 
HETATM    3  C   UNL     1      29.288  45.005  55.679  1.00  0.00    -0.021 A 
HETATM    4  C   UNL     1      28.333  46.028  55.637  1.00  0.00     0.012 A 
HETATM    5  C   UNL     1      27.429  46.110  54.577  1.00  0.00     0.003 A 
HETATM    6  C   UNL     1      27.470  45.167  53.550  1.00  0.00     0.029 A 
ENDROOT
BRANCH   1   7
HETATM    7  N   UNL     1      28.381  43.217  52.502  1.00  0.00    -0.321 N 
HETATM    8  C   UNL     1      28.089  41.865  52.542  1.00  0.00     0.280 C 
HETATM    9  O   UNL     1      27.863  41.213  53.556  1.00  0.00    -0.265 OA
HETATM   10  H   UNL     1      28.575  43.575  51.573  1.00  0.00     0.169 HD
BRANCH   8  11
HETATM   11  C   UNL     1      28.072  41.261  51.220  1.00  0.00     0.144 A 
HETATM   12  O   UNL     1      28.636  40.026  51.033  1.00  0.00    -0.309 OA
HETATM   13  C   UNL     1      28.514  39.720  49.710  1.00  0.00     0.059 A 
HETATM   14  C   UNL     1      27.861  40.737  49.036  1.00  0.00    -0.029 A 
HETATM   15  C   UNL     1      27.577  41.725  50.018  1.00  0.00     0.052 A 
HETATM   16  C   UNL     1      27.531  40.792  47.590  1.00  0.00     0.050 C 
BRANCH  13  17
HETATM   17  C   UNL     1      29.096  38.421  49.282  1.00  0.00     0.061 C 
HETATM   18  C   UNL     1      29.990  37.825  50.357  1.00  0.00     0.012 C 
ENDBRANCH  13  17
ENDBRANCH   8  11
ENDBRANCH   1   7
BRANCH   3  19
HETATM   19  C   UNL     1      30.217  44.918  56.797  1.00  0.00     0.010 A 
HETATM   20  C   UNL     1      31.271  44.009  57.061  1.00  0.00     0.152 A 
HETATM   21  N   UNL     1      31.917  44.276  58.200  1.00  0.00    -0.187 NA
HETATM   22  N   UNL     1      31.278  45.356  58.675  1.00  0.00    -0.289 N 
HETATM   23  H   UNL     1      31.593  45.756  59.552  1.00  0.00     0.188 HD
HETATM   24  C   UNL     1      30.260  45.783  57.872  1.00  0.00     0.123 A 
ENDBRANCH   3  19
TORSDOF 4
ENDMDL
MODEL 4
REMARK VINA RESULT:      -8.2      2.419      7.877
REMARK  4 active torsions:
REMARK  status: ('A' for Active; 'I' for Inactive)
REMARK    1  A    between atoms: C_2  and  C_3 
REMARK    2  A    between atoms: C_5  and  C_6 
REMARK       I    between atoms: C_6  and  N_7 
REMARK    3  A    between atoms: N_7  and  C_8 
REMARK    4  A    between atoms: C_10  and  C_11 
ROOT
HETATM    1  C   UNL     1      28.514  44.095  53.159  1.00  0.00     0.035 A 
HETATM    2  C   UNL     1      28.824  44.656  54.403  1.00  0.00     0.042 A 
HETATM    3  C   UNL     1      29.883  44.159  55.183  1.00  0.00    -0.021 A 
HETATM    4  C   UNL     1      30.620  43.069  54.702  1.00  0.00     0.012 A 
HETATM    5  C   UNL     1      30.313  42.496  53.468  1.00  0.00     0.003 A 
HETATM    6  C   UNL     1      29.268  43.010  52.700  1.00  0.00     0.029 A 
ENDROOT
BRANCH   1   7
HETATM    7  N   UNL     1      27.490  44.565  52.317  1.00  0.00    -0.321 N 
HETATM    8  C   UNL     1      26.124  44.577  52.542  1.00  0.00     0.280 C 
HETATM    9  O   UNL     1      25.559  44.108  53.525  1.00  0.00    -0.265 OA
HETATM   10  H   UNL     1      27.769  44.968  51.428  1.00  0.00     0.169 HD
BRANCH   8  11
HETATM   11  C   UNL     1      25.389  45.221  51.467  1.00  0.00     0.144 A 
HETATM   12  O   UNL     1      25.745  46.481  51.063  1.00  0.00    -0.309 OA
HETATM   13  C   UNL     1      24.878  46.852  50.079  1.00  0.00     0.059 A 
HETATM   14  C   UNL     1      23.969  45.840  49.826  1.00  0.00    -0.029 A 
HETATM   15  C   UNL     1      24.308  44.790  50.723  1.00  0.00     0.052 A 
HETATM   16  C   UNL     1      22.866  45.847  48.834  1.00  0.00     0.050 C 
BRANCH  13  17
HETATM   17  C   UNL     1      25.070  48.215  49.518  1.00  0.00     0.061 C 
HETATM   18  C   UNL     1      26.541  48.533  49.305  1.00  0.00     0.012 C 
ENDBRANCH  13  17
ENDBRANCH   8  11
ENDBRANCH   1   7
BRANCH   3  19
HETATM   19  C   UNL     1      30.222  44.760  56.465  1.00  0.00     0.010 A 
HETATM   20  C   UNL     1      29.733  45.928  57.101  1.00  0.00     0.152 A 
HETATM   21  N   UNL     1      30.284  46.139  58.300  1.00  0.00    -0.187 NA
HETATM   22  N   UNL     1      31.132  45.108  58.438  1.00  0.00    -0.289 N 
HETATM   23  H   UNL     1      31.681  45.045  59.289  1.00  0.00     0.188 HD
HETATM   24  C   UNL     1      31.128  44.253  57.374  1.00  0.00     0.123 A 
ENDBRANCH   3  19
TORSDOF 4
ENDMDL
MODEL 5
REMARK VINA RESULT:      -8.2      2.507      8.085
REMARK  4 active torsions:
REMARK  status: ('A' for Active; 'I' for Inactive)
REMARK    1  A    between atoms: C_2  and  C_3 
REMARK    2  A    between atoms: C_5  and  C_6 
REMARK       I    between atoms: C_6  and  N_7 
REMARK    3  A    between atoms: N_7  and  C_8 
REMARK    4  A    between atoms: C_10  and  C_11 
ROOT
HETATM    1  C   UNL     1      28.480  44.204  53.253  1.00  0.00     0.035 A 
HETATM    2  C   UNL     1      28.844  44.725  54.499  1.00  0.00     0.042 A 
HETATM    3  C   UNL     1      29.916  44.183  55.230  1.00  0.00    -0.021 A 
HETATM    4  C   UNL     1      30.610  43.090  54.697  1.00  0.00     0.012 A 
HETATM    5  C   UNL     1      30.250  42.557  53.459  1.00  0.00     0.003 A 
HETATM    6  C   UNL     1      29.193  43.115  52.740  1.00  0.00     0.029 A 
ENDROOT
BRANCH   1   7
HETATM    7  N   UNL     1      27.440  44.720  52.457  1.00  0.00    -0.321 N 
HETATM    8  C   UNL     1      26.086  44.780  52.739  1.00  0.00     0.280 C 
HETATM    9  O   UNL     1      25.545  44.324  53.741  1.00  0.00    -0.265 OA
HETATM   10  H   UNL     1      27.698  45.121  51.561  1.00  0.00     0.169 HD
BRANCH   8  11
HETATM   11  C   UNL     1      25.332  45.461  51.701  1.00  0.00     0.144 A 
HETATM   12  O   UNL     1      24.632  44.726  50.780  1.00  0.00    -0.309 OA
HETATM   13  C   UNL     1      24.054  45.605  49.913  1.00  0.00     0.059 A 
HETATM   14  C   UNL     1      24.357  46.907  50.269  1.00  0.00    -0.029 A 
HETATM   15  C   UNL     1      25.179  46.805  51.425  1.00  0.00     0.052 A 
HETATM   16  C   UNL     1      23.925  48.151  49.586  1.00  0.00     0.050 C 
BRANCH  13  17
HETATM   17  C   UNL     1      23.266  45.007  48.803  1.00  0.00     0.061 C 
HETATM   18  C   UNL     1      22.463  43.804  49.269  1.00  0.00     0.012 C 
ENDBRANCH  13  17
ENDBRANCH   8  11
ENDBRANCH   1   7
BRANCH   3  19
HETATM   19  C   UNL     1      30.311  44.742  56.516  1.00  0.00     0.010 A 
HETATM   20  C   UNL     1      29.895  45.921  57.183  1.00  0.00     0.152 A 
HETATM   21  N   UNL     1      30.480  46.081  58.373  1.00  0.00    -0.187 NA
HETATM   22  N   UNL     1      31.278  45.005  58.474  1.00  0.00    -0.289 N 
HETATM   23  H   UNL     1      31.840  44.899  59.312  1.00  0.00     0.188 HD
HETATM   24  C   UNL     1      31.209  44.173  57.396  1.00  0.00     0.123 A 
ENDBRANCH   3  19
TORSDOF 4
ENDMDL
MODEL 6
REMARK VINA RESULT:      -8.0      3.172      8.424
REMARK  4 active torsions:
REMARK  status: ('A' for Active; 'I' for Inactive)
REMARK    1  A    between atoms: C_2  and  C_3 
REMARK    2  A    between atoms: C_5  and  C_6 
REMARK       I    between atoms: C_6  and  N_7 
REMARK    3  A    between atoms: N_7  and  C_8 
REMARK    4  A    between atoms: C_10  and  C_11 
ROOT
HETATM    1  C   UNL     1      26.072  46.383  52.596  1.00  0.00     0.035 A 
HETATM    2  C   UNL     1      26.739  45.168  52.406  1.00  0.00     0.042 A 
HETATM    3  C   UNL     1      27.597  44.646  53.390  1.00  0.00    -0.021 A 
HETATM    4  C   UNL     1      27.793  45.376  54.569  1.00  0.00     0.012 A 
HETATM    5  C   UNL     1      27.140  46.593  54.765  1.00  0.00     0.003 A 
HETATM    6  C   UNL     1      26.281  47.091  53.784  1.00  0.00     0.029 A 
ENDROOT
BRANCH   1   7
HETATM    7  N   UNL     1      25.177  46.944  51.666  1.00  0.00    -0.321 N 
HETATM    8  C   UNL     1      25.458  47.550  50.455  1.00  0.00     0.280 C 
HETATM    9  O   UNL     1      26.580  47.757  50.004  1.00  0.00    -0.265 OA
HETATM   10  H   UNL     1      24.187  46.893  51.887  1.00  0.00     0.169 HD
BRANCH   8  11
HETATM   11  C   UNL     1      24.257  47.935  49.733  1.00  0.00     0.144 A 
HETATM   12  O   UNL     1      23.923  49.260  49.633  1.00  0.00    -0.309 OA
HETATM   13  C   UNL     1      22.748  49.332  48.945  1.00  0.00     0.059 A 
HETATM   14  C   UNL     1      22.321  48.067  48.582  1.00  0.00    -0.029 A 
HETATM   15  C   UNL     1      23.302  47.172  49.091  1.00  0.00     0.052 A 
HETATM   16  C   UNL     1      21.094  47.713  47.826  1.00  0.00     0.050 C 
BRANCH  13  17
HETATM   17  C   UNL     1      22.186  50.694  48.750  1.00  0.00     0.061 C 
HETATM   18  C   UNL     1      21.012  50.955  49.679  1.00  0.00     0.012 C 
ENDBRANCH  13  17
ENDBRANCH   8  11
ENDBRANCH   1   7
BRANCH   3  19
HETATM   19  C   UNL     1      28.271  43.369  53.202  1.00  0.00     0.010 A 
HETATM   20  C   UNL     1      27.821  42.042  53.411  1.00  0.00     0.152 A 
HETATM   21  N   UNL     1      28.740  41.123  53.099  1.00  0.00    -0.187 NA
HETATM   22  N   UNL     1      29.787  41.858  52.691  1.00  0.00    -0.289 N 
HETATM   23  H   UNL     1      30.629  41.375  52.395  1.00  0.00     0.188 HD
HETATM   24  C   UNL     1      29.556  43.202  52.727  1.00  0.00     0.123 A 
ENDBRANCH   3  19
TORSDOF 4
ENDMDL
MODEL 7
REMARK VINA RESULT:      -8.0      4.133      6.912
REMARK  4 active torsions:
REMARK  status: ('A' for Active; 'I' for Inactive)
REMARK    1  A    between atoms: C_2  and  C_3 
REMARK    2  A    between atoms: C_5  and  C_6 
REMARK       I    between atoms: C_6  and  N_7 
REMARK    3  A    between atoms: N_7  and  C_8 
REMARK    4  A    between atoms: C_10  and  C_11 
ROOT
HETATM    1  C   UNL     1      29.056  43.080  53.338  1.00  0.00     0.035 A 
HETATM    2  C   UNL     1      28.188  44.162  53.522  1.00  0.00     0.042 A 
HETATM    3  C   UNL     1      28.397  45.097  54.552  1.00  0.00    -0.021 A 
HETATM    4  C   UNL     1      29.487  44.918  55.412  1.00  0.00     0.012 A 
HETATM    5  C   UNL     1      30.354  43.838  55.244  1.00  0.00     0.003 A 
HETATM    6  C   UNL     1      30.140  42.927  54.209  1.00  0.00     0.029 A 
ENDROOT
BRANCH   1   7
HETATM    7  N   UNL     1      28.922  42.129  52.310  1.00  0.00    -0.321 N 
HETATM    8  C   UNL     1      27.774  41.733  51.645  1.00  0.00     0.280 C 
HETATM    9  O   UNL     1      26.637  42.119  51.893  1.00  0.00    -0.265 OA
HETATM   10  H   UNL     1      29.769  41.673  51.987  1.00  0.00     0.169 HD
BRANCH   8  11
HETATM   11  C   UNL     1      28.048  40.781  50.582  1.00  0.00     0.144 A 
HETATM   12  O   UNL     1      28.801  39.667  50.848  1.00  0.00    -0.309 OA
HETATM   13  C   UNL     1      28.931  38.976  49.680  1.00  0.00     0.059 A 
HETATM   14  C   UNL     1      28.255  39.619  48.659  1.00  0.00    -0.029 A 
HETATM   15  C   UNL     1      27.686  40.780  49.250  1.00  0.00     0.052 A 
HETATM   16  C   UNL     1      28.150  39.195  47.241  1.00  0.00     0.050 C 
BRANCH  13  17
HETATM   17  C   UNL     1      29.749  37.736  49.741  1.00  0.00     0.061 C 
HETATM   18  C   UNL     1      29.896  37.229  51.166  1.00  0.00     0.012 C 
ENDBRANCH  13  17
ENDBRANCH   8  11
ENDBRANCH   1   7
BRANCH   3  19
HETATM   19  C   UNL     1      27.508  46.236  54.726  1.00  0.00     0.010 A 
HETATM   20  C   UNL     1      26.287  46.569  54.088  1.00  0.00     0.152 A 
HETATM   21  N   UNL     1      25.751  47.704  54.544  1.00  0.00    -0.187 NA
HETATM   22  N   UNL     1      26.628  48.109  55.477  1.00  0.00    -0.289 N 
HETATM   23  H   UNL     1      26.437  48.970  55.978  1.00  0.00     0.188 HD
HETATM   24  C   UNL     1      27.690  47.265  55.628  1.00  0.00     0.123 A 
ENDBRANCH   3  19
TORSDOF 4
ENDMDL
MODEL 8
REMARK VINA RESULT:      -7.9      2.273      3.155
REMARK  4 active torsions:
REMARK  status: ('A' for Active; 'I' for Inactive)
REMARK    1  A    between atoms: C_2  and  C_3 
REMARK    2  A    between atoms: C_5  and  C_6 
REMARK       I    between atoms: C_6  and  N_7 
REMARK    3  A    between atoms: N_7  and  C_8 
REMARK    4  A    between atoms: C_10  and  C_11 
ROOT
HETATM    1  C   UNL     1      26.417  45.150  52.523  1.00  0.00     0.035 A 
HETATM    2  C   UNL     1      25.737  44.170  51.793  1.00  0.00     0.042 A 
HETATM    3  C   UNL     1      24.766  44.516  50.836  1.00  0.00    -0.021 A 
HETATM    4  C   UNL     1      24.472  45.870  50.635  1.00  0.00     0.012 A 
HETATM    5  C   UNL     1      25.137  46.856  51.364  1.00  0.00     0.003 A 
HETATM    6  C   UNL     1      26.108  46.496  52.300  1.00  0.00     0.029 A 
ENDROOT
BRANCH   1   7
HETATM    7  N   UNL     1      27.421  44.872  53.470  1.00  0.00    -0.321 N 
HETATM    8  C   UNL     1      28.549  44.084  53.326  1.00  0.00     0.280 C 
HETATM    9  O   UNL     1      28.839  43.429  52.330  1.00  0.00    -0.265 OA
HETATM   10  H   UNL     1      27.332  45.311  54.381  1.00  0.00     0.169 HD
BRANCH   8  11
HETATM   11  C   UNL     1      29.396  44.103  54.506  1.00  0.00     0.144 A 
HETATM   12  O   UNL     1      29.348  45.178  55.356  1.00  0.00    -0.309 OA
HETATM   13  C   UNL     1      30.258  44.954  56.346  1.00  0.00     0.059 A 
HETATM   14  C   UNL     1      30.888  43.736  56.159  1.00  0.00    -0.029 A 
HETATM   15  C   UNL     1      30.323  43.193  54.972  1.00  0.00     0.052 A 
HETATM   16  C   UNL     1      31.937  43.125  57.010  1.00  0.00     0.050 C 
BRANCH  13  17
HETATM   17  C   UNL     1      30.392  46.025  57.367  1.00  0.00     0.061 C 
HETATM   18  C   UNL     1      29.932  45.555  58.737  1.00  0.00     0.012 C 
ENDBRANCH  13  17
ENDBRANCH   8  11
ENDBRANCH   1   7
BRANCH   3  19
HETATM   19  C   UNL     1      24.078  43.495  50.059  1.00  0.00     0.010 A 
HETATM   20  C   UNL     1      22.737  43.418  49.608  1.00  0.00     0.152 A 
HETATM   21  N   UNL     1      22.488  42.317  48.893  1.00  0.00    -0.187 NA
HETATM   22  N   UNL     1      23.670  41.679  48.885  1.00  0.00    -0.289 N 
HETATM   23  H   UNL     1      23.737  40.795  48.393  1.00  0.00     0.188 HD
HETATM   24  C   UNL     1      24.652  42.344  49.560  1.00  0.00     0.123 A 
ENDBRANCH   3  19
TORSDOF 4
ENDMDL
MODEL 9
REMARK VINA RESULT:      -7.8      3.878      6.649
REMARK  4 active torsions:
REMARK  status: ('A' for Active; 'I' for Inactive)
REMARK    1  A    between atoms: C_2  and  C_3 
REMARK    2  A    between atoms: C_5  and  C_6 
REMARK       I    between atoms: C_6  and  N_7 
REMARK    3  A    between atoms: N_7  and  C_8 
REMARK    4  A    between atoms: C_10  and  C_11 
ROOT
HETATM    1  C   UNL     1      29.181  43.401  53.683  1.00  0.00     0.035 A 
HETATM    2  C   UNL     1      28.265  44.457  53.741  1.00  0.00     0.042 A 
HETATM    3  C   UNL     1      28.351  45.442  54.741  1.00  0.00    -0.021 A 
HETATM    4  C   UNL     1      29.366  45.341  55.700  1.00  0.00     0.012 A 
HETATM    5  C   UNL     1      30.279  44.287  55.658  1.00  0.00     0.003 A 
HETATM    6  C   UNL     1      30.188  43.325  54.650  1.00  0.00     0.029 A 
ENDROOT
BRANCH   1   7
HETATM    7  N   UNL     1      29.169  42.403  52.691  1.00  0.00    -0.321 N 
HETATM    8  C   UNL     1      28.495  41.194  52.691  1.00  0.00     0.280 C 
HETATM    9  O   UNL     1      27.818  40.755  53.614  1.00  0.00    -0.265 OA
HETATM   10  H   UNL     1      29.708  42.580  51.849  1.00  0.00     0.169 HD
BRANCH   8  11
HETATM   11  C   UNL     1      28.665  40.462  51.447  1.00  0.00     0.144 A 
HETATM   12  O   UNL     1      28.154  40.976  50.284  1.00  0.00    -0.309 OA
HETATM   13  C   UNL     1      28.422  40.080  49.292  1.00  0.00     0.059 A 
HETATM   14  C   UNL     1      29.116  38.994  49.794  1.00  0.00    -0.029 A 
HETATM   15  C   UNL     1      29.272  39.251  51.184  1.00  0.00     0.052 A 
HETATM   16  C   UNL     1      29.594  37.806  49.045  1.00  0.00     0.050 C 
BRANCH  13  17
HETATM   17  C   UNL     1      27.919  40.433  47.938  1.00  0.00     0.061 C 
HETATM   18  C   UNL     1      26.794  41.453  48.005  1.00  0.00     0.012 C 
ENDBRANCH  13  17
ENDBRANCH   8  11
ENDBRANCH   1   7
BRANCH   3  19
HETATM   19  C   UNL     1      27.413  46.555  54.785  1.00  0.00     0.010 A 
HETATM   20  C   UNL     1      26.325  46.886  53.941  1.00  0.00     0.152 A 
HETATM   21  N   UNL     1      25.681  47.991  54.328  1.00  0.00    -0.187 NA
HETATM   22  N   UNL     1      26.357  48.377  55.422  1.00  0.00    -0.289 N 
HETATM   23  H   UNL     1      26.052  49.214  55.908  1.00  0.00     0.188 HD
HETATM   24  C   UNL     1      27.395  47.551  55.740  1.00  0.00     0.123 A 
ENDBRANCH   3  19
TORSDOF 4
ENDMDL
MODEL 10
REMARK VINA RESULT:      -7.7      2.654      8.096
REMARK  4 active torsions:
REMARK  status: ('A' for Active; 'I' for Inactive)
REMARK    1  A    between atoms: C_2  and  C_3 
REMARK    2  A    between atoms: C_5  and  C_6 
REMARK       I    between atoms: C_6  and  N_7 
REMARK    3  A    between atoms: N_7  and  C_8 
REMARK    4  A    between atoms: C_10  and  C_11 
ROOT
HETATM    1  C   UNL     1      27.496  44.082  52.337  1.00  0.00     0.035 A 
HETATM    2  C   UNL     1      28.269  44.459  53.440  1.00  0.00     0.042 A 
HETATM    3  C   UNL     1      29.038  43.517  54.147  1.00  0.00    -0.021 A 
HETATM    4  C   UNL     1      29.005  42.178  53.739  1.00  0.00     0.012 A 
HETATM    5  C   UNL     1      28.230  41.789  52.646  1.00  0.00     0.003 A 
HETATM    6  C   UNL     1      27.483  42.739  51.947  1.00  0.00     0.029 A 
ENDROOT
BRANCH   1   7
HETATM    7  N   UNL     1      26.730  44.979  51.569  1.00  0.00    -0.321 N 
HETATM    8  C   UNL     1      25.372  45.235  51.640  1.00  0.00     0.280 C 
HETATM    9  O   UNL     1      24.575  44.659  52.373  1.00  0.00    -0.265 OA
HETATM   10  H   UNL     1      27.223  45.532  50.875  1.00  0.00     0.169 HD
BRANCH   8  11
HETATM   11  C   UNL     1      24.957  46.292  50.734  1.00  0.00     0.144 A 
HETATM   12  O   UNL     1      23.781  46.166  50.041  1.00  0.00    -0.309 OA
HETATM   13  C   UNL     1      23.657  47.269  49.248  1.00  0.00     0.059 A 
HETATM   14  C   UNL     1      24.732  48.120  49.430  1.00  0.00    -0.029 A 
HETATM   15  C   UNL     1      25.564  47.484  50.393  1.00  0.00     0.052 A 
HETATM   16  C   UNL     1      24.975  49.421  48.759  1.00  0.00     0.050 C 
BRANCH  13  17
HETATM   17  C   UNL     1      22.452  47.318  48.379  1.00  0.00     0.061 C 
HETATM   18  C   UNL     1      21.415  48.293  48.912  1.00  0.00     0.012 C 
ENDBRANCH  13  17
ENDBRANCH   8  11
ENDBRANCH   1   7
BRANCH   3  19
HETATM   19  C   UNL     1      29.863  43.915  55.279  1.00  0.00     0.010 A 
HETATM   20  C   UNL     1      30.903  43.233  55.956  1.00  0.00     0.152 A 
HETATM   21  N   UNL     1      31.440  43.950  56.948  1.00  0.00    -0.187 NA
HETATM   22  N   UNL     1      30.742  45.096  56.914  1.00  0.00    -0.289 N 
HETATM   23  H   UNL     1      30.969  45.819  57.589  1.00  0.00     0.188 HD
HETATM   24  C   UNL     1      29.794  45.128  55.933  1.00  0.00     0.123 A 
ENDBRANCH   3  19
TORSDOF 4
ENDMDL
