MODEL 1
REMARK VINA RESULT:      -8.9      0.000      0.000
REMARK  5 active torsions:
REMARK  status: ('A' for Active; 'I' for Inactive)
REMARK    1  A    between atoms: C_5  and  C_6 
REMARK       I    between atoms: C_6  and  N_7 
REMARK    2  A    between atoms: N_7  and  C_8 
REMARK    3  A    between atoms: C_13  and  O_14 
REMARK    4  A    between atoms: O_14  and  C_15 
REMARK    5  A    between atoms: C_15  and  C_16 
ROOT
HETATM    1  C   UNL     1      26.306  43.450  50.559  1.00  0.00     0.163 A 
HETATM    2  N   UNL     1      25.809  42.198  50.410  1.00  0.00    -0.241 NA
HETATM    3  C   UNL     1      24.772  42.046  49.561  1.00  0.00     0.119 A 
HETATM    4  C   UNL     1      24.226  43.081  48.823  1.00  0.00     0.022 A 
HETATM    5  C   UNL     1      24.800  44.346  48.929  1.00  0.00     0.042 A 
HETATM    6  C   UNL     1      25.881  44.546  49.789  1.00  0.00     0.115 A 
ENDROOT
BRANCH   1   7
HETATM    7  N   UNL     1      27.312  43.528  51.529  1.00  0.00    -0.305 N 
HETATM    8  C   UNL     1      27.099  43.778  52.868  1.00  0.00     0.258 C 
HETATM    9  O   UNL     1      26.012  43.955  53.409  1.00  0.00    -0.267 OA
HETATM   10  H   UNL     1      28.167  43.081  51.245  1.00  0.00     0.170 HD
BRANCH   8  11
HETATM   11  C   UNL     1      28.314  43.815  53.719  1.00  0.00     0.044 A 
HETATM   12  C   UNL     1      28.511  44.754  54.762  1.00  0.00     0.008 A 
HETATM   13  C   UNL     1      29.686  44.656  55.519  1.00  0.00     0.043 A 
HETATM   14  C   UNL     1      27.804  45.887  55.273  1.00  0.00     0.032 A 
HETATM   15  C   UNL     1      30.678  43.699  55.269  1.00  0.00     0.030 A 
HETATM   16  N   UNL     1      29.645  45.642  56.480  1.00  0.00    -0.365 N 
HETATM   17  C   UNL     1      30.481  42.814  54.210  1.00  0.00     0.003 A 
HETATM   18  C   UNL     1      29.318  42.867  53.445  1.00  0.00     0.018 A 
HETATM   19  H   UNL     1      30.365  45.795  57.173  1.00  0.00     0.165 HD
HETATM   20  C   UNL     1      28.512  46.394  56.339  1.00  0.00     0.089 A 
ENDBRANCH   8  11
ENDBRANCH   1   7
BRANCH   6  21
HETATM   21  O   UNL     1      26.636  45.685  49.827  1.00  0.00    -0.343 OA
BRANCH  21  22
HETATM   22  C   UNL     1      26.181  46.776  50.618  1.00  0.00     0.216 C 
BRANCH  22  23
HETATM   23  C   UNL     1      25.905  47.942  49.709  1.00  0.00    -0.017 A 
HETATM   24  C   UNL     1      24.602  48.270  49.343  1.00  0.00     0.125 A 
HETATM   25  N   UNL     1      24.277  49.300  48.525  1.00  0.00    -0.272 NA
HETATM   26  C   UNL     1      25.300  50.042  48.050  1.00  0.00     0.116 A 
HETATM   27  C   UNL     1      26.630  49.801  48.350  1.00  0.00     0.020 A 
HETATM   28  C   UNL     1      26.934  48.733  49.191  1.00  0.00     0.012 A 
ENDBRANCH  22  23
ENDBRANCH  21  22
ENDBRANCH   6  21
TORSDOF 5
ENDMDL
MODEL 2
REMARK VINA RESULT:      -8.8      1.942      2.679
REMARK  5 active torsions:
REMARK  status: ('A' for Active; 'I' for Inactive)
REMARK    1  A    between atoms: C_5  and  C_6 
REMARK       I    between atoms: C_6  and  N_7 
REMARK    2  A    between atoms: N_7  and  C_8 
REMARK    3  A    between atoms: C_13  and  O_14 
REMARK    4  A    between atoms: O_14  and  C_15 
REMARK    5  A    between atoms: C_15  and  C_16 
ROOT
HETATM    1  C   UNL     1      27.431  41.968  51.237  1.00  0.00     0.163 A 
HETATM    2  N   UNL     1      28.323  41.182  50.586  1.00  0.00    -0.241 NA
HETATM    3  C   UNL     1      27.826  40.288  49.707  1.00  0.00     0.119 A 
HETATM    4  C   UNL     1      26.479  40.162  49.418  1.00  0.00     0.022 A 
HETATM    5  C   UNL     1      25.584  41.033  50.037  1.00  0.00     0.042 A 
HETATM    6  C   UNL     1      26.056  41.980  50.947  1.00  0.00     0.115 A 
ENDROOT
BRANCH   1   7
HETATM    7  N   UNL     1      28.028  42.794  52.197  1.00  0.00    -0.305 N 
HETATM    8  C   UNL     1      28.313  42.420  53.493  1.00  0.00     0.258 C 
HETATM    9  O   UNL     1      28.104  41.319  53.992  1.00  0.00    -0.267 OA
HETATM   10  H   UNL     1      28.519  43.574  51.793  1.00  0.00     0.170 HD
BRANCH   8  11
HETATM   11  C   UNL     1      28.949  43.458  54.340  1.00  0.00     0.044 A 
HETATM   12  C   UNL     1      28.387  44.740  54.560  1.00  0.00     0.008 A 
HETATM   13  C   UNL     1      29.069  45.616  55.416  1.00  0.00     0.043 A 
HETATM   14  C   UNL     1      27.245  45.460  54.085  1.00  0.00     0.032 A 
HETATM   15  C   UNL     1      30.285  45.292  56.030  1.00  0.00     0.030 A 
HETATM   16  N   UNL     1      28.329  46.775  55.500  1.00  0.00    -0.365 N 
HETATM   17  C   UNL     1      30.839  44.040  55.763  1.00  0.00     0.003 A 
HETATM   18  C   UNL     1      30.184  43.134  54.933  1.00  0.00     0.018 A 
HETATM   19  H   UNL     1      28.585  47.578  56.060  1.00  0.00     0.165 HD
HETATM   20  C   UNL     1      27.226  46.692  54.697  1.00  0.00     0.089 A 
ENDBRANCH   8  11
ENDBRANCH   1   7
BRANCH   6  21
HETATM   21  O   UNL     1      25.302  42.998  51.461  1.00  0.00    -0.343 OA
BRANCH  21  22
HETATM   22  C   UNL     1      24.569  43.821  50.562  1.00  0.00     0.216 C 
BRANCH  22  23
HETATM   23  C   UNL     1      25.201  45.185  50.541  1.00  0.00    -0.017 A 
HETATM   24  C   UNL     1      24.778  46.182  51.416  1.00  0.00     0.125 A 
HETATM   25  N   UNL     1      25.295  47.434  51.450  1.00  0.00    -0.272 NA
HETATM   26  C   UNL     1      26.284  47.706  50.573  1.00  0.00     0.116 A 
HETATM   27  C   UNL     1      26.777  46.788  49.661  1.00  0.00     0.020 A 
HETATM   28  C   UNL     1      26.225  45.510  49.645  1.00  0.00     0.012 A 
ENDBRANCH  22  23
ENDBRANCH  21  22
ENDBRANCH   6  21
TORSDOF 5
ENDMDL
MODEL 3
REMARK VINA RESULT:      -8.8      1.462      2.448
REMARK  5 active torsions:
REMARK  status: ('A' for Active; 'I' for Inactive)
REMARK    1  A    between atoms: C_5  and  C_6 
REMARK       I    between atoms: C_6  and  N_7 
REMARK    2  A    between atoms: N_7  and  C_8 
REMARK    3  A    between atoms: C_13  and  O_14 
REMARK    4  A    between atoms: O_14  and  C_15 
REMARK    5  A    between atoms: C_15  and  C_16 
ROOT
HETATM    1  C   UNL     1      27.268  43.111  51.839  1.00  0.00     0.163 A 
HETATM    2  N   UNL     1      27.505  41.777  51.859  1.00  0.00    -0.241 NA
HETATM    3  C   UNL     1      27.085  41.064  50.794  1.00  0.00     0.119 A 
HETATM    4  C   UNL     1      26.468  41.623  49.690  1.00  0.00     0.022 A 
HETATM    5  C   UNL     1      26.304  43.006  49.652  1.00  0.00     0.042 A 
HETATM    6  C   UNL     1      26.732  43.784  50.729  1.00  0.00     0.115 A 
ENDROOT
BRANCH   1   7
HETATM    7  N   UNL     1      27.649  43.752  53.025  1.00  0.00    -0.305 N 
HETATM    8  C   UNL     1      28.939  43.823  53.504  1.00  0.00     0.258 C 
HETATM    9  O   UNL     1      29.938  43.354  52.969  1.00  0.00    -0.267 OA
HETATM   10  H   UNL     1      26.971  44.424  53.342  1.00  0.00     0.170 HD
BRANCH   8  11
HETATM   11  C   UNL     1      29.114  44.555  54.782  1.00  0.00     0.044 A 
HETATM   12  C   UNL     1      30.092  44.217  55.750  1.00  0.00     0.008 A 
HETATM   13  C   UNL     1      30.180  45.015  56.899  1.00  0.00     0.043 A 
HETATM   14  C   UNL     1      31.068  43.184  55.910  1.00  0.00     0.032 A 
HETATM   15  C   UNL     1      29.329  46.101  57.142  1.00  0.00     0.030 A 
HETATM   16  N   UNL     1      31.207  44.521  57.671  1.00  0.00    -0.365 N 
HETATM   17  C   UNL     1      28.346  46.386  56.194  1.00  0.00     0.003 A 
HETATM   18  C   UNL     1      28.238  45.629  55.031  1.00  0.00     0.018 A 
HETATM   19  H   UNL     1      31.498  44.914  58.557  1.00  0.00     0.165 HD
HETATM   20  C   UNL     1      31.750  43.411  57.084  1.00  0.00     0.089 A 
ENDBRANCH   8  11
ENDBRANCH   1   7
BRANCH   6  21
HETATM   21  O   UNL     1      26.796  45.150  50.715  1.00  0.00    -0.343 OA
BRANCH  21  22
HETATM   22  C   UNL     1      25.614  45.888  50.998  1.00  0.00     0.216 C 
BRANCH  22  23
HETATM   23  C   UNL     1      25.647  47.164  50.202  1.00  0.00    -0.017 A 
HETATM   24  C   UNL     1      24.473  47.849  49.901  1.00  0.00     0.125 A 
HETATM   25  N   UNL     1      24.425  48.998  49.185  1.00  0.00    -0.272 NA
HETATM   26  C   UNL     1      25.604  49.492  48.751  1.00  0.00     0.116 A 
HETATM   27  C   UNL     1      26.827  48.889  48.994  1.00  0.00     0.020 A 
HETATM   28  C   UNL     1      26.846  47.707  49.729  1.00  0.00     0.012 A 
ENDBRANCH  22  23
ENDBRANCH  21  22
ENDBRANCH   6  21
TORSDOF 5
ENDMDL
MODEL 4
REMARK VINA RESULT:      -8.8      1.293      7.042
REMARK  5 active torsions:
REMARK  status: ('A' for Active; 'I' for Inactive)
REMARK    1  A    between atoms: C_5  and  C_6 
REMARK       I    between atoms: C_6  and  N_7 
REMARK    2  A    between atoms: N_7  and  C_8 
REMARK    3  A    between atoms: C_13  and  O_14 
REMARK    4  A    between atoms: O_14  and  C_15 
REMARK    5  A    between atoms: C_15  and  C_16 
ROOT
HETATM    1  C   UNL     1      26.440  43.913  50.160  1.00  0.00     0.163 A 
HETATM    2  N   UNL     1      25.533  43.169  49.482  1.00  0.00    -0.241 NA
HETATM    3  C   UNL     1      25.462  41.858  49.787  1.00  0.00     0.119 A 
HETATM    4  C   UNL     1      26.233  41.255  50.766  1.00  0.00     0.022 A 
HETATM    5  C   UNL     1      27.103  42.050  51.508  1.00  0.00     0.042 A 
HETATM    6  C   UNL     1      27.201  43.415  51.230  1.00  0.00     0.115 A 
ENDROOT
BRANCH   1   7
HETATM    7  N   UNL     1      26.510  45.237  49.709  1.00  0.00    -0.305 N 
HETATM    8  C   UNL     1      25.793  46.289  50.235  1.00  0.00     0.258 C 
HETATM    9  O   UNL     1      25.005  46.232  51.174  1.00  0.00    -0.267 OA
HETATM   10  H   UNL     1      27.347  45.428  49.184  1.00  0.00     0.170 HD
BRANCH   8  11
HETATM   11  C   UNL     1      26.025  47.610  49.602  1.00  0.00     0.044 A 
HETATM   12  C   UNL     1      24.988  48.415  49.068  1.00  0.00     0.008 A 
HETATM   13  C   UNL     1      25.336  49.662  48.533  1.00  0.00     0.043 A 
HETATM   14  C   UNL     1      23.577  48.282  48.877  1.00  0.00     0.032 A 
HETATM   15  C   UNL     1      26.656  50.127  48.474  1.00  0.00     0.030 A 
HETATM   16  N   UNL     1      24.176  50.271  48.107  1.00  0.00    -0.365 N 
HETATM   17  C   UNL     1      27.664  49.297  48.966  1.00  0.00     0.003 A 
HETATM   18  C   UNL     1      27.357  48.059  49.523  1.00  0.00     0.018 A 
HETATM   19  H   UNL     1      24.133  51.189  47.686  1.00  0.00     0.165 HD
HETATM   20  C   UNL     1      23.106  49.444  48.308  1.00  0.00     0.089 A 
ENDBRANCH   8  11
ENDBRANCH   1   7
BRANCH   6  21
HETATM   21  O   UNL     1      27.871  44.314  52.013  1.00  0.00    -0.343 OA
BRANCH  21  22
HETATM   22  C   UNL     1      27.420  44.524  53.345  1.00  0.00     0.216 C 
BRANCH  22  23
HETATM   23  C   UNL     1      28.603  44.429  54.269  1.00  0.00    -0.017 A 
HETATM   24  C   UNL     1      28.872  45.437  55.192  1.00  0.00     0.125 A 
HETATM   25  N   UNL     1      29.919  45.423  56.050  1.00  0.00    -0.272 NA
HETATM   26  C   UNL     1      30.739  44.353  55.989  1.00  0.00     0.116 A 
HETATM   27  C   UNL     1      30.563  43.298  55.109  1.00  0.00     0.020 A 
HETATM   28  C   UNL     1      29.480  43.341  54.236  1.00  0.00     0.012 A 
ENDBRANCH  22  23
ENDBRANCH  21  22
ENDBRANCH   6  21
TORSDOF 5
ENDMDL
MODEL 5
REMARK VINA RESULT:      -8.6      2.030      3.353
REMARK  5 active torsions:
REMARK  status: ('A' for Active; 'I' for Inactive)
REMARK    1  A    between atoms: C_5  and  C_6 
REMARK       I    between atoms: C_6  and  N_7 
REMARK    2  A    between atoms: N_7  and  C_8 
REMARK    3  A    between atoms: C_13  and  O_14 
REMARK    4  A    between atoms: O_14  and  C_15 
REMARK    5  A    between atoms: C_15  and  C_16 
ROOT
HETATM    1  C   UNL     1      27.372  41.687  51.236  1.00  0.00     0.163 A 
HETATM    2  N   UNL     1      28.463  40.944  50.928  1.00  0.00    -0.241 NA
HETATM    3  C   UNL     1      28.263  39.843  50.177  1.00  0.00     0.119 A 
HETATM    4  C   UNL     1      27.028  39.463  49.685  1.00  0.00     0.022 A 
HETATM    5  C   UNL     1      25.931  40.281  49.943  1.00  0.00     0.042 A 
HETATM    6  C   UNL     1      26.094  41.436  50.710  1.00  0.00     0.115 A 
ENDROOT
BRANCH   1   7
HETATM    7  N   UNL     1      27.661  42.753  52.098  1.00  0.00    -0.305 N 
HETATM    8  C   UNL     1      27.733  42.660  53.471  1.00  0.00     0.258 C 
HETATM    9  O   UNL     1      27.571  41.643  54.138  1.00  0.00    -0.267 OA
HETATM   10  H   UNL     1      28.119  43.520  51.634  1.00  0.00     0.170 HD
BRANCH   8  11
HETATM   11  C   UNL     1      28.054  43.918  54.187  1.00  0.00     0.044 A 
HETATM   12  C   UNL     1      29.234  44.106  54.949  1.00  0.00     0.008 A 
HETATM   13  C   UNL     1      29.437  45.358  55.544  1.00  0.00     0.043 A 
HETATM   14  C   UNL     1      30.346  43.296  55.341  1.00  0.00     0.032 A 
HETATM   15  C   UNL     1      28.517  46.410  55.445  1.00  0.00     0.030 A 
HETATM   16  N   UNL     1      30.648  45.315  56.200  1.00  0.00    -0.365 N 
HETATM   17  C   UNL     1      27.343  46.186  54.726  1.00  0.00     0.003 A 
HETATM   18  C   UNL     1      27.112  44.962  54.104  1.00  0.00     0.018 A 
HETATM   19  H   UNL     1      31.050  46.090  56.710  1.00  0.00     0.165 HD
HETATM   20  C   UNL     1      31.204  44.072  56.086  1.00  0.00     0.089 A 
ENDBRANCH   8  11
ENDBRANCH   1   7
BRANCH   6  21
HETATM   21  O   UNL     1      25.138  42.402  50.863  1.00  0.00    -0.343 OA
BRANCH  21  22
HETATM   22  C   UNL     1      24.885  43.285  49.777  1.00  0.00     0.216 C 
BRANCH  22  23
HETATM   23  C   UNL     1      25.287  44.674  50.189  1.00  0.00    -0.017 A 
HETATM   24  C   UNL     1      26.266  45.373  49.488  1.00  0.00     0.125 A 
HETATM   25  N   UNL     1      26.683  46.622  49.803  1.00  0.00    -0.272 NA
HETATM   26  C   UNL     1      26.095  47.207  50.869  1.00  0.00     0.116 A 
HETATM   27  C   UNL     1      25.114  46.600  51.635  1.00  0.00     0.020 A 
HETATM   28  C   UNL     1      24.707  45.314  51.289  1.00  0.00     0.012 A 
ENDBRANCH  22  23
ENDBRANCH  21  22
ENDBRANCH   6  21
TORSDOF 5
ENDMDL
MODEL 6
REMARK VINA RESULT:      -8.6      4.080      9.437
REMARK  5 active torsions:
REMARK  status: ('A' for Active; 'I' for Inactive)
REMARK    1  A    between atoms: C_5  and  C_6 
REMARK       I    between atoms: C_6  and  N_7 
REMARK    2  A    between atoms: N_7  and  C_8 
REMARK    3  A    between atoms: C_13  and  O_14 
REMARK    4  A    between atoms: O_14  and  C_15 
REMARK    5  A    between atoms: C_15  and  C_16 
ROOT
HETATM    1  C   UNL     1      24.265  49.115  48.631  1.00  0.00     0.163 A 
HETATM    2  N   UNL     1      24.790  49.973  47.723  1.00  0.00    -0.241 NA
HETATM    3  C   UNL     1      26.127  50.146  47.744  1.00  0.00     0.119 A 
HETATM    4  C   UNL     1      26.975  49.475  48.606  1.00  0.00     0.022 A 
HETATM    5  C   UNL     1      26.427  48.537  49.479  1.00  0.00     0.042 A 
HETATM    6  C   UNL     1      25.048  48.320  49.485  1.00  0.00     0.115 A 
ENDROOT
BRANCH   1   7
HETATM    7  N   UNL     1      22.866  49.073  48.601  1.00  0.00    -0.305 N 
HETATM    8  C   UNL     1      22.036  49.872  49.358  1.00  0.00     0.258 C 
HETATM    9  O   UNL     1      22.389  50.738  50.152  1.00  0.00    -0.267 OA
HETATM   10  H   UNL     1      22.504  48.644  47.766  1.00  0.00     0.170 HD
BRANCH   8  11
HETATM   11  C   UNL     1      20.581  49.658  49.164  1.00  0.00     0.044 A 
HETATM   12  C   UNL     1      19.683  50.686  48.783  1.00  0.00     0.008 A 
HETATM   13  C   UNL     1      18.337  50.343  48.594  1.00  0.00     0.043 A 
HETATM   14  C   UNL     1      19.768  52.096  48.556  1.00  0.00     0.032 A 
HETATM   15  C   UNL     1      17.843  49.048  48.794  1.00  0.00     0.030 A 
HETATM   16  N   UNL     1      17.669  51.482  48.204  1.00  0.00    -0.365 N 
HETATM   17  C   UNL     1      18.739  48.063  49.211  1.00  0.00     0.003 A 
HETATM   18  C   UNL     1      20.088  48.359  49.392  1.00  0.00     0.018 A 
HETATM   19  H   UNL     1      16.681  51.521  47.989  1.00  0.00     0.165 HD
HETATM   20  C   UNL     1      18.524  52.549  48.181  1.00  0.00     0.089 A 
ENDBRANCH   8  11
ENDBRANCH   1   7
BRANCH   6  21
HETATM   21  O   UNL     1      24.432  47.300  50.155  1.00  0.00    -0.343 OA
BRANCH  21  22
HETATM   22  C   UNL     1      25.111  46.055  50.271  1.00  0.00     0.216 C 
BRANCH  22  23
HETATM   23  C   UNL     1      25.284  45.742  51.732  1.00  0.00    -0.017 A 
HETATM   24  C   UNL     1      24.892  44.510  52.250  1.00  0.00     0.125 A 
HETATM   25  N   UNL     1      25.011  44.160  53.553  1.00  0.00    -0.272 NA
HETATM   26  C   UNL     1      25.550  45.079  54.381  1.00  0.00     0.116 A 
HETATM   27  C   UNL     1      25.971  46.333  53.969  1.00  0.00     0.020 A 
HETATM   28  C   UNL     1      25.833  46.667  52.625  1.00  0.00     0.012 A 
ENDBRANCH  22  23
ENDBRANCH  21  22
ENDBRANCH   6  21
TORSDOF 5
ENDMDL
MODEL 7
REMARK VINA RESULT:      -8.6      5.455      9.492
REMARK  5 active torsions:
REMARK  status: ('A' for Active; 'I' for Inactive)
REMARK    1  A    between atoms: C_5  and  C_6 
REMARK       I    between atoms: C_6  and  N_7 
REMARK    2  A    between atoms: N_7  and  C_8 
REMARK    3  A    between atoms: C_13  and  O_14 
REMARK    4  A    between atoms: O_14  and  C_15 
REMARK    5  A    between atoms: C_15  and  C_16 
ROOT
HETATM    1  C   UNL     1      24.147  49.261  48.698  1.00  0.00     0.163 A 
HETATM    2  N   UNL     1      24.986  50.102  48.046  1.00  0.00    -0.241 NA
HETATM    3  C   UNL     1      26.309  49.903  48.216  1.00  0.00     0.119 A 
HETATM    4  C   UNL     1      26.839  48.879  48.980  1.00  0.00     0.022 A 
HETATM    5  C   UNL     1      25.963  47.976  49.578  1.00  0.00     0.042 A 
HETATM    6  C   UNL     1      24.586  48.140  49.421  1.00  0.00     0.115 A 
ENDROOT
BRANCH   1   7
HETATM    7  N   UNL     1      22.798  49.604  48.542  1.00  0.00    -0.305 N 
HETATM    8  C   UNL     1      22.078  50.391  49.414  1.00  0.00     0.258 C 
HETATM    9  O   UNL     1      22.503  50.916  50.438  1.00  0.00    -0.267 OA
HETATM   10  H   UNL     1      22.474  49.498  47.595  1.00  0.00     0.170 HD
BRANCH   8  11
HETATM   11  C   UNL     1      20.659  50.627  49.050  1.00  0.00     0.044 A 
HETATM   12  C   UNL     1      19.655  49.629  49.127  1.00  0.00     0.008 A 
HETATM   13  C   UNL     1      18.344  49.992  48.792  1.00  0.00     0.043 A 
HETATM   14  C   UNL     1      19.612  48.235  49.441  1.00  0.00     0.032 A 
HETATM   15  C   UNL     1      17.993  51.278  48.359  1.00  0.00     0.030 A 
HETATM   16  N   UNL     1      17.547  48.882  48.968  1.00  0.00    -0.365 N 
HETATM   17  C   UNL     1      19.007  52.230  48.250  1.00  0.00     0.003 A 
HETATM   18  C   UNL     1      20.319  51.914  48.590  1.00  0.00     0.018 A 
HETATM   19  H   UNL     1      16.549  48.863  48.807  1.00  0.00     0.165 HD
HETATM   20  C   UNL     1      18.305  47.813  49.357  1.00  0.00     0.089 A 
ENDBRANCH   8  11
ENDBRANCH   1   7
BRANCH   6  21
HETATM   21  O   UNL     1      23.652  47.215  49.798  1.00  0.00    -0.343 OA
BRANCH  21  22
HETATM   22  C   UNL     1      23.681  45.931  49.186  1.00  0.00     0.216 C 
BRANCH  22  23
HETATM   23  C   UNL     1      22.385  45.724  48.451  1.00  0.00    -0.017 A 
HETATM   24  C   UNL     1      21.419  44.848  48.938  1.00  0.00     0.125 A 
HETATM   25  N   UNL     1      20.234  44.606  48.328  1.00  0.00    -0.272 NA
HETATM   26  C   UNL     1      19.996  45.272  47.179  1.00  0.00     0.116 A 
HETATM   27  C   UNL     1      20.889  46.164  46.608  1.00  0.00     0.020 A 
HETATM   28  C   UNL     1      22.101  46.390  47.255  1.00  0.00     0.012 A 
ENDBRANCH  22  23
ENDBRANCH  21  22
ENDBRANCH   6  21
TORSDOF 5
ENDMDL
MODEL 8
REMARK VINA RESULT:      -8.5      3.950      9.432
REMARK  5 active torsions:
REMARK  status: ('A' for Active; 'I' for Inactive)
REMARK    1  A    between atoms: C_5  and  C_6 
REMARK       I    between atoms: C_6  and  N_7 
REMARK    2  A    between atoms: N_7  and  C_8 
REMARK    3  A    between atoms: C_13  and  O_14 
REMARK    4  A    between atoms: O_14  and  C_15 
REMARK    5  A    between atoms: C_15  and  C_16 
ROOT
HETATM    1  C   UNL     1      24.263  49.350  48.608  1.00  0.00     0.163 A 
HETATM    2  N   UNL     1      25.053  50.140  47.840  1.00  0.00    -0.241 NA
HETATM    3  C   UNL     1      26.386  50.006  47.990  1.00  0.00     0.119 A 
HETATM    4  C   UNL     1      26.974  49.094  48.848  1.00  0.00     0.022 A 
HETATM    5  C   UNL     1      26.148  48.235  49.570  1.00  0.00     0.042 A 
HETATM    6  C   UNL     1      24.762  48.333  49.438  1.00  0.00     0.115 A 
ENDROOT
BRANCH   1   7
HETATM    7  N   UNL     1      22.899  49.627  48.456  1.00  0.00    -0.305 N 
HETATM    8  C   UNL     1      22.148  50.397  49.318  1.00  0.00     0.258 C 
HETATM    9  O   UNL     1      22.556  50.961  50.329  1.00  0.00    -0.267 OA
HETATM   10  H   UNL     1      22.573  49.488  47.514  1.00  0.00     0.170 HD
BRANCH   8  11
HETATM   11  C   UNL     1      20.718  50.560  48.961  1.00  0.00     0.044 A 
HETATM   12  C   UNL     1      19.783  49.495  48.968  1.00  0.00     0.008 A 
HETATM   13  C   UNL     1      18.451  49.789  48.649  1.00  0.00     0.043 A 
HETATM   14  C   UNL     1      19.833  48.083  49.192  1.00  0.00     0.032 A 
HETATM   15  C   UNL     1      18.016  51.073  48.296  1.00  0.00     0.030 A 
HETATM   16  N   UNL     1      17.731  48.620  48.748  1.00  0.00    -0.365 N 
HETATM   17  C   UNL     1      18.963  52.096  48.255  1.00  0.00     0.003 A 
HETATM   18  C   UNL     1      20.294  51.848  48.583  1.00  0.00     0.018 A 
HETATM   19  H   UNL     1      16.737  48.544  48.580  1.00  0.00     0.165 HD
HETATM   20  C   UNL     1      18.558  47.581  49.073  1.00  0.00     0.089 A 
ENDBRANCH   8  11
ENDBRANCH   1   7
BRANCH   6  21
HETATM   21  O   UNL     1      23.873  47.426  49.945  1.00  0.00    -0.343 OA
BRANCH  21  22
HETATM   22  C   UNL     1      23.701  46.190  49.264  1.00  0.00     0.216 C 
BRANCH  22  23
HETATM   23  C   UNL     1      24.505  45.137  49.976  1.00  0.00    -0.017 A 
HETATM   24  C   UNL     1      24.175  44.740  51.270  1.00  0.00     0.125 A 
HETATM   25  N   UNL     1      24.855  43.805  51.975  1.00  0.00    -0.272 NA
HETATM   26  C   UNL     1      25.913  43.233  51.362  1.00  0.00     0.116 A 
HETATM   27  C   UNL     1      26.326  43.556  50.080  1.00  0.00     0.020 A 
HETATM   28  C   UNL     1      25.610  44.523  49.379  1.00  0.00     0.012 A 
ENDBRANCH  22  23
ENDBRANCH  21  22
ENDBRANCH   6  21
TORSDOF 5
ENDMDL
MODEL 9
REMARK VINA RESULT:      -8.5      1.830      4.490
REMARK  5 active torsions:
REMARK  status: ('A' for Active; 'I' for Inactive)
REMARK    1  A    between atoms: C_5  and  C_6 
REMARK       I    between atoms: C_6  and  N_7 
REMARK    2  A    between atoms: N_7  and  C_8 
REMARK    3  A    between atoms: C_13  and  O_14 
REMARK    4  A    between atoms: O_14  and  C_15 
REMARK    5  A    between atoms: C_15  and  C_16 
ROOT
HETATM    1  C   UNL     1      25.813  45.599  51.118  1.00  0.00     0.163 A 
HETATM    2  N   UNL     1      25.907  46.932  50.893  1.00  0.00    -0.241 NA
HETATM    3  C   UNL     1      24.959  47.491  50.114  1.00  0.00     0.119 A 
HETATM    4  C   UNL     1      23.896  46.789  49.574  1.00  0.00     0.022 A 
HETATM    5  C   UNL     1      23.771  45.436  49.881  1.00  0.00     0.042 A 
HETATM    6  C   UNL     1      24.725  44.818  50.691  1.00  0.00     0.115 A 
ENDROOT
BRANCH   1   7
HETATM    7  N   UNL     1      26.890  45.090  51.853  1.00  0.00    -0.305 N 
HETATM    8  C   UNL     1      26.900  44.915  53.220  1.00  0.00     0.258 C 
HETATM    9  O   UNL     1      25.977  45.161  53.990  1.00  0.00    -0.267 OA
HETATM   10  H   UNL     1      27.540  44.570  51.288  1.00  0.00     0.170 HD
BRANCH   8  11
HETATM   11  C   UNL     1      28.151  44.359  53.791  1.00  0.00     0.044 A 
HETATM   12  C   UNL     1      28.801  44.898  54.929  1.00  0.00     0.008 A 
HETATM   13  C   UNL     1      29.955  44.254  55.392  1.00  0.00     0.043 A 
HETATM   14  C   UNL     1      28.610  46.030  55.782  1.00  0.00     0.032 A 
HETATM   15  C   UNL     1      30.507  43.129  54.764  1.00  0.00     0.030 A 
HETATM   16  N   UNL     1      30.389  44.930  56.510  1.00  0.00    -0.365 N 
HETATM   17  C   UNL     1      29.874  42.643  53.620  1.00  0.00     0.003 A 
HETATM   18  C   UNL     1      28.714  43.244  53.139  1.00  0.00     0.018 A 
HETATM   19  H   UNL     1      31.202  44.674  57.055  1.00  0.00     0.165 HD
HETATM   20  C   UNL     1      29.585  46.008  56.754  1.00  0.00     0.089 A 
ENDBRANCH   8  11
ENDBRANCH   1   7
BRANCH   6  21
HETATM   21  O   UNL     1      24.599  43.559  51.208  1.00  0.00    -0.343 OA
BRANCH  21  22
HETATM   22  C   UNL     1      24.439  42.468  50.309  1.00  0.00     0.216 C 
BRANCH  22  23
HETATM   23  C   UNL     1      25.791  41.861  50.052  1.00  0.00    -0.017 A 
HETATM   24  C   UNL     1      26.430  42.030  48.827  1.00  0.00     0.125 A 
HETATM   25  N   UNL     1      27.642  41.509  48.522  1.00  0.00    -0.272 NA
HETATM   26  C   UNL     1      28.251  40.786  49.485  1.00  0.00     0.116 A 
HETATM   27  C   UNL     1      27.703  40.556  50.736  1.00  0.00     0.020 A 
HETATM   28  C   UNL     1      26.454  41.101  51.021  1.00  0.00     0.012 A 
ENDBRANCH  22  23
ENDBRANCH  21  22
ENDBRANCH   6  21
TORSDOF 5
ENDMDL
MODEL 10
REMARK VINA RESULT:      -8.5      3.206      5.655
REMARK  5 active torsions:
REMARK  status: ('A' for Active; 'I' for Inactive)
REMARK    1  A    between atoms: C_5  and  C_6 
REMARK       I    between atoms: C_6  and  N_7 
REMARK    2  A    between atoms: N_7  and  C_8 
REMARK    3  A    between atoms: C_13  and  O_14 
REMARK    4  A    between atoms: O_14  and  C_15 
REMARK    5  A    between atoms: C_15  and  C_16 
ROOT
HETATM    1  C   UNL     1      25.193  42.915  51.119  1.00  0.00     0.163 A 
HETATM    2  N   UNL     1      24.127  43.725  51.328  1.00  0.00    -0.241 NA
HETATM    3  C   UNL     1      23.138  43.685  50.412  1.00  0.00     0.119 A 
HETATM    4  C   UNL     1      23.144  42.849  49.310  1.00  0.00     0.022 A 
HETATM    5  C   UNL     1      24.211  41.967  49.154  1.00  0.00     0.042 A 
HETATM    6  C   UNL     1      25.252  41.967  50.084  1.00  0.00     0.115 A 
ENDROOT
BRANCH   1   7
HETATM    7  N   UNL     1      26.210  43.095  52.065  1.00  0.00    -0.305 N 
HETATM    8  C   UNL     1      27.362  43.823  51.857  1.00  0.00     0.258 C 
HETATM    9  O   UNL     1      27.662  44.428  50.833  1.00  0.00    -0.267 OA
HETATM   10  H   UNL     1      25.904  42.920  53.008  1.00  0.00     0.170 HD
BRANCH   8  11
HETATM   11  C   UNL     1      28.304  43.881  53.001  1.00  0.00     0.044 A 
HETATM   12  C   UNL     1      28.216  44.839  54.041  1.00  0.00     0.008 A 
HETATM   13  C   UNL     1      29.146  44.759  55.086  1.00  0.00     0.043 A 
HETATM   14  C   UNL     1      27.398  45.978  54.324  1.00  0.00     0.032 A 
HETATM   15  C   UNL     1      30.168  43.802  55.129  1.00  0.00     0.030 A 
HETATM   16  N   UNL     1      28.850  45.761  55.984  1.00  0.00    -0.365 N 
HETATM   17  C   UNL     1      30.260  42.897  54.071  1.00  0.00     0.003 A 
HETATM   18  C   UNL     1      29.345  42.931  53.023  1.00  0.00     0.018 A 
HETATM   19  H   UNL     1      29.358  45.930  56.841  1.00  0.00     0.165 HD
HETATM   20  C   UNL     1      27.796  46.506  55.531  1.00  0.00     0.089 A 
ENDBRANCH   8  11
ENDBRANCH   1   7
BRANCH   6  21
HETATM   21  O   UNL     1      26.240  41.024  50.135  1.00  0.00    -0.343 OA
BRANCH  21  22
HETATM   22  C   UNL     1      27.333  41.135  49.231  1.00  0.00     0.216 C 
BRANCH  22  23
HETATM   23  C   UNL     1      28.231  39.944  49.421  1.00  0.00    -0.017 A 
HETATM   24  C   UNL     1      28.707  39.601  50.684  1.00  0.00     0.125 A 
HETATM   25  N   UNL     1      29.522  38.548  50.930  1.00  0.00    -0.272 NA
HETATM   26  C   UNL     1      29.880  37.797  49.867  1.00  0.00     0.116 A 
HETATM   27  C   UNL     1      29.465  38.051  48.571  1.00  0.00     0.020 A 
HETATM   28  C   UNL     1      28.630  39.142  48.347  1.00  0.00     0.012 A 
ENDBRANCH  22  23
ENDBRANCH  21  22
ENDBRANCH   6  21
TORSDOF 5
ENDMDL
