MODEL 1
REMARK VINA RESULT:     -10.0      0.000      0.000
REMARK  6 active torsions:
REMARK  status: ('A' for Active; 'I' for Inactive)
REMARK    1  A    between atoms: C_2  and  C_3 
REMARK    2  A    between atoms: C_6  and  N_7 
REMARK    3  A    between atoms: N_7  and  C_8 
REMARK    4  A    between atoms: C_8  and  C_9 
REMARK    5  A    between atoms: N_15  and  C_16 
REMARK    6  A    between atoms: C_23  and  C_24 
ROOT
HETATM    1  C   UNL     1      25.208  45.730  50.497  1.00  0.00     0.028 A 
HETATM    2  C   UNL     1      25.547  46.446  51.758  1.00  0.00     0.255 A 
HETATM    3  O   UNL     1      25.047  47.477  52.162  1.00  0.00    -0.268 OA
HETATM    4  N   UNL     1      26.536  45.831  52.589  1.00  0.00    -0.307 N 
HETATM    5  C   UNL     1      27.080  44.601  52.261  1.00  0.00     0.144 A 
HETATM    6  C   UNL     1      26.657  43.915  51.151  1.00  0.00     0.038 A 
HETATM    7  N   UNL     1      28.005  43.793  52.899  1.00  0.00    -0.216 N 
HETATM    8  N   UNL     1      28.037  42.562  52.320  1.00  0.00    -0.169 NA
HETATM    9  C   UNL     1      27.268  42.641  51.223  1.00  0.00     0.077 C 
HETATM   10  C   UNL     1      25.736  44.514  50.255  1.00  0.00     0.032 A 
HETATM   11  H   UNL     1      26.738  46.293  53.467  1.00  0.00     0.170 HD
ENDROOT
BRANCH   1  12
HETATM   12  C   UNL     1      24.223  46.399  49.594  1.00  0.00     0.164 C 
BRANCH  12  13
HETATM   13  N   UNL     1      24.641  47.775  49.390  1.00  0.00    -0.385 N 
HETATM   14  H   UNL     1      25.419  47.903  48.746  1.00  0.00     0.160 HD
BRANCH  13  15
HETATM   15  C   UNL     1      23.681  48.774  49.180  1.00  0.00     0.028 A 
HETATM   16  C   UNL     1      22.330  48.400  49.195  1.00  0.00     0.029 A 
HETATM   17  C   UNL     1      21.312  49.328  48.950  1.00  0.00     0.009 A 
HETATM   18  C   UNL     1      21.621  50.660  48.668  1.00  0.00    -0.058 A 
HETATM   19  C   UNL     1      22.966  51.038  48.623  1.00  0.00     0.009 A 
HETATM   20  C   UNL     1      23.981  50.100  48.854  1.00  0.00     0.029 A 
BRANCH  18  21
HETATM   21  C   UNL     1      20.528  51.669  48.425  1.00  0.00     0.034 C 
HETATM   22  C   UNL     1      19.489  51.660  49.537  1.00  0.00     0.010 C 
ENDBRANCH  18  21
ENDBRANCH  13  15
ENDBRANCH  12  13
ENDBRANCH   1  12
BRANCH   9  23
HETATM   23  C   UNL     1      27.128  41.431  50.299  1.00  0.00    -0.004 C 
HETATM   24  C   UNL     1      27.247  41.829  48.807  1.00  0.00     0.021 C 
HETATM   25  C   UNL     1      28.241  40.403  50.587  1.00  0.00     0.021 C 
HETATM   26  C   UNL     1      25.751  40.766  50.487  1.00  0.00     0.021 C 
ENDBRANCH   9  23
BRANCH   7  27
HETATM   27  C   UNL     1      28.851  44.088  54.001  1.00  0.00     0.060 A 
HETATM   28  C   UNL     1      29.892  43.199  54.316  1.00  0.00     0.031 A 
HETATM   29  C   UNL     1      30.739  43.459  55.395  1.00  0.00     0.002 A 
HETATM   30  C   UNL     1      30.566  44.612  56.155  1.00  0.00     0.000 A 
HETATM   31  C   UNL     1      29.554  45.514  55.831  1.00  0.00     0.002 A 
HETATM   32  C   UNL     1      28.698  45.259  54.754  1.00  0.00     0.031 A 
ENDBRANCH   7  27
TORSDOF 6
ENDMDL
MODEL 2
REMARK VINA RESULT:      -9.6      1.865      8.802
REMARK  6 active torsions:
REMARK  status: ('A' for Active; 'I' for Inactive)
REMARK    1  A    between atoms: C_2  and  C_3 
REMARK    2  A    between atoms: C_6  and  N_7 
REMARK    3  A    between atoms: N_7  and  C_8 
REMARK    4  A    between atoms: C_8  and  C_9 
REMARK    5  A    between atoms: N_15  and  C_16 
REMARK    6  A    between atoms: C_23  and  C_24 
ROOT
HETATM    1  C   UNL     1      25.596  45.127  52.183  1.00  0.00     0.028 A 
HETATM    2  C   UNL     1      25.785  46.604  52.173  1.00  0.00     0.255 A 
HETATM    3  O   UNL     1      26.533  47.244  52.885  1.00  0.00    -0.268 OA
HETATM    4  N   UNL     1      25.033  47.332  51.198  1.00  0.00    -0.307 N 
HETATM    5  C   UNL     1      24.238  46.675  50.273  1.00  0.00     0.144 A 
HETATM    6  C   UNL     1      24.181  45.306  50.238  1.00  0.00     0.038 A 
HETATM    7  N   UNL     1      23.456  47.133  49.227  1.00  0.00    -0.216 N 
HETATM    8  N   UNL     1      23.061  46.094  48.442  1.00  0.00    -0.169 NA
HETATM    9  C   UNL     1      23.444  44.975  49.076  1.00  0.00     0.077 C 
HETATM   10  C   UNL     1      24.846  44.541  51.230  1.00  0.00     0.032 A 
HETATM   11  H   UNL     1      25.190  48.331  51.159  1.00  0.00     0.170 HD
ENDROOT
BRANCH   1  12
HETATM   12  C   UNL     1      26.329  44.369  53.242  1.00  0.00     0.164 C 
BRANCH  12  13
HETATM   13  N   UNL     1      27.738  44.326  52.889  1.00  0.00    -0.385 N 
HETATM   14  H   UNL     1      28.026  44.978  52.162  1.00  0.00     0.160 HD
BRANCH  13  15
HETATM   15  C   UNL     1      28.710  44.281  53.898  1.00  0.00     0.028 A 
HETATM   16  C   UNL     1      29.584  43.186  53.921  1.00  0.00     0.029 A 
HETATM   17  C   UNL     1      30.552  43.043  54.921  1.00  0.00     0.009 A 
HETATM   18  C   UNL     1      30.664  43.993  55.939  1.00  0.00    -0.058 A 
HETATM   19  C   UNL     1      29.779  45.074  55.942  1.00  0.00     0.009 A 
HETATM   20  C   UNL     1      28.801  45.203  54.947  1.00  0.00     0.029 A 
BRANCH  18  21
HETATM   21  C   UNL     1      31.720  43.856  57.005  1.00  0.00     0.034 C 
HETATM   22  C   UNL     1      31.374  44.655  58.253  1.00  0.00     0.010 C 
ENDBRANCH  18  21
ENDBRANCH  13  15
ENDBRANCH  12  13
ENDBRANCH   1  12
BRANCH   9  23
HETATM   23  C   UNL     1      23.103  43.608  48.485  1.00  0.00    -0.004 C 
HETATM   24  C   UNL     1      24.312  42.980  47.748  1.00  0.00     0.021 C 
HETATM   25  C   UNL     1      22.691  42.626  49.601  1.00  0.00     0.021 C 
HETATM   26  C   UNL     1      21.959  43.734  47.461  1.00  0.00     0.021 C 
ENDBRANCH   9  23
BRANCH   7  27
HETATM   27  C   UNL     1      23.058  48.460  48.913  1.00  0.00     0.060 A 
HETATM   28  C   UNL     1      24.001  49.340  48.358  1.00  0.00     0.031 A 
HETATM   29  C   UNL     1      23.642  50.652  48.042  1.00  0.00     0.002 A 
HETATM   30  C   UNL     1      22.339  51.089  48.260  1.00  0.00     0.000 A 
HETATM   31  C   UNL     1      21.388  50.213  48.783  1.00  0.00     0.002 A 
HETATM   32  C   UNL     1      21.741  48.899  49.106  1.00  0.00     0.031 A 
ENDBRANCH   7  27
TORSDOF 6
ENDMDL
MODEL 3
REMARK VINA RESULT:      -9.6      1.989      8.644
REMARK  6 active torsions:
REMARK  status: ('A' for Active; 'I' for Inactive)
REMARK    1  A    between atoms: C_2  and  C_3 
REMARK    2  A    between atoms: C_6  and  N_7 
REMARK    3  A    between atoms: N_7  and  C_8 
REMARK    4  A    between atoms: C_8  and  C_9 
REMARK    5  A    between atoms: N_15  and  C_16 
REMARK    6  A    between atoms: C_23  and  C_24 
ROOT
HETATM    1  C   UNL     1      26.262  43.273  50.595  1.00  0.00     0.028 A 
HETATM    2  C   UNL     1      25.472  43.645  49.389  1.00  0.00     0.255 A 
HETATM    3  O   UNL     1      25.139  42.905  48.485  1.00  0.00    -0.268 OA
HETATM    4  N   UNL     1      25.033  45.004  49.314  1.00  0.00    -0.307 N 
HETATM    5  C   UNL     1      25.273  45.890  50.351  1.00  0.00     0.144 A 
HETATM    6  C   UNL     1      25.901  45.480  51.499  1.00  0.00     0.038 A 
HETATM    7  N   UNL     1      24.931  47.218  50.538  1.00  0.00    -0.216 N 
HETATM    8  N   UNL     1      25.169  47.592  51.824  1.00  0.00    -0.169 NA
HETATM    9  C   UNL     1      25.812  46.565  52.403  1.00  0.00     0.077 C 
HETATM   10  C   UNL     1      26.423  44.165  51.591  1.00  0.00     0.032 A 
HETATM   11  H   UNL     1      24.460  45.251  48.517  1.00  0.00     0.170 HD
ENDROOT
BRANCH   1  12
HETATM   12  C   UNL     1      26.777  41.871  50.648  1.00  0.00     0.164 C 
BRANCH  12  13
HETATM   13  N   UNL     1      26.916  41.481  52.041  1.00  0.00    -0.385 N 
HETATM   14  H   UNL     1      26.818  40.485  52.226  1.00  0.00     0.160 HD
BRANCH  13  15
HETATM   15  C   UNL     1      27.960  42.007  52.814  1.00  0.00     0.028 A 
HETATM   16  C   UNL     1      27.643  42.540  54.070  1.00  0.00     0.029 A 
HETATM   17  C   UNL     1      28.619  43.126  54.884  1.00  0.00     0.009 A 
HETATM   18  C   UNL     1      29.945  43.205  54.453  1.00  0.00    -0.058 A 
HETATM   19  C   UNL     1      30.267  42.702  53.190  1.00  0.00     0.009 A 
HETATM   20  C   UNL     1      29.282  42.131  52.374  1.00  0.00     0.029 A 
BRANCH  18  21
HETATM   21  C   UNL     1      31.005  43.814  55.335  1.00  0.00     0.034 C 
HETATM   22  C   UNL     1      31.111  43.099  56.674  1.00  0.00     0.010 C 
ENDBRANCH  18  21
ENDBRANCH  13  15
ENDBRANCH  12  13
ENDBRANCH   1  12
BRANCH   9  23
HETATM   23  C   UNL     1      26.281  46.677  53.853  1.00  0.00    -0.004 C 
HETATM   24  C   UNL     1      25.907  48.044  54.476  1.00  0.00     0.021 C 
HETATM   25  C   UNL     1      25.619  45.585  54.719  1.00  0.00     0.021 C 
HETATM   26  C   UNL     1      27.814  46.540  53.935  1.00  0.00     0.021 C 
ENDBRANCH   9  23
BRANCH   7  27
HETATM   27  C   UNL     1      24.403  48.152  49.607  1.00  0.00     0.060 A 
HETATM   28  C   UNL     1      25.277  49.055  48.978  1.00  0.00     0.031 A 
HETATM   29  C   UNL     1      24.788  49.988  48.062  1.00  0.00     0.002 A 
HETATM   30  C   UNL     1      23.431  50.017  47.753  1.00  0.00     0.000 A 
HETATM   31  C   UNL     1      22.561  49.105  48.350  1.00  0.00     0.002 A 
HETATM   32  C   UNL     1      23.042  48.170  49.273  1.00  0.00     0.031 A 
ENDBRANCH   7  27
TORSDOF 6
ENDMDL
MODEL 4
REMARK VINA RESULT:      -9.3      2.290      9.305
REMARK  6 active torsions:
REMARK  status: ('A' for Active; 'I' for Inactive)
REMARK    1  A    between atoms: C_2  and  C_3 
REMARK    2  A    between atoms: C_6  and  N_7 
REMARK    3  A    between atoms: N_7  and  C_8 
REMARK    4  A    between atoms: C_8  and  C_9 
REMARK    5  A    between atoms: N_15  and  C_16 
REMARK    6  A    between atoms: C_23  and  C_24 
ROOT
HETATM    1  C   UNL     1      24.661  45.854  49.664  1.00  0.00     0.028 A 
HETATM    2  C   UNL     1      24.591  47.214  50.265  1.00  0.00     0.255 A 
HETATM    3  O   UNL     1      25.404  47.719  51.013  1.00  0.00    -0.268 OA
HETATM    4  N   UNL     1      23.466  48.015  49.889  1.00  0.00    -0.307 N 
HETATM    5  C   UNL     1      22.546  47.562  48.957  1.00  0.00     0.144 A 
HETATM    6  C   UNL     1      22.709  46.350  48.336  1.00  0.00     0.038 A 
HETATM    7  N   UNL     1      21.417  48.142  48.408  1.00  0.00    -0.216 N 
HETATM    8  N   UNL     1      20.978  47.411  47.347  1.00  0.00    -0.169 NA
HETATM    9  C   UNL     1      21.717  46.291  47.329  1.00  0.00     0.077 C 
HETATM   10  C   UNL     1      23.763  45.487  48.729  1.00  0.00     0.032 A 
HETATM   11  H   UNL     1      23.435  48.955  50.262  1.00  0.00     0.170 HD
ENDROOT
BRANCH   1  12
HETATM   12  C   UNL     1      25.799  44.990  50.102  1.00  0.00     0.164 C 
BRANCH  12  13
HETATM   13  N   UNL     1      25.791  44.912  51.553  1.00  0.00    -0.385 N 
HETATM   14  H   UNL     1      24.941  44.531  51.964  1.00  0.00     0.160 HD
BRANCH  13  15
HETATM   15  C   UNL     1      26.912  44.418  52.233  1.00  0.00     0.028 A 
HETATM   16  C   UNL     1      27.224  44.978  53.479  1.00  0.00     0.029 A 
HETATM   17  C   UNL     1      28.351  44.573  54.202  1.00  0.00     0.009 A 
HETATM   18  C   UNL     1      29.209  43.598  53.687  1.00  0.00    -0.058 A 
HETATM   19  C   UNL     1      28.923  43.053  52.432  1.00  0.00     0.009 A 
HETATM   20  C   UNL     1      27.801  43.475  51.707  1.00  0.00     0.029 A 
BRANCH  18  21
HETATM   21  C   UNL     1      30.412  43.141  54.470  1.00  0.00     0.034 C 
HETATM   22  C   UNL     1      30.642  43.994  55.709  1.00  0.00     0.010 C 
ENDBRANCH  18  21
ENDBRANCH  13  15
ENDBRANCH  12  13
ENDBRANCH   1  12
BRANCH   9  23
HETATM   23  C   UNL     1      21.444  45.212  46.282  1.00  0.00    -0.004 C 
HETATM   24  C   UNL     1      21.079  43.856  46.934  1.00  0.00     0.021 C 
HETATM   25  C   UNL     1      20.257  45.620  45.386  1.00  0.00     0.021 C 
HETATM   26  C   UNL     1      22.692  44.979  45.409  1.00  0.00     0.021 C 
ENDBRANCH   9  23
BRANCH   7  27
HETATM   27  C   UNL     1      20.727  49.320  48.800  1.00  0.00     0.060 A 
HETATM   28  C   UNL     1      20.988  50.520  48.118  1.00  0.00     0.031 A 
HETATM   29  C   UNL     1      20.330  51.696  48.482  1.00  0.00     0.002 A 
HETATM   30  C   UNL     1      19.395  51.681  49.513  1.00  0.00     0.000 A 
HETATM   31  C   UNL     1      19.107  50.488  50.175  1.00  0.00     0.002 A 
HETATM   32  C   UNL     1      19.766  49.306  49.820  1.00  0.00     0.031 A 
ENDBRANCH   7  27
TORSDOF 6
ENDMDL
MODEL 5
REMARK VINA RESULT:      -9.1      2.782      9.624
REMARK  6 active torsions:
REMARK  status: ('A' for Active; 'I' for Inactive)
REMARK    1  A    between atoms: C_2  and  C_3 
REMARK    2  A    between atoms: C_6  and  N_7 
REMARK    3  A    between atoms: N_7  and  C_8 
REMARK    4  A    between atoms: C_8  and  C_9 
REMARK    5  A    between atoms: N_15  and  C_16 
REMARK    6  A    between atoms: C_23  and  C_24 
ROOT
HETATM    1  C   UNL     1      24.896  46.975  50.596  1.00  0.00     0.028 A 
HETATM    2  C   UNL     1      24.360  45.595  50.439  1.00  0.00     0.255 A 
HETATM    3  O   UNL     1      24.743  44.599  51.019  1.00  0.00    -0.268 OA
HETATM    4  N   UNL     1      23.257  45.443  49.540  1.00  0.00    -0.307 N 
HETATM    5  C   UNL     1      22.685  46.541  48.919  1.00  0.00     0.144 A 
HETATM    6  C   UNL     1      23.131  47.811  49.179  1.00  0.00     0.038 A 
HETATM    7  N   UNL     1      21.613  46.665  48.053  1.00  0.00    -0.216 N 
HETATM    8  N   UNL     1      21.271  47.975  47.909  1.00  0.00    -0.169 NA
HETATM    9  C   UNL     1      22.220  48.684  48.540  1.00  0.00     0.077 C 
HETATM   10  C   UNL     1      24.270  48.009  50.002  1.00  0.00     0.032 A 
HETATM   11  H   UNL     1      22.863  44.515  49.462  1.00  0.00     0.170 HD
ENDROOT
BRANCH   1  12
HETATM   12  C   UNL     1      26.088  47.130  51.484  1.00  0.00     0.164 C 
BRANCH  12  13
HETATM   13  N   UNL     1      25.769  46.579  52.789  1.00  0.00    -0.385 N 
HETATM   14  H   UNL     1      25.005  45.907  52.803  1.00  0.00     0.160 HD
BRANCH  13  15
HETATM   15  C   UNL     1      26.798  46.147  53.637  1.00  0.00     0.028 A 
HETATM   16  C   UNL     1      27.416  47.100  54.458  1.00  0.00     0.029 A 
HETATM   17  C   UNL     1      28.481  46.760  55.300  1.00  0.00     0.009 A 
HETATM   18  C   UNL     1      28.967  45.451  55.332  1.00  0.00    -0.058 A 
HETATM   19  C   UNL     1      28.378  44.499  54.496  1.00  0.00     0.009 A 
HETATM   20  C   UNL     1      27.322  44.851  53.644  1.00  0.00     0.029 A 
BRANCH  18  21
HETATM   21  C   UNL     1      30.099  45.073  56.252  1.00  0.00     0.034 C 
HETATM   22  C   UNL     1      30.806  43.806  55.795  1.00  0.00     0.010 C 
ENDBRANCH  18  21
ENDBRANCH  13  15
ENDBRANCH  12  13
ENDBRANCH   1  12
BRANCH   9  23
HETATM   23  C   UNL     1      22.169  50.212  48.524  1.00  0.00    -0.004 C 
HETATM   24  C   UNL     1      22.019  50.798  49.949  1.00  0.00     0.021 C 
HETATM   25  C   UNL     1      23.470  50.788  47.929  1.00  0.00     0.021 C 
HETATM   26  C   UNL     1      20.964  50.701  47.698  1.00  0.00     0.021 C 
ENDBRANCH   9  23
BRANCH   7  27
HETATM   27  C   UNL     1      20.892  45.657  47.359  1.00  0.00     0.060 A 
HETATM   28  C   UNL     1      19.518  45.508  47.611  1.00  0.00     0.031 A 
HETATM   29  C   UNL     1      18.783  44.523  46.948  1.00  0.00     0.002 A 
HETATM   30  C   UNL     1      19.406  43.695  46.020  1.00  0.00     0.000 A 
HETATM   31  C   UNL     1      20.763  43.856  45.742  1.00  0.00     0.002 A 
HETATM   32  C   UNL     1      21.508  44.836  46.405  1.00  0.00     0.031 A 
ENDBRANCH   7  27
TORSDOF 6
ENDMDL
MODEL 6
REMARK VINA RESULT:      -9.1      3.944      7.667
REMARK  6 active torsions:
REMARK  status: ('A' for Active; 'I' for Inactive)
REMARK    1  A    between atoms: C_2  and  C_3 
REMARK    2  A    between atoms: C_6  and  N_7 
REMARK    3  A    between atoms: N_7  and  C_8 
REMARK    4  A    between atoms: C_8  and  C_9 
REMARK    5  A    between atoms: N_15  and  C_16 
REMARK    6  A    between atoms: C_23  and  C_24 
ROOT
HETATM    1  C   UNL     1      27.335  41.000  51.068  1.00  0.00     0.028 A 
HETATM    2  C   UNL     1      28.528  40.666  51.894  1.00  0.00     0.255 A 
HETATM    3  O   UNL     1      29.195  39.653  51.826  1.00  0.00    -0.268 OA
HETATM    4  N   UNL     1      28.947  41.661  52.833  1.00  0.00    -0.307 N 
HETATM    5  C   UNL     1      28.313  42.890  52.902  1.00  0.00     0.144 A 
HETATM    6  C   UNL     1      27.291  43.206  52.043  1.00  0.00     0.038 A 
HETATM    7  N   UNL     1      28.540  44.012  53.679  1.00  0.00    -0.216 N 
HETATM    8  N   UNL     1      27.816  45.066  53.214  1.00  0.00    -0.169 NA
HETATM    9  C   UNL     1      27.010  44.576  52.258  1.00  0.00     0.077 C 
HETATM   10  C   UNL     1      26.788  42.229  51.147  1.00  0.00     0.032 A 
HETATM   11  H   UNL     1      29.782  41.455  53.366  1.00  0.00     0.170 HD
ENDROOT
BRANCH   1  12
HETATM   12  C   UNL     1      26.854  39.940  50.131  1.00  0.00     0.164 C 
BRANCH  12  13
HETATM   13  N   UNL     1      27.983  39.466  49.349  1.00  0.00    -0.385 N 
HETATM   14  H   UNL     1      28.303  38.526  49.572  1.00  0.00     0.160 HD
BRANCH  13  15
HETATM   15  C   UNL     1      28.002  39.659  47.961  1.00  0.00     0.028 A 
HETATM   16  C   UNL     1      28.058  38.524  47.141  1.00  0.00     0.029 A 
HETATM   17  C   UNL     1      28.126  38.631  45.747  1.00  0.00     0.009 A 
HETATM   18  C   UNL     1      28.153  39.886  45.135  1.00  0.00    -0.058 A 
HETATM   19  C   UNL     1      28.126  41.025  45.944  1.00  0.00     0.009 A 
HETATM   20  C   UNL     1      28.074  40.910  47.340  1.00  0.00     0.029 A 
BRANCH  18  21
HETATM   21  C   UNL     1      28.203  40.008  43.633  1.00  0.00     0.034 C 
HETATM   22  C   UNL     1      29.496  40.655  43.158  1.00  0.00     0.010 C 
ENDBRANCH  18  21
ENDBRANCH  13  15
ENDBRANCH  12  13
ENDBRANCH   1  12
BRANCH   9  23
HETATM   23  C   UNL     1      26.012  45.496  51.556  1.00  0.00    -0.004 C 
HETATM   24  C   UNL     1      25.998  46.914  52.179  1.00  0.00     0.021 C 
HETATM   25  C   UNL     1      26.382  45.656  50.067  1.00  0.00     0.021 C 
HETATM   26  C   UNL     1      24.583  44.931  51.674  1.00  0.00     0.021 C 
ENDBRANCH   9  23
BRANCH   7  27
HETATM   27  C   UNL     1      29.380  44.166  54.815  1.00  0.00     0.060 A 
HETATM   28  C   UNL     1      29.224  45.302  55.626  1.00  0.00     0.031 A 
HETATM   29  C   UNL     1      30.036  45.486  56.747  1.00  0.00     0.002 A 
HETATM   30  C   UNL     1      30.994  44.531  57.077  1.00  0.00     0.000 A 
HETATM   31  C   UNL     1      31.135  43.386  56.295  1.00  0.00     0.002 A 
HETATM   32  C   UNL     1      30.329  43.197  55.167  1.00  0.00     0.031 A 
ENDBRANCH   7  27
TORSDOF 6
ENDMDL
MODEL 7
REMARK VINA RESULT:      -8.9      2.890     10.012
REMARK  6 active torsions:
REMARK  status: ('A' for Active; 'I' for Inactive)
REMARK    1  A    between atoms: C_2  and  C_3 
REMARK    2  A    between atoms: C_6  and  N_7 
REMARK    3  A    between atoms: N_7  and  C_8 
REMARK    4  A    between atoms: C_8  and  C_9 
REMARK    5  A    between atoms: N_15  and  C_16 
REMARK    6  A    between atoms: C_23  and  C_24 
ROOT
HETATM    1  C   UNL     1      24.284  47.022  49.914  1.00  0.00     0.028 A 
HETATM    2  C   UNL     1      23.640  45.715  49.609  1.00  0.00     0.255 A 
HETATM    3  O   UNL     1      24.043  44.615  49.932  1.00  0.00    -0.268 OA
HETATM    4  N   UNL     1      22.400  45.771  48.896  1.00  0.00    -0.307 N 
HETATM    5  C   UNL     1      21.811  46.985  48.583  1.00  0.00     0.144 A 
HETATM    6  C   UNL     1      22.376  48.169  48.984  1.00  0.00     0.038 A 
HETATM    7  N   UNL     1      20.626  47.306  47.946  1.00  0.00    -0.216 N 
HETATM    8  N   UNL     1      20.353  48.631  48.094  1.00  0.00    -0.169 NA
HETATM    9  C   UNL     1      21.435  49.177  48.671  1.00  0.00     0.077 C 
HETATM   10  C   UNL     1      23.641  48.170  49.625  1.00  0.00     0.032 A 
HETATM   11  H   UNL     1      21.938  44.888  48.724  1.00  0.00     0.170 HD
ENDROOT
BRANCH   1  12
HETATM   12  C   UNL     1      25.610  46.967  50.602  1.00  0.00     0.164 C 
BRANCH  12  13
HETATM   13  N   UNL     1      25.410  46.477  51.955  1.00  0.00    -0.385 N 
HETATM   14  H   UNL     1      24.516  46.021  52.126  1.00  0.00     0.160 HD
BRANCH  13  15
HETATM   15  C   UNL     1      26.435  45.771  52.601  1.00  0.00     0.028 A 
HETATM   16  C   UNL     1      27.012  44.687  51.926  1.00  0.00     0.029 A 
HETATM   17  C   UNL     1      28.009  43.903  52.519  1.00  0.00     0.009 A 
HETATM   18  C   UNL     1      28.447  44.178  53.816  1.00  0.00    -0.058 A 
HETATM   19  C   UNL     1      27.858  45.239  54.509  1.00  0.00     0.009 A 
HETATM   20  C   UNL     1      26.849  46.010  53.915  1.00  0.00     0.029 A 
BRANCH  18  21
HETATM   21  C   UNL     1      29.535  43.352  54.452  1.00  0.00     0.034 C 
HETATM   22  C   UNL     1      30.383  42.632  53.413  1.00  0.00     0.010 C 
ENDBRANCH  18  21
ENDBRANCH  13  15
ENDBRANCH  12  13
ENDBRANCH   1  12
BRANCH   9  23
HETATM   23  C   UNL     1      21.484  50.682  48.933  1.00  0.00    -0.004 C 
HETATM   24  C   UNL     1      20.300  51.422  48.263  1.00  0.00     0.021 C 
HETATM   25  C   UNL     1      21.403  50.968  50.446  1.00  0.00     0.021 C 
HETATM   26  C   UNL     1      22.782  51.286  48.364  1.00  0.00     0.021 C 
ENDBRANCH   9  23
BRANCH   7  27
HETATM   27  C   UNL     1      19.739  46.470  47.217  1.00  0.00     0.060 A 
HETATM   28  C   UNL     1      20.171  45.918  46.000  1.00  0.00     0.031 A 
HETATM   29  C   UNL     1      19.322  45.095  45.257  1.00  0.00     0.002 A 
HETATM   30  C   UNL     1      18.046  44.803  45.730  1.00  0.00     0.000 A 
HETATM   31  C   UNL     1      17.619  45.323  46.952  1.00  0.00     0.002 A 
HETATM   32  C   UNL     1      18.463  46.152  47.699  1.00  0.00     0.031 A 
ENDBRANCH   7  27
TORSDOF 6
ENDMDL
MODEL 8
REMARK VINA RESULT:      -8.8     17.838     21.054
REMARK  6 active torsions:
REMARK  status: ('A' for Active; 'I' for Inactive)
REMARK    1  A    between atoms: C_2  and  C_3 
REMARK    2  A    between atoms: C_6  and  N_7 
REMARK    3  A    between atoms: N_7  and  C_8 
REMARK    4  A    between atoms: C_8  and  C_9 
REMARK    5  A    between atoms: N_15  and  C_16 
REMARK    6  A    between atoms: C_23  and  C_24 
ROOT
HETATM    1  C   UNL     1      39.151  44.506  63.274  1.00  0.00     0.028 A 
HETATM    2  C   UNL     1      37.901  45.186  63.709  1.00  0.00     0.255 A 
HETATM    3  O   UNL     1      36.763  44.835  63.466  1.00  0.00    -0.268 OA
HETATM    4  N   UNL     1      38.063  46.349  64.527  1.00  0.00    -0.307 N 
HETATM    5  C   UNL     1      39.319  46.758  64.943  1.00  0.00     0.144 A 
HETATM    6  C   UNL     1      40.440  46.038  64.619  1.00  0.00     0.038 A 
HETATM    7  N   UNL     1      39.737  47.803  65.748  1.00  0.00    -0.216 N 
HETATM    8  N   UNL     1      41.049  47.653  66.076  1.00  0.00    -0.169 NA
HETATM    9  C   UNL     1      41.503  46.618  65.351  1.00  0.00     0.077 C 
HETATM   10  C   UNL     1      40.341  44.923  63.748  1.00  0.00     0.032 A 
HETATM   11  H   UNL     1      37.216  46.789  64.859  1.00  0.00     0.170 HD
ENDROOT
BRANCH   1  12
HETATM   12  C   UNL     1      38.989  43.328  62.367  1.00  0.00     0.164 C 
BRANCH  12  13
HETATM   13  N   UNL     1      38.259  42.293  63.078  1.00  0.00    -0.385 N 
HETATM   14  H   UNL     1      37.397  41.985  62.634  1.00  0.00     0.160 HD
BRANCH  13  15
HETATM   15  C   UNL     1      38.945  41.189  63.602  1.00  0.00     0.028 A 
HETATM   16  C   UNL     1      39.360  40.190  62.711  1.00  0.00     0.029 A 
HETATM   17  C   UNL     1      40.011  39.034  63.159  1.00  0.00     0.009 A 
HETATM   18  C   UNL     1      40.252  38.841  64.521  1.00  0.00    -0.058 A 
HETATM   19  C   UNL     1      39.817  39.817  65.421  1.00  0.00     0.009 A 
HETATM   20  C   UNL     1      39.153  40.965  64.967  1.00  0.00     0.029 A 
BRANCH  18  21
HETATM   21  C   UNL     1      40.972  37.610  65.008  1.00  0.00     0.034 C 
HETATM   22  C   UNL     1      40.186  36.880  66.086  1.00  0.00     0.010 C 
ENDBRANCH  18  21
ENDBRANCH  13  15
ENDBRANCH  12  13
ENDBRANCH   1  12
BRANCH   9  23
HETATM   23  C   UNL     1      42.973  46.210  65.439  1.00  0.00    -0.004 C 
HETATM   24  C   UNL     1      43.608  46.036  64.038  1.00  0.00     0.021 C 
HETATM   25  C   UNL     1      43.788  47.291  66.178  1.00  0.00     0.021 C 
HETATM   26  C   UNL     1      43.115  44.864  66.177  1.00  0.00     0.021 C 
ENDBRANCH   9  23
BRANCH   7  27
HETATM   27  C   UNL     1      39.003  48.921  66.228  1.00  0.00     0.060 A 
HETATM   28  C   UNL     1      39.264  50.190  65.685  1.00  0.00     0.031 A 
HETATM   29  C   UNL     1      38.562  51.309  66.138  1.00  0.00     0.002 A 
HETATM   30  C   UNL     1      37.586  51.168  67.120  1.00  0.00     0.000 A 
HETATM   31  C   UNL     1      37.300  49.908  67.643  1.00  0.00     0.002 A 
HETATM   32  C   UNL     1      38.002  48.783  67.198  1.00  0.00     0.031 A 
ENDBRANCH   7  27
TORSDOF 6
ENDMDL
MODEL 9
REMARK VINA RESULT:      -8.8      2.732      8.853
REMARK  6 active torsions:
REMARK  status: ('A' for Active; 'I' for Inactive)
REMARK    1  A    between atoms: C_2  and  C_3 
REMARK    2  A    between atoms: C_6  and  N_7 
REMARK    3  A    between atoms: N_7  and  C_8 
REMARK    4  A    between atoms: C_8  and  C_9 
REMARK    5  A    between atoms: N_15  and  C_16 
REMARK    6  A    between atoms: C_23  and  C_24 
ROOT
HETATM    1  C   UNL     1      24.880  42.851  49.940  1.00  0.00     0.028 A 
HETATM    2  C   UNL     1      24.421  43.673  48.786  1.00  0.00     0.255 A 
HETATM    3  O   UNL     1      23.849  43.272  47.792  1.00  0.00    -0.268 OA
HETATM    4  N   UNL     1      24.647  45.083  48.884  1.00  0.00    -0.307 N 
HETATM    5  C   UNL     1      25.194  45.640  50.028  1.00  0.00     0.144 A 
HETATM    6  C   UNL     1      25.495  44.864  51.118  1.00  0.00     0.038 A 
HETATM    7  N   UNL     1      25.475  46.948  50.382  1.00  0.00    -0.216 N 
HETATM    8  N   UNL     1      25.773  47.026  51.708  1.00  0.00    -0.169 NA
HETATM    9  C   UNL     1      25.846  45.762  52.153  1.00  0.00     0.077 C 
HETATM   10  C   UNL     1      25.362  43.454  51.043  1.00  0.00     0.032 A 
HETATM   11  H   UNL     1      24.300  45.650  48.122  1.00  0.00     0.170 HD
ENDROOT
BRANCH   1  12
HETATM   12  C   UNL     1      24.704  41.372  49.815  1.00  0.00     0.164 C 
BRANCH  12  13
HETATM   13  N   UNL     1      25.650  40.874  48.832  1.00  0.00    -0.385 N 
HETATM   14  H   UNL     1      25.888  41.525  48.087  1.00  0.00     0.160 HD
BRANCH  13  15
HETATM   15  C   UNL     1      26.799  40.189  49.251  1.00  0.00     0.028 A 
HETATM   16  C   UNL     1      27.182  39.048  48.534  1.00  0.00     0.029 A 
HETATM   17  C   UNL     1      28.290  38.283  48.914  1.00  0.00     0.009 A 
HETATM   18  C   UNL     1      29.042  38.635  50.037  1.00  0.00    -0.058 A 
HETATM   19  C   UNL     1      28.653  39.756  50.776  1.00  0.00     0.009 A 
HETATM   20  C   UNL     1      27.532  40.508  50.398  1.00  0.00     0.029 A 
BRANCH  18  21
HETATM   21  C   UNL     1      30.250  37.829  50.439  1.00  0.00     0.034 C 
HETATM   22  C   UNL     1      29.930  36.841  51.551  1.00  0.00     0.010 C 
ENDBRANCH  18  21
ENDBRANCH  13  15
ENDBRANCH  12  13
ENDBRANCH   1  12
BRANCH   9  23
HETATM   23  C   UNL     1      26.221  45.485  53.608  1.00  0.00    -0.004 C 
HETATM   24  C   UNL     1      27.540  44.682  53.721  1.00  0.00     0.021 C 
HETATM   25  C   UNL     1      26.428  46.809  54.372  1.00  0.00     0.021 C 
HETATM   26  C   UNL     1      25.120  44.658  54.300  1.00  0.00     0.021 C 
ENDBRANCH   9  23
BRANCH   7  27
HETATM   27  C   UNL     1      25.485  48.118  49.576  1.00  0.00     0.060 A 
HETATM   28  C   UNL     1      26.718  48.692  49.225  1.00  0.00     0.031 A 
HETATM   29  C   UNL     1      26.761  49.844  48.438  1.00  0.00     0.002 A 
HETATM   30  C   UNL     1      25.580  50.420  47.981  1.00  0.00     0.000 A 
HETATM   31  C   UNL     1      24.353  49.840  48.299  1.00  0.00     0.002 A 
HETATM   32  C   UNL     1      24.301  48.688  49.092  1.00  0.00     0.031 A 
ENDBRANCH   7  27
TORSDOF 6
ENDMDL
MODEL 10
REMARK VINA RESULT:      -8.6      3.101      9.016
REMARK  6 active torsions:
REMARK  status: ('A' for Active; 'I' for Inactive)
REMARK    1  A    between atoms: C_2  and  C_3 
REMARK    2  A    between atoms: C_6  and  N_7 
REMARK    3  A    between atoms: N_7  and  C_8 
REMARK    4  A    between atoms: C_8  and  C_9 
REMARK    5  A    between atoms: N_15  and  C_16 
REMARK    6  A    between atoms: C_23  and  C_24 
ROOT
HETATM    1  C   UNL     1      26.844  42.309  50.719  1.00  0.00     0.028 A 
HETATM    2  C   UNL     1      25.964  41.324  50.032  1.00  0.00     0.255 A 
HETATM    3  O   UNL     1      26.013  40.114  50.132  1.00  0.00    -0.268 OA
HETATM    4  N   UNL     1      24.934  41.867  49.200  1.00  0.00    -0.307 N 
HETATM    5  C   UNL     1      24.734  43.235  49.112  1.00  0.00     0.144 A 
HETATM    6  C   UNL     1      25.490  44.108  49.853  1.00  0.00     0.038 A 
HETATM    7  N   UNL     1      23.807  43.997  48.424  1.00  0.00    -0.216 N 
HETATM    8  N   UNL     1      23.849  45.290  48.847  1.00  0.00    -0.169 NA
HETATM    9  C   UNL     1      24.905  45.383  49.671  1.00  0.00     0.077 C 
HETATM   10  C   UNL     1      26.572  43.626  50.632  1.00  0.00     0.032 A 
HETATM   11  H   UNL     1      24.307  41.203  48.764  1.00  0.00     0.170 HD
ENDROOT
BRANCH   1  12
HETATM   12  C   UNL     1      27.960  41.747  51.538  1.00  0.00     0.164 C 
BRANCH  12  13
HETATM   13  N   UNL     1      27.607  41.858  52.942  1.00  0.00    -0.385 N 
HETATM   14  H   UNL     1      27.539  40.976  53.446  1.00  0.00     0.160 HD
BRANCH  13  15
HETATM   15  C   UNL     1      28.235  42.818  53.748  1.00  0.00     0.028 A 
HETATM   16  C   UNL     1      29.564  42.589  54.127  1.00  0.00     0.029 A 
HETATM   17  C   UNL     1      30.249  43.475  54.967  1.00  0.00     0.009 A 
HETATM   18  C   UNL     1      29.612  44.615  55.462  1.00  0.00    -0.058 A 
HETATM   19  C   UNL     1      28.278  44.839  55.113  1.00  0.00     0.009 A 
HETATM   20  C   UNL     1      27.594  43.939  54.285  1.00  0.00     0.029 A 
BRANCH  18  21
HETATM   21  C   UNL     1      30.350  45.585  56.348  1.00  0.00     0.034 C 
HETATM   22  C   UNL     1      29.498  46.047  57.521  1.00  0.00     0.010 C 
ENDBRANCH  18  21
ENDBRANCH  13  15
ENDBRANCH  12  13
ENDBRANCH   1  12
BRANCH   9  23
HETATM   23  C   UNL     1      25.275  46.731  50.288  1.00  0.00    -0.004 C 
HETATM   24  C   UNL     1      25.354  46.656  51.832  1.00  0.00     0.021 C 
HETATM   25  C   UNL     1      26.658  47.193  49.783  1.00  0.00     0.021 C 
HETATM   26  C   UNL     1      24.217  47.794  49.934  1.00  0.00     0.021 C 
ENDBRANCH   9  23
BRANCH   7  27
HETATM   27  C   UNL     1      22.893  43.606  47.409  1.00  0.00     0.060 A 
HETATM   28  C   UNL     1      21.582  44.109  47.443  1.00  0.00     0.031 A 
HETATM   29  C   UNL     1      20.659  43.740  46.463  1.00  0.00     0.002 A 
HETATM   30  C   UNL     1      21.040  42.884  45.434  1.00  0.00     0.000 A 
HETATM   31  C   UNL     1      22.348  42.404  45.375  1.00  0.00     0.002 A 
HETATM   32  C   UNL     1      23.277  42.765  46.357  1.00  0.00     0.031 A 
ENDBRANCH   7  27
TORSDOF 6
ENDMDL
