MODEL 1
REMARK VINA RESULT:     -10.1      0.000      0.000
REMARK  4 active torsions:
REMARK  status: ('A' for Active; 'I' for Inactive)
REMARK    1  A    between atoms: C_8  and  C_9 
REMARK    2  A    between atoms: N_10  and  N_11 
REMARK       I    between atoms: N_11  and  C_12 
REMARK    3  A    between atoms: C_12  and  C_13 
REMARK    4  A    between atoms: C_17  and  C_18 
ROOT
HETATM    1  N   UNL     1      26.405  45.128  51.861  1.00  0.00    -0.242 N 
HETATM    2  C   UNL     1      26.431  45.397  50.501  1.00  0.00     0.292 C 
HETATM    3  O   UNL     1      27.372  45.168  49.745  1.00  0.00    -0.264 OA
HETATM    4  H   UNL     1      25.556  45.366  52.368  1.00  0.00     0.192 HD
ENDROOT
BRANCH   2   5
HETATM    5  C   UNL     1      25.179  46.002  50.021  1.00  0.00     0.148 A 
HETATM    6  N   UNL     1      24.142  45.274  49.559  1.00  0.00    -0.169 NA
HETATM    7  N   UNL     1      23.222  46.202  49.227  1.00  0.00    -0.277 N 
HETATM    8  H   UNL     1      22.344  45.884  48.829  1.00  0.00     0.189 HD
HETATM    9  C   UNL     1      23.609  47.497  49.456  1.00  0.00     0.063 A 
HETATM   10  C   UNL     1      24.885  47.388  49.970  1.00  0.00     0.071 A 
BRANCH   9  11
HETATM   11  C   UNL     1      22.788  48.674  49.165  1.00  0.00    -0.005 A 
HETATM   12  C   UNL     1      21.389  48.592  49.109  1.00  0.00     0.053 A 
HETATM   13  C   UNL     1      20.676  49.746  48.848  1.00  0.00     0.106 A 
HETATM   14  C   UNL     1      21.296  50.955  48.644  1.00  0.00     0.105 A 
HETATM   15  O   UNL     1      19.322  49.840  48.769  1.00  0.00    -0.323 OA
HETATM   16  O   UNL     1      20.413  51.960  48.409  1.00  0.00    -0.323 OA
HETATM   17  C   UNL     1      22.666  51.079  48.688  1.00  0.00     0.040 A 
HETATM   18  C   UNL     1      19.162  51.250  48.505  1.00  0.00     0.352 A 
HETATM   19  C   UNL     1      23.413  49.926  48.954  1.00  0.00     0.017 A 
ENDBRANCH   9  11
ENDBRANCH   2   5
BRANCH   1  20
HETATM   20  N   UNL     1      27.479  44.555  52.473  1.00  0.00    -0.183 NA
HETATM   21  C   UNL     1      27.758  44.984  53.661  1.00  0.00     0.152 C 
BRANCH  21  22
HETATM   22  C   UNL     1      28.889  44.411  54.362  1.00  0.00     0.011 A 
HETATM   23  C   UNL     1      29.438  44.807  55.624  1.00  0.00     0.004 A 
HETATM   24  C   UNL     1      29.120  45.804  56.572  1.00  0.00     0.014 A 
HETATM   25  C   UNL     1      30.519  43.963  55.892  1.00  0.00     0.043 A 
HETATM   26  C   UNL     1      29.886  45.918  57.739  1.00  0.00     0.001 A 
HETATM   27  C   UNL     1      30.958  45.061  57.973  1.00  0.00     0.002 A 
HETATM   28  C   UNL     1      31.296  44.065  57.053  1.00  0.00     0.030 A 
HETATM   29  N   UNL     1      30.626  43.090  54.835  1.00  0.00    -0.364 N 
HETATM   30  H   UNL     1      31.323  42.362  54.756  1.00  0.00     0.165 HD
HETATM   31  C   UNL     1      29.654  43.349  53.913  1.00  0.00     0.102 A 
ENDBRANCH  21  22
ENDBRANCH   1  20
TORSDOF 4
ENDMDL
MODEL 2
REMARK VINA RESULT:     -10.0      2.765     10.799
REMARK  4 active torsions:
REMARK  status: ('A' for Active; 'I' for Inactive)
REMARK    1  A    between atoms: C_8  and  C_9 
REMARK    2  A    between atoms: N_10  and  N_11 
REMARK       I    between atoms: N_11  and  C_12 
REMARK    3  A    between atoms: C_12  and  C_13 
REMARK    4  A    between atoms: C_17  and  C_18 
ROOT
HETATM    1  N   UNL     1      25.470  45.475  50.237  1.00  0.00    -0.242 N 
HETATM    2  C   UNL     1      25.343  44.785  51.433  1.00  0.00     0.292 C 
HETATM    3  O   UNL     1      24.282  44.442  51.951  1.00  0.00    -0.264 OA
HETATM    4  H   UNL     1      26.411  45.693  49.921  1.00  0.00     0.192 HD
ENDROOT
BRANCH   2   5
HETATM    5  C   UNL     1      26.643  44.482  52.051  1.00  0.00     0.148 A 
HETATM    6  N   UNL     1      27.654  43.893  51.381  1.00  0.00    -0.169 NA
HETATM    7  N   UNL     1      28.635  43.798  52.301  1.00  0.00    -0.277 N 
HETATM    8  H   UNL     1      29.508  43.359  52.026  1.00  0.00     0.189 HD
HETATM    9  C   UNL     1      28.312  44.303  53.534  1.00  0.00     0.063 A 
HETATM   10  C   UNL     1      27.014  44.750  53.393  1.00  0.00     0.071 A 
BRANCH   9  11
HETATM   11  C   UNL     1      29.206  44.302  54.693  1.00  0.00    -0.005 A 
HETATM   12  C   UNL     1      29.141  45.311  55.665  1.00  0.00     0.053 A 
HETATM   13  C   UNL     1      30.003  45.238  56.743  1.00  0.00     0.106 A 
HETATM   14  C   UNL     1      30.909  44.215  56.883  1.00  0.00     0.105 A 
HETATM   15  O   UNL     1      30.063  46.125  57.772  1.00  0.00    -0.323 OA
HETATM   16  O   UNL     1      31.655  44.329  58.013  1.00  0.00    -0.323 OA
HETATM   17  C   UNL     1      31.007  43.206  55.952  1.00  0.00     0.040 A 
HETATM   18  C   UNL     1      31.102  45.534  58.581  1.00  0.00     0.352 A 
HETATM   19  C   UNL     1      30.145  43.254  54.851  1.00  0.00     0.017 A 
ENDBRANCH   9  11
ENDBRANCH   2   5
BRANCH   1  20
HETATM   20  N   UNL     1      24.365  45.829  49.523  1.00  0.00    -0.183 NA
HETATM   21  C   UNL     1      24.067  47.088  49.513  1.00  0.00     0.152 C 
BRANCH  21  22
HETATM   22  C   UNL     1      22.903  47.524  48.767  1.00  0.00     0.011 A 
HETATM   23  C   UNL     1      22.334  48.836  48.708  1.00  0.00     0.004 A 
HETATM   24  C   UNL     1      22.656  50.081  49.292  1.00  0.00     0.014 A 
HETATM   25  C   UNL     1      21.224  48.772  47.863  1.00  0.00     0.043 A 
HETATM   26  C   UNL     1      21.864  51.202  49.011  1.00  0.00     0.001 A 
HETATM   27  C   UNL     1      20.764  51.101  48.164  1.00  0.00     0.002 A 
HETATM   28  C   UNL     1      20.421  49.883  47.573  1.00  0.00     0.030 A 
HETATM   29  N   UNL     1      21.119  47.472  47.426  1.00  0.00    -0.364 N 
HETATM   30  H   UNL     1      20.404  47.131  46.799  1.00  0.00     0.165 HD
HETATM   31  C   UNL     1      22.121  46.716  47.961  1.00  0.00     0.102 A 
ENDBRANCH  21  22
ENDBRANCH   1  20
TORSDOF 4
ENDMDL
MODEL 3
REMARK VINA RESULT:      -9.9      1.308      1.801
REMARK  4 active torsions:
REMARK  status: ('A' for Active; 'I' for Inactive)
REMARK    1  A    between atoms: C_8  and  C_9 
REMARK    2  A    between atoms: N_10  and  N_11 
REMARK       I    between atoms: N_11  and  C_12 
REMARK    3  A    between atoms: C_12  and  C_13 
REMARK    4  A    between atoms: C_17  and  C_18 
ROOT
HETATM    1  N   UNL     1      25.556  45.239  50.639  1.00  0.00    -0.242 N 
HETATM    2  C   UNL     1      25.586  46.334  49.788  1.00  0.00     0.292 C 
HETATM    3  O   UNL     1      26.599  46.849  49.321  1.00  0.00    -0.264 OA
HETATM    4  H   UNL     1      24.645  44.912  50.947  1.00  0.00     0.192 HD
ENDROOT
BRANCH   2   5
HETATM    5  C   UNL     1      24.241  46.841  49.473  1.00  0.00     0.148 A 
HETATM    6  N   UNL     1      23.262  46.062  48.968  1.00  0.00    -0.169 NA
HETATM    7  N   UNL     1      22.221  46.907  48.829  1.00  0.00    -0.277 N 
HETATM    8  H   UNL     1      21.358  46.543  48.438  1.00  0.00     0.189 HD
HETATM    9  C   UNL     1      22.473  48.195  49.226  1.00  0.00     0.063 A 
HETATM   10  C   UNL     1      23.788  48.173  49.645  1.00  0.00     0.071 A 
BRANCH   9  11
HETATM   11  C   UNL     1      21.505  49.290  49.160  1.00  0.00    -0.005 A 
HETATM   12  C   UNL     1      20.271  49.215  49.822  1.00  0.00     0.053 A 
HETATM   13  C   UNL     1      19.413  50.294  49.732  1.00  0.00     0.106 A 
HETATM   14  C   UNL     1      19.734  51.423  49.018  1.00  0.00     0.105 A 
HETATM   15  O   UNL     1      18.189  50.384  50.319  1.00  0.00    -0.323 OA
HETATM   16  O   UNL     1      18.755  52.364  49.063  1.00  0.00    -0.323 OA
HETATM   17  C   UNL     1      20.933  51.538  48.352  1.00  0.00     0.040 A 
HETATM   18  C   UNL     1      17.785  51.706  49.902  1.00  0.00     0.352 A 
HETATM   19  C   UNL     1      21.823  50.460  48.429  1.00  0.00     0.017 A 
ENDBRANCH   9  11
ENDBRANCH   2   5
BRANCH   1  20
HETATM   20  N   UNL     1      26.714  44.634  51.026  1.00  0.00    -0.183 NA
HETATM   21  C   UNL     1      26.823  44.358  52.285  1.00  0.00     0.152 C 
BRANCH  21  22
HETATM   22  C   UNL     1      28.032  43.712  52.756  1.00  0.00     0.011 A 
HETATM   23  C   UNL     1      28.837  44.062  53.887  1.00  0.00     0.004 A 
HETATM   24  C   UNL     1      28.768  45.067  54.877  1.00  0.00     0.014 A 
HETATM   25  C   UNL     1      29.897  43.154  53.943  1.00  0.00     0.043 A 
HETATM   26  C   UNL     1      29.750  45.125  55.873  1.00  0.00     0.001 A 
HETATM   27  C   UNL     1      30.793  44.203  55.898  1.00  0.00     0.002 A 
HETATM   28  C   UNL     1      30.888  43.198  54.932  1.00  0.00     0.030 A 
HETATM   29  N   UNL     1      29.745  42.286  52.886  1.00  0.00    -0.364 N 
HETATM   30  H   UNL     1      30.370  41.520  52.676  1.00  0.00     0.165 HD
HETATM   31  C   UNL     1      28.630  42.611  52.169  1.00  0.00     0.102 A 
ENDBRANCH  21  22
ENDBRANCH   1  20
TORSDOF 4
ENDMDL
MODEL 4
REMARK VINA RESULT:      -9.7      1.618      2.527
REMARK  4 active torsions:
REMARK  status: ('A' for Active; 'I' for Inactive)
REMARK    1  A    between atoms: C_8  and  C_9 
REMARK    2  A    between atoms: N_10  and  N_11 
REMARK       I    between atoms: N_11  and  C_12 
REMARK    3  A    between atoms: C_12  and  C_13 
REMARK    4  A    between atoms: C_17  and  C_18 
ROOT
HETATM    1  N   UNL     1      25.309  46.850  51.806  1.00  0.00    -0.242 N 
HETATM    2  C   UNL     1      25.400  47.129  50.451  1.00  0.00     0.292 C 
HETATM    3  O   UNL     1      26.440  47.173  49.798  1.00  0.00    -0.264 OA
HETATM    4  H   UNL     1      24.380  46.841  52.220  1.00  0.00     0.192 HD
ENDROOT
BRANCH   2   5
HETATM    5  C   UNL     1      24.085  47.372  49.835  1.00  0.00     0.148 A 
HETATM    6  N   UNL     1      23.287  46.378  49.393  1.00  0.00    -0.169 NA
HETATM    7  N   UNL     1      22.208  47.026  48.910  1.00  0.00    -0.277 N 
HETATM    8  H   UNL     1      21.464  46.473  48.496  1.00  0.00     0.189 HD
HETATM    9  C   UNL     1      22.264  48.392  49.021  1.00  0.00     0.063 A 
HETATM   10  C   UNL     1      23.484  48.637  49.618  1.00  0.00     0.071 A 
BRANCH   9  11
HETATM   11  C   UNL     1      21.221  49.307  48.558  1.00  0.00    -0.005 A 
HETATM   12  C   UNL     1      20.101  48.840  47.854  1.00  0.00     0.053 A 
HETATM   13  C   UNL     1      19.145  49.758  47.463  1.00  0.00     0.106 A 
HETATM   14  C   UNL     1      19.264  51.098  47.742  1.00  0.00     0.105 A 
HETATM   15  O   UNL     1      18.002  49.471  46.784  1.00  0.00    -0.323 OA
HETATM   16  O   UNL     1      18.215  51.823  47.274  1.00  0.00    -0.323 OA
HETATM   17  C   UNL     1      20.347  51.598  48.428  1.00  0.00     0.040 A 
HETATM   18  C   UNL     1      17.410  50.784  46.682  1.00  0.00     0.352 A 
HETATM   19  C   UNL     1      21.330  50.690  48.839  1.00  0.00     0.017 A 
ENDBRANCH   9  11
ENDBRANCH   2   5
BRANCH   1  20
HETATM   20  N   UNL     1      26.431  46.588  52.534  1.00  0.00    -0.183 NA
HETATM   21  C   UNL     1      26.259  46.392  53.801  1.00  0.00     0.152 C 
BRANCH  21  22
HETATM   22  C   UNL     1      27.416  46.108  54.626  1.00  0.00     0.011 A 
HETATM   23  C   UNL     1      28.344  45.024  54.501  1.00  0.00     0.004 A 
HETATM   24  C   UNL     1      28.475  43.932  53.617  1.00  0.00     0.014 A 
HETATM   25  C   UNL     1      29.290  45.166  55.519  1.00  0.00     0.043 A 
HETATM   26  C   UNL     1      29.536  43.032  53.782  1.00  0.00     0.001 A 
HETATM   27  C   UNL     1      30.461  43.203  54.809  1.00  0.00     0.002 A 
HETATM   28  C   UNL     1      30.356  44.275  55.699  1.00  0.00     0.030 A 
HETATM   29  N   UNL     1      28.951  46.289  56.237  1.00  0.00    -0.364 N 
HETATM   30  H   UNL     1      29.461  46.638  57.037  1.00  0.00     0.165 HD
HETATM   31  C   UNL     1      27.830  46.862  55.709  1.00  0.00     0.102 A 
ENDBRANCH  21  22
ENDBRANCH   1  20
TORSDOF 4
ENDMDL
MODEL 5
REMARK VINA RESULT:      -9.6      2.222      3.622
REMARK  4 active torsions:
REMARK  status: ('A' for Active; 'I' for Inactive)
REMARK    1  A    between atoms: C_8  and  C_9 
REMARK    2  A    between atoms: N_10  and  N_11 
REMARK       I    between atoms: N_11  and  C_12 
REMARK    3  A    between atoms: C_12  and  C_13 
REMARK    4  A    between atoms: C_17  and  C_18 
ROOT
HETATM    1  N   UNL     1      24.581  47.647  50.102  1.00  0.00    -0.242 N 
HETATM    2  C   UNL     1      24.972  48.639  49.214  1.00  0.00     0.292 C 
HETATM    3  O   UNL     1      26.132  48.917  48.919  1.00  0.00    -0.264 OA
HETATM    4  H   UNL     1      23.584  47.521  50.251  1.00  0.00     0.192 HD
ENDROOT
BRANCH   2   5
HETATM    5  C   UNL     1      23.828  49.354  48.627  1.00  0.00     0.148 A 
HETATM    6  N   UNL     1      23.915  50.064  47.484  1.00  0.00    -0.169 NA
HETATM    7  N   UNL     1      22.669  50.548  47.312  1.00  0.00    -0.277 N 
HETATM    8  H   UNL     1      22.492  51.143  46.509  1.00  0.00     0.189 HD
HETATM    9  C   UNL     1      21.774  50.180  48.285  1.00  0.00     0.063 A 
HETATM   10  C   UNL     1      22.514  49.405  49.155  1.00  0.00     0.071 A 
BRANCH   9  11
HETATM   11  C   UNL     1      20.370  50.590  48.320  1.00  0.00    -0.005 A 
HETATM   12  C   UNL     1      19.334  49.660  48.148  1.00  0.00     0.053 A 
HETATM   13  C   UNL     1      18.030  50.113  48.212  1.00  0.00     0.106 A 
HETATM   14  C   UNL     1      17.729  51.435  48.438  1.00  0.00     0.105 A 
HETATM   15  O   UNL     1      16.916  49.345  48.075  1.00  0.00    -0.323 OA
HETATM   16  O   UNL     1      16.390  51.666  48.469  1.00  0.00    -0.323 OA
HETATM   17  C   UNL     1      18.714  52.380  48.610  1.00  0.00     0.040 A 
HETATM   18  C   UNL     1      15.880  50.335  48.254  1.00  0.00     0.352 A 
HETATM   19  C   UNL     1      20.044  51.948  48.552  1.00  0.00     0.017 A 
ENDBRANCH   9  11
ENDBRANCH   2   5
BRANCH   1  20
HETATM   20  N   UNL     1      25.513  46.877  50.731  1.00  0.00    -0.183 NA
HETATM   21  C   UNL     1      25.126  46.275  51.808  1.00  0.00     0.152 C 
BRANCH  21  22
HETATM   22  C   UNL     1      26.073  45.440  52.519  1.00  0.00     0.011 A 
HETATM   23  C   UNL     1      26.940  45.809  53.598  1.00  0.00     0.004 A 
HETATM   24  C   UNL     1      27.178  47.005  54.309  1.00  0.00     0.014 A 
HETATM   25  C   UNL     1      27.666  44.672  53.958  1.00  0.00     0.043 A 
HETATM   26  C   UNL     1      28.124  47.018  55.343  1.00  0.00     0.001 A 
HETATM   27  C   UNL     1      28.831  45.866  55.674  1.00  0.00     0.002 A 
HETATM   28  C   UNL     1      28.616  44.668  54.987  1.00  0.00     0.030 A 
HETATM   29  N   UNL     1      27.261  43.651  53.130  1.00  0.00    -0.364 N 
HETATM   30  H   UNL     1      27.619  42.706  53.163  1.00  0.00     0.165 HD
HETATM   31  C   UNL     1      26.305  44.100  52.265  1.00  0.00     0.102 A 
ENDBRANCH  21  22
ENDBRANCH   1  20
TORSDOF 4
ENDMDL
MODEL 6
REMARK VINA RESULT:      -9.3      2.687     10.857
REMARK  4 active torsions:
REMARK  status: ('A' for Active; 'I' for Inactive)
REMARK    1  A    between atoms: C_8  and  C_9 
REMARK    2  A    between atoms: N_10  and  N_11 
REMARK       I    between atoms: N_11  and  C_12 
REMARK    3  A    between atoms: C_12  and  C_13 
REMARK    4  A    between atoms: C_17  and  C_18 
ROOT
HETATM    1  N   UNL     1      24.351  45.888  49.654  1.00  0.00    -0.242 N 
HETATM    2  C   UNL     1      24.289  44.830  50.547  1.00  0.00     0.292 C 
HETATM    3  O   UNL     1      23.291  44.153  50.786  1.00  0.00    -0.264 OA
HETATM    4  H   UNL     1      25.245  46.360  49.551  1.00  0.00     0.192 HD
ENDROOT
BRANCH   2   5
HETATM    5  C   UNL     1      25.578  44.572  51.209  1.00  0.00     0.148 A 
HETATM    6  N   UNL     1      26.569  43.861  50.633  1.00  0.00    -0.169 NA
HETATM    7  N   UNL     1      27.546  43.864  51.562  1.00  0.00    -0.277 N 
HETATM    8  H   UNL     1      28.403  43.362  51.356  1.00  0.00     0.189 HD
HETATM    9  C   UNL     1      27.239  44.547  52.711  1.00  0.00     0.063 A 
HETATM   10  C   UNL     1      25.957  45.013  52.501  1.00  0.00     0.071 A 
BRANCH   9  11
HETATM   11  C   UNL     1      28.132  44.679  53.863  1.00  0.00    -0.005 A 
HETATM   12  C   UNL     1      29.122  43.722  54.131  1.00  0.00     0.053 A 
HETATM   13  C   UNL     1      29.943  43.919  55.226  1.00  0.00     0.106 A 
HETATM   14  C   UNL     1      29.814  45.014  56.046  1.00  0.00     0.105 A 
HETATM   15  O   UNL     1      30.951  43.095  55.618  1.00  0.00    -0.323 OA
HETATM   16  O   UNL     1      30.721  45.017  57.057  1.00  0.00    -0.323 OA
HETATM   17  C   UNL     1      28.855  45.975  55.819  1.00  0.00     0.040 A 
HETATM   18  C   UNL     1      31.450  43.807  56.772  1.00  0.00     0.352 A 
HETATM   19  C   UNL     1      28.012  45.802  54.716  1.00  0.00     0.017 A 
ENDBRANCH   9  11
ENDBRANCH   2   5
BRANCH   1  20
HETATM   20  N   UNL     1      23.248  46.258  48.944  1.00  0.00    -0.183 NA
HETATM   21  C   UNL     1      22.925  47.509  48.999  1.00  0.00     0.152 C 
BRANCH  21  22
HETATM   22  C   UNL     1      21.762  47.962  48.262  1.00  0.00     0.011 A 
HETATM   23  C   UNL     1      21.152  49.258  48.285  1.00  0.00     0.004 A 
HETATM   24  C   UNL     1      21.421  50.465  48.964  1.00  0.00     0.014 A 
HETATM   25  C   UNL     1      20.061  49.221  47.413  1.00  0.00     0.043 A 
HETATM   26  C   UNL     1      20.599  51.579  48.748  1.00  0.00     0.001 A 
HETATM   27  C   UNL     1      19.520  51.506  47.872  1.00  0.00     0.002 A 
HETATM   28  C   UNL     1      19.229  50.324  47.186  1.00  0.00     0.030 A 
HETATM   29  N   UNL     1      20.007  47.953  46.881  1.00  0.00    -0.364 N 
HETATM   30  H   UNL     1      19.316  47.637  46.215  1.00  0.00     0.165 HD
HETATM   31  C   UNL     1      21.023  47.191  47.382  1.00  0.00     0.102 A 
ENDBRANCH  21  22
ENDBRANCH   1  20
TORSDOF 4
ENDMDL
MODEL 7
REMARK VINA RESULT:      -9.2      3.273     11.207
REMARK  4 active torsions:
REMARK  status: ('A' for Active; 'I' for Inactive)
REMARK    1  A    between atoms: C_8  and  C_9 
REMARK    2  A    between atoms: N_10  and  N_11 
REMARK       I    between atoms: N_11  and  C_12 
REMARK    3  A    between atoms: C_12  and  C_13 
REMARK    4  A    between atoms: C_17  and  C_18 
ROOT
HETATM    1  N   UNL     1      21.984  48.214  49.426  1.00  0.00    -0.242 N 
HETATM    2  C   UNL     1      23.190  48.480  48.794  1.00  0.00     0.292 C 
HETATM    3  O   UNL     1      23.320  49.045  47.711  1.00  0.00    -0.264 OA
HETATM    4  H   UNL     1      22.022  47.741  50.325  1.00  0.00     0.192 HD
ENDROOT
BRANCH   2   5
HETATM    5  C   UNL     1      24.349  48.011  49.570  1.00  0.00     0.148 A 
HETATM    6  N   UNL     1      25.559  48.605  49.512  1.00  0.00    -0.169 NA
HETATM    7  N   UNL     1      26.314  47.872  50.355  1.00  0.00    -0.277 N 
HETATM    8  H   UNL     1      27.292  48.124  50.463  1.00  0.00     0.189 HD
HETATM    9  C   UNL     1      25.652  46.836  50.962  1.00  0.00     0.063 A 
HETATM   10  C   UNL     1      24.370  46.907  50.458  1.00  0.00     0.071 A 
BRANCH   9  11
HETATM   11  C   UNL     1      26.264  45.897  51.904  1.00  0.00    -0.005 A 
HETATM   12  C   UNL     1      26.610  44.595  51.515  1.00  0.00     0.053 A 
HETATM   13  C   UNL     1      27.201  43.768  52.451  1.00  0.00     0.106 A 
HETATM   14  C   UNL     1      27.453  44.185  53.736  1.00  0.00     0.105 A 
HETATM   15  O   UNL     1      27.603  42.487  52.235  1.00  0.00    -0.323 OA
HETATM   16  O   UNL     1      28.042  43.221  54.491  1.00  0.00    -0.323 OA
HETATM   17  C   UNL     1      27.128  45.453  54.159  1.00  0.00     0.040 A 
HETATM   18  C   UNL     1      28.150  42.152  53.529  1.00  0.00     0.352 A 
HETATM   19  C   UNL     1      26.530  46.313  53.231  1.00  0.00     0.017 A 
ENDBRANCH   9  11
ENDBRANCH   2   5
BRANCH   1  20
HETATM   20  N   UNL     1      20.806  48.590  48.853  1.00  0.00    -0.183 NA
HETATM   21  C   UNL     1      19.804  48.748  49.654  1.00  0.00     0.152 C 
BRANCH  21  22
HETATM   22  C   UNL     1      18.525  49.150  49.102  1.00  0.00     0.011 A 
HETATM   23  C   UNL     1      17.868  50.416  49.228  1.00  0.00     0.004 A 
HETATM   24  C   UNL     1      18.181  51.632  49.871  1.00  0.00     0.014 A 
HETATM   25  C   UNL     1      16.662  50.331  48.526  1.00  0.00     0.043 A 
HETATM   26  C   UNL     1      17.286  52.708  49.790  1.00  0.00     0.001 A 
HETATM   27  C   UNL     1      16.093  52.588  49.083  1.00  0.00     0.002 A 
HETATM   28  C   UNL     1      15.757  51.396  48.436  1.00  0.00     0.030 A 
HETATM   29  N   UNL     1      16.588  49.064  47.996  1.00  0.00    -0.364 N 
HETATM   30  H   UNL     1      15.820  48.718  47.437  1.00  0.00     0.165 HD
HETATM   31  C   UNL     1      17.699  48.348  48.334  1.00  0.00     0.102 A 
ENDBRANCH  21  22
ENDBRANCH   1  20
TORSDOF 4
ENDMDL
MODEL 8
REMARK VINA RESULT:      -9.2      2.395      3.490
REMARK  4 active torsions:
REMARK  status: ('A' for Active; 'I' for Inactive)
REMARK    1  A    between atoms: C_8  and  C_9 
REMARK    2  A    between atoms: N_10  and  N_11 
REMARK       I    between atoms: N_11  and  C_12 
REMARK    3  A    between atoms: C_12  and  C_13 
REMARK    4  A    between atoms: C_17  and  C_18 
ROOT
HETATM    1  N   UNL     1      25.496  46.139  49.618  1.00  0.00    -0.242 N 
HETATM    2  C   UNL     1      25.586  47.428  50.120  1.00  0.00     0.292 C 
HETATM    3  O   UNL     1      26.295  47.781  51.060  1.00  0.00    -0.264 OA
HETATM    4  H   UNL     1      24.870  45.987  48.831  1.00  0.00     0.192 HD
ENDROOT
BRANCH   2   5
HETATM    5  C   UNL     1      24.727  48.378  49.396  1.00  0.00     0.148 A 
HETATM    6  N   UNL     1      25.216  49.338  48.584  1.00  0.00    -0.169 NA
HETATM    7  N   UNL     1      24.113  49.971  48.138  1.00  0.00    -0.277 N 
HETATM    8  H   UNL     1      24.234  50.762  47.513  1.00  0.00     0.189 HD
HETATM    9  C   UNL     1      22.931  49.466  48.616  1.00  0.00     0.063 A 
HETATM   10  C   UNL     1      23.311  48.428  49.442  1.00  0.00     0.071 A 
BRANCH   9  11
HETATM   11  C   UNL     1      21.606  49.993  48.284  1.00  0.00    -0.005 A 
HETATM   12  C   UNL     1      20.675  49.227  47.568  1.00  0.00     0.053 A 
HETATM   13  C   UNL     1      19.436  49.781  47.305  1.00  0.00     0.106 A 
HETATM   14  C   UNL     1      19.100  51.046  47.723  1.00  0.00     0.105 A 
HETATM   15  O   UNL     1      18.422  49.172  46.634  1.00  0.00    -0.323 OA
HETATM   16  O   UNL     1      17.836  51.394  47.367  1.00  0.00    -0.323 OA
HETATM   17  C   UNL     1      19.985  51.831  48.426  1.00  0.00     0.040 A 
HETATM   18  C   UNL     1      17.405  50.196  46.690  1.00  0.00     0.352 A 
HETATM   19  C   UNL     1      21.246  51.294  48.708  1.00  0.00     0.017 A 
ENDBRANCH   9  11
ENDBRANCH   2   5
BRANCH   1  20
HETATM   20  N   UNL     1      26.233  45.131  50.163  1.00  0.00    -0.183 NA
HETATM   21  C   UNL     1      25.569  44.163  50.704  1.00  0.00     0.152 C 
BRANCH  21  22
HETATM   22  C   UNL     1      26.300  43.062  51.299  1.00  0.00     0.011 A 
HETATM   23  C   UNL     1      27.310  43.118  52.313  1.00  0.00     0.004 A 
HETATM   24  C   UNL     1      27.917  44.161  53.047  1.00  0.00     0.014 A 
HETATM   25  C   UNL     1      27.722  41.807  52.565  1.00  0.00     0.043 A 
HETATM   26  C   UNL     1      28.902  43.856  53.995  1.00  0.00     0.001 A 
HETATM   27  C   UNL     1      29.289  42.538  54.220  1.00  0.00     0.002 A 
HETATM   28  C   UNL     1      28.706  41.486  53.508  1.00  0.00     0.030 A 
HETATM   29  N   UNL     1      26.994  40.985  51.737  1.00  0.00    -0.364 N 
HETATM   30  H   UNL     1      27.082  39.979  51.702  1.00  0.00     0.165 HD
HETATM   31  C   UNL     1      26.139  41.727  50.974  1.00  0.00     0.102 A 
ENDBRANCH  21  22
ENDBRANCH   1  20
TORSDOF 4
ENDMDL
MODEL 9
REMARK VINA RESULT:      -8.8      3.511     11.475
REMARK  4 active torsions:
REMARK  status: ('A' for Active; 'I' for Inactive)
REMARK    1  A    between atoms: C_8  and  C_9 
REMARK    2  A    between atoms: N_10  and  N_11 
REMARK       I    between atoms: N_11  and  C_12 
REMARK    3  A    between atoms: C_12  and  C_13 
REMARK    4  A    between atoms: C_17  and  C_18 
ROOT
HETATM    1  N   UNL     1      22.704  49.444  48.688  1.00  0.00    -0.242 N 
HETATM    2  C   UNL     1      24.017  49.551  48.255  1.00  0.00     0.292 C 
HETATM    3  O   UNL     1      24.396  50.189  47.275  1.00  0.00    -0.264 OA
HETATM    4  H   UNL     1      22.531  48.885  49.520  1.00  0.00     0.192 HD
ENDROOT
BRANCH   2   5
HETATM    5  C   UNL     1      24.956  48.808  49.110  1.00  0.00     0.148 A 
HETATM    6  N   UNL     1      26.296  48.908  48.987  1.00  0.00    -0.169 NA
HETATM    7  N   UNL     1      26.767  48.078  49.939  1.00  0.00    -0.277 N 
HETATM    8  H   UNL     1      27.772  47.970  50.026  1.00  0.00     0.189 HD
HETATM    9  C   UNL     1      25.798  47.449  50.679  1.00  0.00     0.063 A 
HETATM   10  C   UNL     1      24.610  47.909  50.149  1.00  0.00     0.071 A 
BRANCH   9  11
HETATM   11  C   UNL     1      26.063  46.496  51.757  1.00  0.00    -0.005 A 
HETATM   12  C   UNL     1      26.579  45.219  51.492  1.00  0.00     0.053 A 
HETATM   13  C   UNL     1      26.823  44.377  52.560  1.00  0.00     0.106 A 
HETATM   14  C   UNL     1      26.575  44.755  53.858  1.00  0.00     0.105 A 
HETATM   15  O   UNL     1      27.328  43.117  52.476  1.00  0.00    -0.323 OA
HETATM   16  O   UNL     1      26.889  43.783  54.753  1.00  0.00    -0.323 OA
HETATM   17  C   UNL     1      26.068  45.997  54.162  1.00  0.00     0.040 A 
HETATM   18  C   UNL     1      27.381  42.752  53.872  1.00  0.00     0.352 A 
HETATM   19  C   UNL     1      25.813  46.872  53.099  1.00  0.00     0.017 A 
ENDBRANCH   9  11
ENDBRANCH   2   5
BRANCH   1  20
HETATM   20  N   UNL     1      21.701  50.079  48.019  1.00  0.00    -0.183 NA
HETATM   21  C   UNL     1      20.729  50.534  48.741  1.00  0.00     0.152 C 
BRANCH  21  22
HETATM   22  C   UNL     1      19.635  51.221  48.084  1.00  0.00     0.011 A 
HETATM   23  C   UNL     1      18.870  50.785  46.954  1.00  0.00     0.004 A 
HETATM   24  C   UNL     1      18.887  49.637  46.133  1.00  0.00     0.014 A 
HETATM   25  C   UNL     1      17.926  51.778  46.681  1.00  0.00     0.043 A 
HETATM   26  C   UNL     1      17.968  49.526  45.081  1.00  0.00     0.001 A 
HETATM   27  C   UNL     1      17.041  50.535  44.837  1.00  0.00     0.002 A 
HETATM   28  C   UNL     1      17.001  51.683  45.634  1.00  0.00     0.030 A 
HETATM   29  N   UNL     1      18.109  52.779  47.606  1.00  0.00    -0.364 N 
HETATM   30  H   UNL     1      17.563  53.629  47.651  1.00  0.00     0.165 HD
HETATM   31  C   UNL     1      19.130  52.455  48.452  1.00  0.00     0.102 A 
ENDBRANCH  21  22
ENDBRANCH   1  20
TORSDOF 4
ENDMDL
MODEL 10
REMARK VINA RESULT:      -8.7      5.385      8.454
REMARK  4 active torsions:
REMARK  status: ('A' for Active; 'I' for Inactive)
REMARK    1  A    between atoms: C_8  and  C_9 
REMARK    2  A    between atoms: N_10  and  N_11 
REMARK       I    between atoms: N_11  and  C_12 
REMARK    3  A    between atoms: C_12  and  C_13 
REMARK    4  A    between atoms: C_17  and  C_18 
ROOT
HETATM    1  N   UNL     1      27.534  43.783  51.331  1.00  0.00    -0.242 N 
HETATM    2  C   UNL     1      26.250  43.397  50.978  1.00  0.00     0.292 C 
HETATM    3  O   UNL     1      25.230  43.634  51.620  1.00  0.00    -0.264 OA
HETATM    4  H   UNL     1      28.290  43.523  50.703  1.00  0.00     0.192 HD
ENDROOT
BRANCH   2   5
HETATM    5  C   UNL     1      26.213  42.651  49.709  1.00  0.00     0.148 A 
HETATM    6  N   UNL     1      25.177  42.718  48.849  1.00  0.00    -0.169 NA
HETATM    7  N   UNL     1      25.543  41.898  47.843  1.00  0.00    -0.277 N 
HETATM    8  H   UNL     1      24.897  41.769  47.071  1.00  0.00     0.189 HD
HETATM    9  C   UNL     1      26.770  41.308  48.005  1.00  0.00     0.063 A 
HETATM   10  C   UNL     1      27.221  41.783  49.220  1.00  0.00     0.071 A 
BRANCH   9  11
HETATM   11  C   UNL     1      27.375  40.373  47.056  1.00  0.00    -0.005 A 
HETATM   12  C   UNL     1      27.693  39.058  47.428  1.00  0.00     0.053 A 
HETATM   13  C   UNL     1      28.244  38.223  46.476  1.00  0.00     0.106 A 
HETATM   14  C   UNL     1      28.486  38.644  45.190  1.00  0.00     0.105 A 
HETATM   15  O   UNL     1      28.600  36.925  46.670  1.00  0.00    -0.323 OA
HETATM   16  O   UNL     1      29.026  37.668  44.415  1.00  0.00    -0.323 OA
HETATM   17  C   UNL     1      28.192  39.926  44.784  1.00  0.00     0.040 A 
HETATM   18  C   UNL     1      29.081  36.575  45.354  1.00  0.00     0.352 A 
HETATM   19  C   UNL     1      27.630  40.792  45.728  1.00  0.00     0.017 A 
ENDBRANCH   9  11
ENDBRANCH   2   5
BRANCH   1  20
HETATM   20  N   UNL     1      27.752  44.493  52.473  1.00  0.00    -0.183 NA
HETATM   21  C   UNL     1      28.607  43.993  53.305  1.00  0.00     0.152 C 
BRANCH  21  22
HETATM   22  C   UNL     1      28.882  44.705  54.537  1.00  0.00     0.011 A 
HETATM   23  C   UNL     1      29.834  44.375  55.554  1.00  0.00     0.004 A 
HETATM   24  C   UNL     1      30.775  43.337  55.727  1.00  0.00     0.014 A 
HETATM   25  C   UNL     1      29.739  45.352  56.548  1.00  0.00     0.043 A 
HETATM   26  C   UNL     1      31.577  43.315  56.876  1.00  0.00     0.001 A 
HETATM   27  C   UNL     1      31.454  44.305  57.847  1.00  0.00     0.002 A 
HETATM   28  C   UNL     1      30.532  45.345  57.702  1.00  0.00     0.030 A 
HETATM   29  N   UNL     1      28.766  46.241  56.153  1.00  0.00    -0.364 N 
HETATM   30  H   UNL     1      28.481  47.055  56.680  1.00  0.00     0.165 HD
HETATM   31  C   UNL     1      28.246  45.863  54.949  1.00  0.00     0.102 A 
ENDBRANCH  21  22
ENDBRANCH   1  20
TORSDOF 4
ENDMDL
