MODEL 1
REMARK VINA RESULT:      -9.4      0.000      0.000
REMARK  6 active torsions:
REMARK  status: ('A' for Active; 'I' for Inactive)
REMARK    1  A    between atoms: C_3  and  C_4 
REMARK    2  A    between atoms: C_4  and  N_5 
REMARK    3  A    between atoms: C_4  and  C_9 
REMARK       I    between atoms: N_5  and  C_6 
REMARK       I    between atoms: C_6  and  N_7 
REMARK    4  A    between atoms: C_9  and  C_10 
REMARK       I    between atoms: C_10  and  N_11 
REMARK    5  A    between atoms: N_11  and  N_12 
REMARK       I    between atoms: N_12  and  C_13 
REMARK    6  A    between atoms: C_13  and  C_14 
ROOT
HETATM    1  C   UNL     1      26.184  45.534  53.778  1.00  0.00     0.238 C 
HETATM    2  N   UNL     1      26.568  45.685  52.466  1.00  0.00    -0.267 N 
HETATM    3  O   UNL     1      25.413  46.322  54.323  1.00  0.00    -0.272 OA
HETATM    4  H   UNL     1      27.239  45.097  51.974  1.00  0.00     0.190 HD
ENDROOT
BRANCH   1   5
HETATM    5  C   UNL     1      26.795  44.354  54.495  1.00  0.00     0.134 C 
BRANCH   5   6
HETATM    6  C   UNL     1      28.156  43.943  53.912  1.00  0.00     0.129 C 
BRANCH   6   7
HETATM    7  C   UNL     1      29.288  44.094  54.923  1.00  0.00    -0.013 A 
HETATM    8  C   UNL     1      30.057  42.978  55.313  1.00  0.00     0.011 A 
HETATM    9  C   UNL     1      31.078  43.096  56.261  1.00  0.00     0.001 A 
HETATM   10  C   UNL     1      31.354  44.329  56.842  1.00  0.00     0.002 A 
HETATM   11  C   UNL     1      30.601  45.443  56.482  1.00  0.00     0.024 A 
HETATM   12  C   UNL     1      29.573  45.329  55.539  1.00  0.00     0.042 A 
HETATM   13 CL   UNL     1      28.671  46.765  55.199  1.00  0.00    -0.084 Cl
ENDBRANCH   6   7
BRANCH   6  14
HETATM   14  N   UNL     1      28.134  42.620  53.287  1.00  0.00    -0.339 N 
HETATM   15  C   UNL     1      27.729  42.310  52.034  1.00  0.00     0.292 C 
HETATM   16  N   UNL     1      27.655  43.319  51.143  1.00  0.00    -0.254 NA
HETATM   17  O   UNL     1      27.436  41.166  51.717  1.00  0.00    -0.254 OA
HETATM   18  H   UNL     1      28.425  43.970  51.140  1.00  0.00     0.128 HD
HETATM   19  H   UNL     1      27.413  42.985  50.217  1.00  0.00     0.128 HD
HETATM   20  H   UNL     1      28.013  41.818  53.892  1.00  0.00     0.164 HD
ENDBRANCH   6  14
ENDBRANCH   5   6
ENDBRANCH   1   5
BRANCH   2  21
HETATM   21  N   UNL     1      25.997  46.733  51.742  1.00  0.00    -0.263 N 
HETATM   22  C   UNL     1      26.248  46.818  50.389  1.00  0.00     0.270 C 
HETATM   23  O   UNL     1      27.021  46.051  49.817  1.00  0.00    -0.266 OA
HETATM   24  H   UNL     1      25.415  47.376  52.275  1.00  0.00     0.190 HD
BRANCH  22  25
HETATM   25  C   UNL     1      25.544  47.896  49.634  1.00  0.00     0.036 A 
HETATM   26  C   UNL     1      24.145  47.956  49.540  1.00  0.00     0.057 A 
HETATM   27  C   UNL     1      23.596  48.983  48.798  1.00  0.00     0.106 A 
HETATM   28  C   UNL     1      24.372  49.921  48.159  1.00  0.00     0.105 A 
HETATM   29  O   UNL     1      22.267  49.187  48.598  1.00  0.00    -0.323 OA
HETATM   30  O   UNL     1      23.628  50.834  47.480  1.00  0.00    -0.323 OA
HETATM   31  C   UNL     1      25.747  49.888  48.224  1.00  0.00     0.041 A 
HETATM   32  C   UNL     1      22.293  50.359  47.757  1.00  0.00     0.352 A 
HETATM   33  C   UNL     1      26.336  48.861  48.969  1.00  0.00     0.020 A 
ENDBRANCH  22  25
ENDBRANCH   2  21
TORSDOF 6
ENDMDL
MODEL 2
REMARK VINA RESULT:      -9.3      3.823      9.545
REMARK  6 active torsions:
REMARK  status: ('A' for Active; 'I' for Inactive)
REMARK    1  A    between atoms: C_3  and  C_4 
REMARK    2  A    between atoms: C_4  and  N_5 
REMARK    3  A    between atoms: C_4  and  C_9 
REMARK       I    between atoms: N_5  and  C_6 
REMARK       I    between atoms: C_6  and  N_7 
REMARK    4  A    between atoms: C_9  and  C_10 
REMARK       I    between atoms: C_10  and  N_11 
REMARK    5  A    between atoms: N_11  and  N_12 
REMARK       I    between atoms: N_12  and  C_13 
REMARK    6  A    between atoms: C_13  and  C_14 
ROOT
HETATM    1  C   UNL     1      23.377  48.020  49.502  1.00  0.00     0.238 C 
HETATM    2  N   UNL     1      23.863  46.851  50.041  1.00  0.00    -0.267 N 
HETATM    3  O   UNL     1      23.726  49.122  49.921  1.00  0.00    -0.272 OA
HETATM    4  H   UNL     1      23.576  45.911  49.772  1.00  0.00     0.190 HD
ENDROOT
BRANCH   1   5
HETATM    5  C   UNL     1      22.375  47.845  48.386  1.00  0.00     0.134 C 
BRANCH   5   6
HETATM    6  C   UNL     1      20.923  47.838  48.886  1.00  0.00     0.129 C 
BRANCH   6   7
HETATM    7  C   UNL     1      20.348  49.245  49.013  1.00  0.00    -0.013 A 
HETATM    8  C   UNL     1      20.847  50.301  48.224  1.00  0.00     0.011 A 
HETATM    9  C   UNL     1      20.350  51.601  48.350  1.00  0.00     0.001 A 
HETATM   10  C   UNL     1      19.343  51.878  49.269  1.00  0.00     0.002 A 
HETATM   11  C   UNL     1      18.841  50.855  50.069  1.00  0.00     0.024 A 
HETATM   12  C   UNL     1      19.341  49.553  49.950  1.00  0.00     0.042 A 
HETATM   13 CL   UNL     1      18.679  48.368  51.024  1.00  0.00    -0.084 Cl
ENDBRANCH   6   7
BRANCH   6  14
HETATM   14  N   UNL     1      20.057  46.945  48.114  1.00  0.00    -0.339 N 
HETATM   15  C   UNL     1      19.858  45.622  48.311  1.00  0.00     0.292 C 
HETATM   16  N   UNL     1      20.201  45.119  49.513  1.00  0.00    -0.254 NA
HETATM   17  O   UNL     1      19.391  44.905  47.437  1.00  0.00    -0.254 OA
HETATM   18  H   UNL     1      19.934  45.665  50.318  1.00  0.00     0.128 HD
HETATM   19  H   UNL     1      19.952  44.140  49.596  1.00  0.00     0.128 HD
HETATM   20  H   UNL     1      19.898  47.173  47.141  1.00  0.00     0.164 HD
ENDBRANCH   6  14
ENDBRANCH   5   6
ENDBRANCH   1   5
BRANCH   2  21
HETATM   21  N   UNL     1      24.828  46.955  51.045  1.00  0.00    -0.263 N 
HETATM   22  C   UNL     1      25.011  45.888  51.899  1.00  0.00     0.270 C 
HETATM   23  O   UNL     1      24.300  44.885  51.857  1.00  0.00    -0.266 OA
HETATM   24  H   UNL     1      25.346  47.830  51.074  1.00  0.00     0.190 HD
BRANCH  22  25
HETATM   25  C   UNL     1      26.115  46.001  52.898  1.00  0.00     0.036 A 
HETATM   26  C   UNL     1      26.942  44.917  53.229  1.00  0.00     0.057 A 
HETATM   27  C   UNL     1      27.919  45.123  54.183  1.00  0.00     0.106 A 
HETATM   28  C   UNL     1      28.090  46.337  54.805  1.00  0.00     0.105 A 
HETATM   29  O   UNL     1      28.799  44.185  54.625  1.00  0.00    -0.323 OA
HETATM   30  O   UNL     1      29.101  46.316  55.714  1.00  0.00    -0.323 OA
HETATM   31  C   UNL     1      27.292  47.420  54.510  1.00  0.00     0.041 A 
HETATM   32  C   UNL     1      29.543  44.946  55.600  1.00  0.00     0.352 A 
HETATM   33  C   UNL     1      26.293  47.245  53.547  1.00  0.00     0.020 A 
ENDBRANCH  22  25
ENDBRANCH   2  21
TORSDOF 6
ENDMDL
MODEL 3
REMARK VINA RESULT:      -9.3      3.877      9.686
REMARK  6 active torsions:
REMARK  status: ('A' for Active; 'I' for Inactive)
REMARK    1  A    between atoms: C_3  and  C_4 
REMARK    2  A    between atoms: C_4  and  N_5 
REMARK    3  A    between atoms: C_4  and  C_9 
REMARK       I    between atoms: N_5  and  C_6 
REMARK       I    between atoms: C_6  and  N_7 
REMARK    4  A    between atoms: C_9  and  C_10 
REMARK       I    between atoms: C_10  and  N_11 
REMARK    5  A    between atoms: N_11  and  N_12 
REMARK       I    between atoms: N_12  and  C_13 
REMARK    6  A    between atoms: C_13  and  C_14 
ROOT
HETATM    1  C   UNL     1      23.361  47.718  49.368  1.00  0.00     0.238 C 
HETATM    2  N   UNL     1      23.414  46.414  49.802  1.00  0.00    -0.267 N 
HETATM    3  O   UNL     1      24.123  48.579  49.805  1.00  0.00    -0.272 OA
HETATM    4  H   UNL     1      22.781  45.669  49.517  1.00  0.00     0.190 HD
ENDROOT
BRANCH   1   5
HETATM    5  C   UNL     1      22.291  48.011  48.344  1.00  0.00     0.134 C 
BRANCH   5   6
HETATM    6  C   UNL     1      20.874  47.960  48.933  1.00  0.00     0.129 C 
BRANCH   6   7
HETATM    7  C   UNL     1      20.248  49.345  49.057  1.00  0.00    -0.013 A 
HETATM    8  C   UNL     1      20.698  50.413  48.255  1.00  0.00     0.011 A 
HETATM    9  C   UNL     1      20.153  51.694  48.379  1.00  0.00     0.001 A 
HETATM   10  C   UNL     1      19.148  51.940  49.308  1.00  0.00     0.002 A 
HETATM   11  C   UNL     1      18.694  50.905  50.121  1.00  0.00     0.024 A 
HETATM   12  C   UNL     1      19.241  49.622  50.005  1.00  0.00     0.042 A 
HETATM   13 CL   UNL     1      18.637  48.421  51.094  1.00  0.00    -0.084 Cl
ENDBRANCH   6   7
BRANCH   6  14
HETATM   14  N   UNL     1      20.001  47.010  48.241  1.00  0.00    -0.339 N 
HETATM   15  C   UNL     1      19.954  45.668  48.407  1.00  0.00     0.292 C 
HETATM   16  N   UNL     1      20.495  45.166  49.534  1.00  0.00    -0.254 NA
HETATM   17  O   UNL     1      19.446  44.934  47.570  1.00  0.00    -0.254 OA
HETATM   18  H   UNL     1      20.285  45.660  50.388  1.00  0.00     0.128 HD
HETATM   19  H   UNL     1      20.351  44.166  49.607  1.00  0.00     0.128 HD
HETATM   20  H   UNL     1      19.697  47.249  47.306  1.00  0.00     0.164 HD
ENDBRANCH   6  14
ENDBRANCH   5   6
ENDBRANCH   1   5
BRANCH   2  21
HETATM   21  N   UNL     1      24.416  46.077  50.715  1.00  0.00    -0.263 N 
HETATM   22  C   UNL     1      24.397  44.821  51.284  1.00  0.00     0.270 C 
HETATM   23  O   UNL     1      23.487  44.021  51.077  1.00  0.00    -0.266 OA
HETATM   24  H   UNL     1      25.111  46.797  50.898  1.00  0.00     0.190 HD
BRANCH  22  25
HETATM   25  C   UNL     1      25.536  44.467  52.182  1.00  0.00     0.036 A 
HETATM   26  C   UNL     1      26.829  44.218  51.693  1.00  0.00     0.057 A 
HETATM   27  C   UNL     1      27.805  43.875  52.607  1.00  0.00     0.106 A 
HETATM   28  C   UNL     1      27.543  43.768  53.952  1.00  0.00     0.105 A 
HETATM   29  O   UNL     1      29.102  43.597  52.307  1.00  0.00    -0.323 OA
HETATM   30  O   UNL     1      28.643  43.412  54.668  1.00  0.00    -0.323 OA
HETATM   31  C   UNL     1      26.286  43.997  54.466  1.00  0.00     0.041 A 
HETATM   32  C   UNL     1      29.627  43.299  53.618  1.00  0.00     0.352 A 
HETATM   33  C   UNL     1      25.274  44.348  53.566  1.00  0.00     0.020 A 
ENDBRANCH  22  25
ENDBRANCH   2  21
TORSDOF 6
ENDMDL
MODEL 4
REMARK VINA RESULT:      -9.0      2.166      2.789
REMARK  6 active torsions:
REMARK  status: ('A' for Active; 'I' for Inactive)
REMARK    1  A    between atoms: C_3  and  C_4 
REMARK    2  A    between atoms: C_4  and  N_5 
REMARK    3  A    between atoms: C_4  and  C_9 
REMARK       I    between atoms: N_5  and  C_6 
REMARK       I    between atoms: C_6  and  N_7 
REMARK    4  A    between atoms: C_9  and  C_10 
REMARK       I    between atoms: C_10  and  N_11 
REMARK    5  A    between atoms: N_11  and  N_12 
REMARK       I    between atoms: N_12  and  C_13 
REMARK    6  A    between atoms: C_13  and  C_14 
ROOT
HETATM    1  C   UNL     1      26.521  47.470  53.837  1.00  0.00     0.238 C 
HETATM    2  N   UNL     1      26.683  47.107  52.520  1.00  0.00    -0.267 N 
HETATM    3  O   UNL     1      25.521  48.071  54.225  1.00  0.00    -0.272 OA
HETATM    4  H   UNL     1      27.506  46.653  52.128  1.00  0.00     0.190 HD
ENDROOT
BRANCH   1   5
HETATM    5  C   UNL     1      27.664  47.099  54.751  1.00  0.00     0.134 C 
BRANCH   5   6
HETATM    6  C   UNL     1      27.925  45.586  54.792  1.00  0.00     0.129 C 
BRANCH   6   7
HETATM    7  C   UNL     1      29.051  45.219  55.753  1.00  0.00    -0.013 A 
HETATM    8  C   UNL     1      29.238  45.938  56.951  1.00  0.00     0.011 A 
HETATM    9  C   UNL     1      30.283  45.632  57.827  1.00  0.00     0.001 A 
HETATM   10  C   UNL     1      31.168  44.602  57.526  1.00  0.00     0.002 A 
HETATM   11  C   UNL     1      31.013  43.884  56.343  1.00  0.00     0.024 A 
HETATM   12  C   UNL     1      29.971  44.192  55.460  1.00  0.00     0.042 A 
HETATM   13 CL   UNL     1      29.897  43.269  53.999  1.00  0.00    -0.084 Cl
ENDBRANCH   6   7
BRANCH   6  14
HETATM   14  N   UNL     1      26.711  44.802  55.025  1.00  0.00    -0.339 N 
HETATM   15  C   UNL     1      25.970  44.145  54.105  1.00  0.00     0.292 C 
HETATM   16  N   UNL     1      26.551  43.881  52.918  1.00  0.00    -0.254 NA
HETATM   17  O   UNL     1      24.816  43.805  54.331  1.00  0.00    -0.254 OA
HETATM   18  H   UNL     1      27.500  43.540  52.951  1.00  0.00     0.128 HD
HETATM   19  H   UNL     1      25.950  43.326  52.320  1.00  0.00     0.128 HD
HETATM   20  H   UNL     1      26.127  45.065  55.809  1.00  0.00     0.164 HD
ENDBRANCH   6  14
ENDBRANCH   5   6
ENDBRANCH   1   5
BRANCH   2  21
HETATM   21  N   UNL     1      25.634  47.384  51.639  1.00  0.00    -0.263 N 
HETATM   22  C   UNL     1      25.355  46.479  50.637  1.00  0.00     0.270 C 
HETATM   23  O   UNL     1      26.047  45.480  50.445  1.00  0.00    -0.266 OA
HETATM   24  H   UNL     1      25.133  48.254  51.805  1.00  0.00     0.190 HD
BRANCH  22  25
HETATM   25  C   UNL     1      24.169  46.765  49.777  1.00  0.00     0.036 A 
HETATM   26  C   UNL     1      23.494  45.758  49.070  1.00  0.00     0.057 A 
HETATM   27  C   UNL     1      22.423  46.134  48.285  1.00  0.00     0.106 A 
HETATM   28  C   UNL     1      22.018  47.443  48.177  1.00  0.00     0.105 A 
HETATM   29  O   UNL     1      21.663  45.293  47.533  1.00  0.00    -0.323 OA
HETATM   30  O   UNL     1      20.951  47.590  47.346  1.00  0.00    -0.323 OA
HETATM   31  C   UNL     1      22.662  48.458  48.849  1.00  0.00     0.041 A 
HETATM   32  C   UNL     1      20.735  46.223  46.936  1.00  0.00     0.352 A 
HETATM   33  C   UNL     1      23.751  48.110  49.656  1.00  0.00     0.020 A 
ENDBRANCH  22  25
ENDBRANCH   2  21
TORSDOF 6
ENDMDL
MODEL 5
REMARK VINA RESULT:      -8.9      3.172      5.124
REMARK  6 active torsions:
REMARK  status: ('A' for Active; 'I' for Inactive)
REMARK    1  A    between atoms: C_3  and  C_4 
REMARK    2  A    between atoms: C_4  and  N_5 
REMARK    3  A    between atoms: C_4  and  C_9 
REMARK       I    between atoms: N_5  and  C_6 
REMARK       I    between atoms: C_6  and  N_7 
REMARK    4  A    between atoms: C_9  and  C_10 
REMARK       I    between atoms: C_10  and  N_11 
REMARK    5  A    between atoms: N_11  and  N_12 
REMARK       I    between atoms: N_12  and  C_13 
REMARK    6  A    between atoms: C_13  and  C_14 
ROOT
HETATM    1  C   UNL     1      24.197  46.872  49.572  1.00  0.00     0.238 C 
HETATM    2  N   UNL     1      23.882  48.118  50.065  1.00  0.00    -0.267 N 
HETATM    3  O   UNL     1      23.395  46.216  48.909  1.00  0.00    -0.272 OA
HETATM    4  H   UNL     1      24.482  48.688  50.660  1.00  0.00     0.190 HD
ENDROOT
BRANCH   1   5
HETATM    5  C   UNL     1      25.576  46.370  49.927  1.00  0.00     0.134 C 
BRANCH   5   6
HETATM    6  C   UNL     1      25.550  45.263  50.991  1.00  0.00     0.129 C 
BRANCH   6   7
HETATM    7  C   UNL     1      26.098  45.737  52.333  1.00  0.00    -0.013 A 
HETATM    8  C   UNL     1      25.612  46.917  52.934  1.00  0.00     0.011 A 
HETATM    9  C   UNL     1      26.126  47.379  54.148  1.00  0.00     0.001 A 
HETATM   10  C   UNL     1      27.139  46.675  54.792  1.00  0.00     0.002 A 
HETATM   11  C   UNL     1      27.644  45.514  54.214  1.00  0.00     0.024 A 
HETATM   12  C   UNL     1      27.137  45.051  52.994  1.00  0.00     0.042 A 
HETATM   13 CL   UNL     1      27.868  43.624  52.343  1.00  0.00    -0.084 Cl
ENDBRANCH   6   7
BRANCH   6  14
HETATM   14  N   UNL     1      24.241  44.620  51.116  1.00  0.00    -0.339 N 
HETATM   15  C   UNL     1      23.952  43.309  50.951  1.00  0.00     0.292 C 
HETATM   16  N   UNL     1      24.978  42.438  51.013  1.00  0.00    -0.254 NA
HETATM   17  O   UNL     1      22.808  42.923  50.748  1.00  0.00    -0.254 OA
HETATM   18  H   UNL     1      25.645  42.587  51.754  1.00  0.00     0.128 HD
HETATM   19  H   UNL     1      24.660  41.478  50.951  1.00  0.00     0.128 HD
HETATM   20  H   UNL     1      23.423  45.179  50.908  1.00  0.00     0.164 HD
ENDBRANCH   6  14
ENDBRANCH   5   6
ENDBRANCH   1   5
BRANCH   2  21
HETATM   21  N   UNL     1      22.636  48.651  49.727  1.00  0.00    -0.263 N 
HETATM   22  C   UNL     1      22.553  49.990  49.409  1.00  0.00     0.270 C 
HETATM   23  O   UNL     1      23.521  50.744  49.491  1.00  0.00    -0.266 OA
HETATM   24  H   UNL     1      21.857  47.997  49.734  1.00  0.00     0.190 HD
BRANCH  22  25
HETATM   25  C   UNL     1      21.223  50.500  48.964  1.00  0.00     0.036 A 
HETATM   26  C   UNL     1      20.365  51.208  49.819  1.00  0.00     0.057 A 
HETATM   27  C   UNL     1      19.147  51.615  49.312  1.00  0.00     0.106 A 
HETATM   28  C   UNL     1      18.762  51.341  48.021  1.00  0.00     0.105 A 
HETATM   29  O   UNL     1      18.197  52.303  50.001  1.00  0.00    -0.323 OA
HETATM   30  O   UNL     1      17.525  51.825  47.734  1.00  0.00    -0.323 OA
HETATM   31  C   UNL     1      19.575  50.642  47.157  1.00  0.00     0.041 A 
HETATM   32  C   UNL     1      17.169  52.429  48.996  1.00  0.00     0.352 A 
HETATM   33  C   UNL     1      20.818  50.216  47.639  1.00  0.00     0.020 A 
ENDBRANCH  22  25
ENDBRANCH   2  21
TORSDOF 6
ENDMDL
MODEL 6
REMARK VINA RESULT:      -8.7      3.282      8.089
REMARK  6 active torsions:
REMARK  status: ('A' for Active; 'I' for Inactive)
REMARK    1  A    between atoms: C_3  and  C_4 
REMARK    2  A    between atoms: C_4  and  N_5 
REMARK    3  A    between atoms: C_4  and  C_9 
REMARK       I    between atoms: N_5  and  C_6 
REMARK       I    between atoms: C_6  and  N_7 
REMARK    4  A    between atoms: C_9  and  C_10 
REMARK       I    between atoms: C_10  and  N_11 
REMARK    5  A    between atoms: N_11  and  N_12 
REMARK       I    between atoms: N_12  and  C_13 
REMARK    6  A    between atoms: C_13  and  C_14 
ROOT
HETATM    1  C   UNL     1      25.113  43.590  51.933  1.00  0.00     0.238 C 
HETATM    2  N   UNL     1      26.258  42.860  52.153  1.00  0.00    -0.267 N 
HETATM    3  O   UNL     1      24.714  44.430  52.738  1.00  0.00    -0.272 OA
HETATM    4  H   UNL     1      26.612  42.118  51.551  1.00  0.00     0.190 HD
ENDROOT
BRANCH   1   5
HETATM    5  C   UNL     1      24.379  43.265  50.654  1.00  0.00     0.134 C 
BRANCH   5   6
HETATM    6  C   UNL     1      25.054  43.866  49.412  1.00  0.00     0.129 C 
BRANCH   6   7
HETATM    7  C   UNL     1      25.098  45.389  49.457  1.00  0.00    -0.013 A 
HETATM    8  C   UNL     1      26.305  46.067  49.726  1.00  0.00     0.011 A 
HETATM    9  C   UNL     1      26.355  47.461  49.800  1.00  0.00     0.001 A 
HETATM   10  C   UNL     1      25.201  48.213  49.608  1.00  0.00     0.002 A 
HETATM   11  C   UNL     1      23.994  47.568  49.353  1.00  0.00     0.024 A 
HETATM   12  C   UNL     1      23.938  46.171  49.285  1.00  0.00     0.042 A 
HETATM   13 CL   UNL     1      22.380  45.470  49.008  1.00  0.00    -0.084 Cl
ENDBRANCH   6   7
BRANCH   6  14
HETATM   14  N   UNL     1      26.363  43.274  49.131  1.00  0.00    -0.339 N 
HETATM   15  C   UNL     1      26.618  42.123  48.469  1.00  0.00     0.292 C 
HETATM   16  N   UNL     1      25.635  41.626  47.693  1.00  0.00    -0.254 NA
HETATM   17  O   UNL     1      27.694  41.548  48.569  1.00  0.00    -0.254 OA
HETATM   18  H   UNL     1      25.141  42.290  47.117  1.00  0.00     0.128 HD
HETATM   19  H   UNL     1      25.937  40.805  47.182  1.00  0.00     0.128 HD
HETATM   20  H   UNL     1      27.114  43.467  49.782  1.00  0.00     0.164 HD
ENDBRANCH   6  14
ENDBRANCH   5   6
ENDBRANCH   1   5
BRANCH   2  21
HETATM   21  N   UNL     1      27.001  43.153  53.299  1.00  0.00    -0.263 N 
HETATM   22  C   UNL     1      28.360  43.351  53.174  1.00  0.00     0.270 C 
HETATM   23  O   UNL     1      28.948  43.198  52.105  1.00  0.00    -0.266 OA
HETATM   24  H   UNL     1      26.474  43.207  54.168  1.00  0.00     0.190 HD
BRANCH  22  25
HETATM   25  C   UNL     1      29.102  43.754  54.404  1.00  0.00     0.036 A 
HETATM   26  C   UNL     1      28.740  44.876  55.166  1.00  0.00     0.057 A 
HETATM   27  C   UNL     1      29.509  45.174  56.273  1.00  0.00     0.106 A 
HETATM   28  C   UNL     1      30.599  44.418  56.633  1.00  0.00     0.105 A 
HETATM   29  O   UNL     1      29.304  46.222  57.116  1.00  0.00    -0.323 OA
HETATM   30  O   UNL     1      31.215  44.894  57.748  1.00  0.00    -0.323 OA
HETATM   31  C   UNL     1      30.988  43.317  55.904  1.00  0.00     0.041 A 
HETATM   32  C   UNL     1      30.392  46.042  58.046  1.00  0.00     0.352 A 
HETATM   33  C   UNL     1      30.229  42.986  54.776  1.00  0.00     0.020 A 
ENDBRANCH  22  25
ENDBRANCH   2  21
TORSDOF 6
ENDMDL
MODEL 7
REMARK VINA RESULT:      -8.6      4.555      8.380
REMARK  6 active torsions:
REMARK  status: ('A' for Active; 'I' for Inactive)
REMARK    1  A    between atoms: C_3  and  C_4 
REMARK    2  A    between atoms: C_4  and  N_5 
REMARK    3  A    between atoms: C_4  and  C_9 
REMARK       I    between atoms: N_5  and  C_6 
REMARK       I    between atoms: C_6  and  N_7 
REMARK    4  A    between atoms: C_9  and  C_10 
REMARK       I    between atoms: C_10  and  N_11 
REMARK    5  A    between atoms: N_11  and  N_12 
REMARK       I    between atoms: N_12  and  C_13 
REMARK    6  A    between atoms: C_13  and  C_14 
ROOT
HETATM    1  C   UNL     1      28.128  41.102  52.184  1.00  0.00     0.238 C 
HETATM    2  N   UNL     1      29.081  40.458  51.429  1.00  0.00    -0.267 N 
HETATM    3  O   UNL     1      26.946  41.136  51.847  1.00  0.00    -0.272 OA
HETATM    4  H   UNL     1      30.079  40.437  51.628  1.00  0.00     0.190 HD
ENDROOT
BRANCH   1   5
HETATM    5  C   UNL     1      28.646  41.777  53.432  1.00  0.00     0.134 C 
BRANCH   5   6
HETATM    6  C   UNL     1      28.329  43.280  53.470  1.00  0.00     0.129 C 
BRANCH   6   7
HETATM    7  C   UNL     1      29.126  44.013  54.544  1.00  0.00    -0.013 A 
HETATM    8  C   UNL     1      30.329  43.471  55.043  1.00  0.00     0.011 A 
HETATM    9  C   UNL     1      31.055  44.117  56.047  1.00  0.00     0.001 A 
HETATM   10  C   UNL     1      30.596  45.318  56.579  1.00  0.00     0.002 A 
HETATM   11  C   UNL     1      29.406  45.868  56.112  1.00  0.00     0.024 A 
HETATM   12  C   UNL     1      28.672  45.220  55.111  1.00  0.00     0.042 A 
HETATM   13 CL   UNL     1      27.184  45.966  54.636  1.00  0.00    -0.084 Cl
ENDBRANCH   6   7
BRANCH   6  14
HETATM   14  N   UNL     1      28.434  43.920  52.158  1.00  0.00    -0.339 N 
HETATM   15  C   UNL     1      27.425  44.234  51.315  1.00  0.00     0.292 C 
HETATM   16  N   UNL     1      26.182  44.290  51.833  1.00  0.00    -0.254 NA
HETATM   17  O   UNL     1      27.623  44.454  50.127  1.00  0.00    -0.254 OA
HETATM   18  H   UNL     1      26.090  44.758  52.722  1.00  0.00     0.128 HD
HETATM   19  H   UNL     1      25.503  44.601  51.149  1.00  0.00     0.128 HD
HETATM   20  H   UNL     1      29.285  43.770  51.630  1.00  0.00     0.164 HD
ENDBRANCH   6  14
ENDBRANCH   5   6
ENDBRANCH   1   5
BRANCH   2  21
HETATM   21  N   UNL     1      28.649  39.777  50.288  1.00  0.00    -0.263 N 
HETATM   22  C   UNL     1      29.056  38.474  50.103  1.00  0.00     0.270 C 
HETATM   23  O   UNL     1      29.848  37.920  50.863  1.00  0.00    -0.266 OA
HETATM   24  H   UNL     1      28.044  40.302  49.660  1.00  0.00     0.190 HD
BRANCH  22  25
HETATM   25  C   UNL     1      28.498  37.750  48.922  1.00  0.00     0.036 A 
HETATM   26  C   UNL     1      29.111  37.788  47.660  1.00  0.00     0.057 A 
HETATM   27  C   UNL     1      28.499  37.102  46.629  1.00  0.00     0.106 A 
HETATM   28  C   UNL     1      27.327  36.406  46.807  1.00  0.00     0.105 A 
HETATM   29  O   UNL     1      28.951  37.037  45.348  1.00  0.00    -0.323 OA
HETATM   30  O   UNL     1      26.896  35.814  45.662  1.00  0.00    -0.323 OA
HETATM   31  C   UNL     1      26.694  36.355  48.029  1.00  0.00     0.041 A 
HETATM   32  C   UNL     1      27.928  36.224  44.738  1.00  0.00     0.352 A 
HETATM   33  C   UNL     1      27.289  37.038  49.096  1.00  0.00     0.020 A 
ENDBRANCH  22  25
ENDBRANCH   2  21
TORSDOF 6
ENDMDL
MODEL 8
REMARK VINA RESULT:      -8.5      3.032      4.464
REMARK  6 active torsions:
REMARK  status: ('A' for Active; 'I' for Inactive)
REMARK    1  A    between atoms: C_3  and  C_4 
REMARK    2  A    between atoms: C_4  and  N_5 
REMARK    3  A    between atoms: C_4  and  C_9 
REMARK       I    between atoms: N_5  and  C_6 
REMARK       I    between atoms: C_6  and  N_7 
REMARK    4  A    between atoms: C_9  and  C_10 
REMARK       I    between atoms: C_10  and  N_11 
REMARK    5  A    between atoms: N_11  and  N_12 
REMARK       I    between atoms: N_12  and  C_13 
REMARK    6  A    between atoms: C_13  and  C_14 
ROOT
HETATM    1  C   UNL     1      25.203  46.992  50.809  1.00  0.00     0.238 C 
HETATM    2  N   UNL     1      24.415  47.182  49.697  1.00  0.00    -0.267 N 
HETATM    3  O   UNL     1      24.937  47.516  51.889  1.00  0.00    -0.272 OA
HETATM    4  H   UNL     1      24.608  46.817  48.765  1.00  0.00     0.190 HD
ENDROOT
BRANCH   1   5
HETATM    5  C   UNL     1      26.418  46.122  50.594  1.00  0.00     0.134 C 
BRANCH   5   6
HETATM    6  C   UNL     1      26.323  44.777  51.329  1.00  0.00     0.129 C 
BRANCH   6   7
HETATM    7  C   UNL     1      27.125  44.767  52.626  1.00  0.00    -0.013 A 
HETATM    8  C   UNL     1      26.901  45.743  53.618  1.00  0.00     0.011 A 
HETATM    9  C   UNL     1      27.649  45.764  54.798  1.00  0.00     0.001 A 
HETATM   10  C   UNL     1      28.640  44.813  55.016  1.00  0.00     0.002 A 
HETATM   11  C   UNL     1      28.889  43.845  54.046  1.00  0.00     0.024 A 
HETATM   12  C   UNL     1      28.147  43.824  52.860  1.00  0.00     0.042 A 
HETATM   13 CL   UNL     1      28.569  42.608  51.704  1.00  0.00    -0.084 Cl
ENDBRANCH   6   7
BRANCH   6  14
HETATM   14  N   UNL     1      24.944  44.325  51.519  1.00  0.00    -0.339 N 
HETATM   15  C   UNL     1      24.413  43.135  51.159  1.00  0.00     0.292 C 
HETATM   16  N   UNL     1      25.271  42.126  50.912  1.00  0.00    -0.254 NA
HETATM   17  O   UNL     1      23.204  42.974  51.054  1.00  0.00    -0.254 OA
HETATM   18  H   UNL     1      26.032  42.017  51.564  1.00  0.00     0.128 HD
HETATM   19  H   UNL     1      24.785  41.257  50.720  1.00  0.00     0.128 HD
HETATM   20  H   UNL     1      24.218  45.031  51.537  1.00  0.00     0.164 HD
ENDBRANCH   6  14
ENDBRANCH   5   6
ENDBRANCH   1   5
BRANCH   2  21
HETATM   21  N   UNL     1      23.252  47.940  49.851  1.00  0.00    -0.263 N 
HETATM   22  C   UNL     1      22.369  48.019  48.795  1.00  0.00     0.270 C 
HETATM   23  O   UNL     1      22.609  47.511  47.701  1.00  0.00    -0.266 OA
HETATM   24  H   UNL     1      23.132  48.389  50.756  1.00  0.00     0.190 HD
BRANCH  22  25
HETATM   25  C   UNL     1      21.095  48.760  49.031  1.00  0.00     0.036 A 
HETATM   26  C   UNL     1      21.040  50.162  49.078  1.00  0.00     0.057 A 
HETATM   27  C   UNL     1      19.814  50.747  49.325  1.00  0.00     0.106 A 
HETATM   28  C   UNL     1      18.675  50.004  49.528  1.00  0.00     0.105 A 
HETATM   29  O   UNL     1      19.582  52.085  49.410  1.00  0.00    -0.323 OA
HETATM   30  O   UNL     1      17.584  50.781  49.762  1.00  0.00    -0.323 OA
HETATM   31  C   UNL     1      18.694  48.628  49.496  1.00  0.00     0.041 A 
HETATM   32  C   UNL     1      18.167  52.100  49.693  1.00  0.00     0.352 A 
HETATM   33  C   UNL     1      19.921  48.003  49.246  1.00  0.00     0.020 A 
ENDBRANCH  22  25
ENDBRANCH   2  21
TORSDOF 6
ENDMDL
MODEL 9
REMARK VINA RESULT:      -8.5      5.992      9.291
REMARK  6 active torsions:
REMARK  status: ('A' for Active; 'I' for Inactive)
REMARK    1  A    between atoms: C_3  and  C_4 
REMARK    2  A    between atoms: C_4  and  N_5 
REMARK    3  A    between atoms: C_4  and  C_9 
REMARK       I    between atoms: N_5  and  C_6 
REMARK       I    between atoms: C_6  and  N_7 
REMARK    4  A    between atoms: C_9  and  C_10 
REMARK       I    between atoms: C_10  and  N_11 
REMARK    5  A    between atoms: N_11  and  N_12 
REMARK       I    between atoms: N_12  and  C_13 
REMARK    6  A    between atoms: C_13  and  C_14 
ROOT
HETATM    1  C   UNL     1      27.592  40.277  50.503  1.00  0.00     0.238 C 
HETATM    2  N   UNL     1      27.126  40.420  51.789  1.00  0.00    -0.267 N 
HETATM    3  O   UNL     1      28.636  40.809  50.128  1.00  0.00    -0.272 OA
HETATM    4  H   UNL     1      26.247  40.047  52.145  1.00  0.00     0.190 HD
ENDROOT
BRANCH   1   5
HETATM    5  C   UNL     1      26.719  39.448  49.591  1.00  0.00     0.134 C 
BRANCH   5   6
HETATM    6  C   UNL     1      27.511  38.385  48.815  1.00  0.00     0.129 C 
BRANCH   6   7
HETATM    7  C   UNL     1      27.613  38.708  47.329  1.00  0.00    -0.013 A 
HETATM    8  C   UNL     1      27.815  40.034  46.892  1.00  0.00     0.011 A 
HETATM    9  C   UNL     1      27.880  40.349  45.532  1.00  0.00     0.001 A 
HETATM   10  C   UNL     1      27.744  39.349  44.576  1.00  0.00     0.002 A 
HETATM   11  C   UNL     1      27.532  38.034  44.980  1.00  0.00     0.024 A 
HETATM   12  C   UNL     1      27.458  37.715  46.341  1.00  0.00     0.042 A 
HETATM   13 CL   UNL     1      27.146  36.058  46.732  1.00  0.00    -0.084 Cl
ENDBRANCH   6   7
BRANCH   6  14
HETATM   14  N   UNL     1      28.813  38.091  49.416  1.00  0.00    -0.339 N 
HETATM   15  C   UNL     1      29.083  37.194  50.391  1.00  0.00     0.292 C 
HETATM   16  N   UNL     1      28.167  36.232  50.617  1.00  0.00    -0.254 NA
HETATM   17  O   UNL     1      30.113  37.250  51.050  1.00  0.00    -0.254 OA
HETATM   18  H   UNL     1      27.771  35.793  49.799  1.00  0.00     0.128 HD
HETATM   19  H   UNL     1      28.484  35.566  51.311  1.00  0.00     0.128 HD
HETATM   20  H   UNL     1      29.498  38.836  49.439  1.00  0.00     0.164 HD
ENDBRANCH   6  14
ENDBRANCH   5   6
ENDBRANCH   1   5
BRANCH   2  21
HETATM   21  N   UNL     1      27.918  41.138  52.688  1.00  0.00    -0.263 N 
HETATM   22  C   UNL     1      27.648  42.475  52.885  1.00  0.00     0.270 C 
HETATM   23  O   UNL     1      26.789  43.072  52.238  1.00  0.00    -0.266 OA
HETATM   24  H   UNL     1      28.654  40.610  53.151  1.00  0.00     0.190 HD
BRANCH  22  25
HETATM   25  C   UNL     1      28.455  43.184  53.921  1.00  0.00     0.036 A 
HETATM   26  C   UNL     1      27.961  44.290  54.631  1.00  0.00     0.057 A 
HETATM   27  C   UNL     1      28.799  44.887  55.552  1.00  0.00     0.106 A 
HETATM   28  C   UNL     1      30.078  44.436  55.779  1.00  0.00     0.105 A 
HETATM   29  O   UNL     1      28.485  45.965  56.319  1.00  0.00    -0.323 OA
HETATM   30  O   UNL     1      30.728  45.173  56.718  1.00  0.00    -0.323 OA
HETATM   31  C   UNL     1      30.598  43.360  55.095  1.00  0.00     0.041 A 
HETATM   32  C   UNL     1      29.715  46.145  57.053  1.00  0.00     0.352 A 
HETATM   33  C   UNL     1      29.774  42.731  54.155  1.00  0.00     0.020 A 
ENDBRANCH  22  25
ENDBRANCH   2  21
TORSDOF 6
ENDMDL
MODEL 10
REMARK VINA RESULT:      -8.4      5.722      9.517
REMARK  6 active torsions:
REMARK  status: ('A' for Active; 'I' for Inactive)
REMARK    1  A    between atoms: C_3  and  C_4 
REMARK    2  A    between atoms: C_4  and  N_5 
REMARK    3  A    between atoms: C_4  and  C_9 
REMARK       I    between atoms: N_5  and  C_6 
REMARK       I    between atoms: C_6  and  N_7 
REMARK    4  A    between atoms: C_9  and  C_10 
REMARK       I    between atoms: C_10  and  N_11 
REMARK    5  A    between atoms: N_11  and  N_12 
REMARK       I    between atoms: N_12  and  C_13 
REMARK    6  A    between atoms: C_13  and  C_14 
ROOT
HETATM    1  C   UNL     1      27.390  40.276  50.518  1.00  0.00     0.238 C 
HETATM    2  N   UNL     1      26.961  40.452  51.813  1.00  0.00    -0.267 N 
HETATM    3  O   UNL     1      28.411  40.816  50.094  1.00  0.00    -0.272 OA
HETATM    4  H   UNL     1      26.101  40.074  52.208  1.00  0.00     0.190 HD
ENDROOT
BRANCH   1   5
HETATM    5  C   UNL     1      26.507  39.401  49.661  1.00  0.00     0.134 C 
BRANCH   5   6
HETATM    6  C   UNL     1      27.246  38.175  49.103  1.00  0.00     0.129 C 
BRANCH   6   7
HETATM    7  C   UNL     1      27.153  38.085  47.584  1.00  0.00    -0.013 A 
HETATM    8  C   UNL     1      27.859  38.990  46.765  1.00  0.00     0.011 A 
HETATM    9  C   UNL     1      27.760  38.938  45.371  1.00  0.00     0.001 A 
HETATM   10  C   UNL     1      26.953  37.982  44.763  1.00  0.00     0.002 A 
HETATM   11  C   UNL     1      26.236  37.085  45.550  1.00  0.00     0.024 A 
HETATM   12  C   UNL     1      26.327  37.138  46.946  1.00  0.00     0.042 A 
HETATM   13 CL   UNL     1      25.359  36.007  47.828  1.00  0.00    -0.084 Cl
ENDBRANCH   6   7
BRANCH   6  14
HETATM   14  N   UNL     1      28.623  38.068  49.589  1.00  0.00    -0.339 N 
HETATM   15  C   UNL     1      29.105  37.198  50.504  1.00  0.00     0.292 C 
HETATM   16  N   UNL     1      28.366  36.101  50.762  1.00  0.00    -0.254 NA
HETATM   17  O   UNL     1      30.166  37.394  51.083  1.00  0.00    -0.254 OA
HETATM   18  H   UNL     1      27.975  35.628  49.961  1.00  0.00     0.128 HD
HETATM   19  H   UNL     1      28.836  35.473  51.403  1.00  0.00     0.128 HD
HETATM   20  H   UNL     1      29.187  38.909  49.588  1.00  0.00     0.164 HD
ENDBRANCH   6  14
ENDBRANCH   5   6
ENDBRANCH   1   5
BRANCH   2  21
HETATM   21  N   UNL     1      27.765  41.215  52.662  1.00  0.00    -0.263 N 
HETATM   22  C   UNL     1      27.461  42.547  52.841  1.00  0.00     0.270 C 
HETATM   23  O   UNL     1      26.558  43.103  52.218  1.00  0.00    -0.266 OA
HETATM   24  H   UNL     1      28.536  40.721  53.106  1.00  0.00     0.190 HD
BRANCH  22  25
HETATM   25  C   UNL     1      28.286  43.305  53.828  1.00  0.00     0.036 A 
HETATM   26  C   UNL     1      29.386  42.731  54.485  1.00  0.00     0.057 A 
HETATM   27  C   UNL     1      30.068  43.512  55.397  1.00  0.00     0.106 A 
HETATM   28  C   UNL     1      29.697  44.807  55.674  1.00  0.00     0.105 A 
HETATM   29  O   UNL     1      31.147  43.116  56.123  1.00  0.00    -0.323 OA
HETATM   30  O   UNL     1      30.498  45.387  56.606  1.00  0.00    -0.323 OA
HETATM   31  C   UNL     1      28.618  45.399  55.054  1.00  0.00     0.041 A 
HETATM   32  C   UNL     1      31.412  44.308  56.892  1.00  0.00     0.352 A 
HETATM   33  C   UNL     1      27.907  44.634  54.123  1.00  0.00     0.020 A 
ENDBRANCH  22  25
ENDBRANCH   2  21
TORSDOF 6
ENDMDL
