MODEL 1
REMARK VINA RESULT:      -9.3      0.000      0.000
REMARK  6 active torsions:
REMARK  status: ('A' for Active; 'I' for Inactive)
REMARK    1  A    between atoms: C_2  and  N_3 
REMARK    2  A    between atoms: C_11  and  C_12 
REMARK    3  A    between atoms: C_14  and  C_15 
REMARK    4  A    between atoms: C_15  and  O_16 
REMARK    5  A    between atoms: O_16  and  C_17 
REMARK    6  A    between atoms: C_25  and  O_26 
ROOT
HETATM    1  N   UNL     1      15.489  52.486  47.671  1.00  0.00    -0.067 N 
HETATM    2  H   UNL     1      14.898  51.659  47.829  1.00  0.00     0.280 HD
HETATM    3  C   UNL     1      16.540  52.062  46.642  1.00  0.00     0.281 C 
HETATM    4  C   UNL     1      17.481  51.072  47.239  1.00  0.00     0.018 A 
HETATM    5  C   UNL     1      17.622  50.821  48.590  1.00  0.00    -0.023 A 
HETATM    6  C   UNL     1      18.569  49.772  48.826  1.00  0.00     0.073 A 
HETATM    7  C   UNL     1      19.129  49.317  47.657  1.00  0.00     0.088 A 
HETATM    8  N   UNL     1      20.040  48.329  47.604  1.00  0.00    -0.358 N 
HETATM    9  C   UNL     1      20.616  47.779  48.809  1.00  0.00     0.219 C 
HETATM   10  N   UNL     1      19.875  48.154  49.990  1.00  0.00    -0.332 N 
HETATM   11  C   UNL     1      18.964  49.165  50.081  1.00  0.00     0.256 C 
HETATM   12  O   UNL     1      18.499  49.519  51.159  1.00  0.00    -0.267 OA
HETATM   13  S   UNL     1      18.527  50.126  46.287  1.00  0.00    -0.074 SA
HETATM   14  C   UNL     1      16.810  51.555  49.614  1.00  0.00     0.068 C 
HETATM   15  C   UNL     1      16.145  52.808  49.017  1.00  0.00     0.240 C 
HETATM   16  H   UNL     1      20.555  48.141  46.748  1.00  0.00     0.162 HD
HETATM   17  H   UNL     1      20.172  47.764  50.871  1.00  0.00     0.165 HD
ENDROOT
BRANCH   9  18
HETATM   18  C   UNL     1      22.083  48.146  48.915  1.00  0.00    -0.016 A 
HETATM   19  C   UNL     1      23.028  47.166  49.260  1.00  0.00     0.023 A 
HETATM   20  C   UNL     1      24.398  47.475  49.386  1.00  0.00    -0.000 A 
HETATM   21  C   UNL     1      24.832  48.792  49.154  1.00  0.00     0.076 A 
HETATM   22  C   UNL     1      23.900  49.765  48.784  1.00  0.00     0.038 A 
HETATM   23  C   UNL     1      22.543  49.445  48.662  1.00  0.00     0.014 A 
BRANCH  20  24
HETATM   24  C   UNL     1      25.367  46.373  49.761  1.00  0.00     0.217 C 
BRANCH  24  25
HETATM   25  O   UNL     1      24.911  45.771  50.975  1.00  0.00    -0.347 OA
BRANCH  25  26
HETATM   26  C   UNL     1      25.639  46.018  52.106  1.00  0.00     0.070 A 
HETATM   27  C   UNL     1      26.519  44.991  52.465  1.00  0.00     0.063 A 
HETATM   28  C   UNL     1      27.323  45.116  53.598  1.00  0.00     0.075 A 
HETATM   29 CL   UNL     1      28.398  43.840  54.019  1.00  0.00    -0.081 Cl
HETATM   30  C   UNL     1      27.249  46.269  54.375  1.00  0.00     0.138 A 
HETATM   31  F   UNL     1      28.013  46.414  55.466  1.00  0.00    -0.204 F 
HETATM   32  C   UNL     1      26.375  47.295  54.029  1.00  0.00     0.047 A 
HETATM   33  C   UNL     1      25.566  47.169  52.895  1.00  0.00     0.040 A 
ENDBRANCH  25  26
ENDBRANCH  24  25
ENDBRANCH  20  24
BRANCH  21  34
HETATM   34  O   UNL     1      26.172  49.020  49.307  1.00  0.00    -0.355 OA
HETATM   35  C   UNL     1      26.797  49.927  48.407  1.00  0.00     0.210 C 
ENDBRANCH  21  34
ENDBRANCH   9  18
BRANCH   1  36
HETATM   36  C   UNL     1      14.603  53.609  47.193  1.00  0.00     0.231 C 
HETATM   37  C   UNL     1      14.065  54.408  48.366  1.00  0.00     0.034 C 
ENDBRANCH   1  36
TORSDOF 6
ENDMDL
MODEL 2
REMARK VINA RESULT:      -9.3      5.441     11.445
REMARK  6 active torsions:
REMARK  status: ('A' for Active; 'I' for Inactive)
REMARK    1  A    between atoms: C_2  and  N_3 
REMARK    2  A    between atoms: C_11  and  C_12 
REMARK    3  A    between atoms: C_14  and  C_15 
REMARK    4  A    between atoms: C_15  and  O_16 
REMARK    5  A    between atoms: O_16  and  C_17 
REMARK    6  A    between atoms: C_25  and  O_26 
ROOT
HETATM    1  N   UNL     1      30.305  43.265  55.594  1.00  0.00    -0.067 N 
HETATM    2  H   UNL     1      29.639  42.509  55.802  1.00  0.00     0.280 HD
HETATM    3  C   UNL     1      29.538  44.573  55.799  1.00  0.00     0.281 C 
HETATM    4  C   UNL     1      28.493  44.732  54.748  1.00  0.00     0.018 A 
HETATM    5  C   UNL     1      28.432  44.013  53.569  1.00  0.00    -0.023 A 
HETATM    6  C   UNL     1      27.274  44.368  52.805  1.00  0.00     0.073 A 
HETATM    7  C   UNL     1      26.546  45.362  53.413  1.00  0.00     0.088 A 
HETATM    8  N   UNL     1      25.409  45.868  52.903  1.00  0.00    -0.358 N 
HETATM    9  C   UNL     1      24.954  45.501  51.582  1.00  0.00     0.219 C 
HETATM   10  N   UNL     1      25.640  44.339  51.071  1.00  0.00    -0.332 N 
HETATM   11  C   UNL     1      26.806  43.817  51.550  1.00  0.00     0.256 C 
HETATM   12  O   UNL     1      27.403  42.925  50.958  1.00  0.00    -0.267 OA
HETATM   13  S   UNL     1      27.231  45.865  54.886  1.00  0.00    -0.074 SA
HETATM   14  C   UNL     1      29.456  42.971  53.232  1.00  0.00     0.068 C 
HETATM   15  C   UNL     1      30.704  43.092  54.125  1.00  0.00     0.240 C 
HETATM   16  H   UNL     1      24.997  46.714  53.288  1.00  0.00     0.162 HD
HETATM   17  H   UNL     1      25.343  43.977  50.179  1.00  0.00     0.165 HD
ENDROOT
BRANCH   9  18
HETATM   18  C   UNL     1      25.051  46.683  50.638  1.00  0.00    -0.016 A 
HETATM   19  C   UNL     1      23.887  47.220  50.064  1.00  0.00     0.023 A 
HETATM   20  C   UNL     1      23.941  48.307  49.167  1.00  0.00    -0.000 A 
HETATM   21  C   UNL     1      25.186  48.873  48.844  1.00  0.00     0.076 A 
HETATM   22  C   UNL     1      26.345  48.361  49.433  1.00  0.00     0.038 A 
HETATM   23  C   UNL     1      26.278  47.282  50.322  1.00  0.00     0.014 A 
BRANCH  20  24
HETATM   24  C   UNL     1      22.649  48.840  48.582  1.00  0.00     0.217 C 
BRANCH  24  25
HETATM   25  O   UNL     1      22.198  49.919  49.403  1.00  0.00    -0.347 OA
BRANCH  25  26
HETATM   26  C   UNL     1      21.008  50.504  49.066  1.00  0.00     0.070 A 
HETATM   27  C   UNL     1      20.613  50.295  47.741  1.00  0.00     0.063 A 
HETATM   28  C   UNL     1      19.416  50.835  47.269  1.00  0.00     0.075 A 
HETATM   29 CL   UNL     1      18.950  50.562  45.635  1.00  0.00    -0.081 Cl
HETATM   30  C   UNL     1      18.613  51.587  48.121  1.00  0.00     0.138 A 
HETATM   31  F   UNL     1      17.458  52.115  47.692  1.00  0.00    -0.204 F 
HETATM   32  C   UNL     1      18.999  51.806  49.440  1.00  0.00     0.047 A 
HETATM   33  C   UNL     1      20.200  51.267  49.913  1.00  0.00     0.040 A 
ENDBRANCH  25  26
ENDBRANCH  24  25
ENDBRANCH  20  24
BRANCH  21  34
HETATM   34  O   UNL     1      25.162  49.915  47.958  1.00  0.00    -0.355 OA
HETATM   35  C   UNL     1      26.332  50.717  47.845  1.00  0.00     0.210 C 
ENDBRANCH  21  34
ENDBRANCH   9  18
BRANCH   1  36
HETATM   36  C   UNL     1      31.487  43.113  56.519  1.00  0.00     0.231 C 
HETATM   37  C   UNL     1      31.418  44.119  57.653  1.00  0.00     0.034 C 
ENDBRANCH   1  36
TORSDOF 6
ENDMDL
MODEL 3
REMARK VINA RESULT:      -9.1      5.196     10.857
REMARK  6 active torsions:
REMARK  status: ('A' for Active; 'I' for Inactive)
REMARK    1  A    between atoms: C_2  and  N_3 
REMARK    2  A    between atoms: C_11  and  C_12 
REMARK    3  A    between atoms: C_14  and  C_15 
REMARK    4  A    between atoms: C_15  and  O_16 
REMARK    5  A    between atoms: O_16  and  C_17 
REMARK    6  A    between atoms: C_25  and  O_26 
ROOT
HETATM    1  N   UNL     1      29.665  43.079  54.514  1.00  0.00    -0.067 N 
HETATM    2  H   UNL     1      29.212  42.156  54.519  1.00  0.00     0.280 HD
HETATM    3  C   UNL     1      28.575  44.086  54.887  1.00  0.00     0.281 C 
HETATM    4  C   UNL     1      27.567  44.189  53.794  1.00  0.00     0.018 A 
HETATM    5  C   UNL     1      27.742  43.729  52.503  1.00  0.00    -0.023 A 
HETATM    6  C   UNL     1      26.562  43.932  51.717  1.00  0.00     0.073 A 
HETATM    7  C   UNL     1      25.576  44.570  52.430  1.00  0.00     0.088 A 
HETATM    8  N   UNL     1      24.367  44.869  51.923  1.00  0.00    -0.358 N 
HETATM    9  C   UNL     1      24.075  44.674  50.522  1.00  0.00     0.219 C 
HETATM   10  N   UNL     1      25.060  43.846  49.868  1.00  0.00    -0.332 N 
HETATM   11  C   UNL     1      26.302  43.545  50.345  1.00  0.00     0.256 C 
HETATM   12  O   UNL     1      27.135  42.967  49.654  1.00  0.00    -0.267 OA
HETATM   13  S   UNL     1      26.048  44.921  54.026  1.00  0.00    -0.074 SA
HETATM   14  C   UNL     1      29.014  43.064  52.072  1.00  0.00     0.068 C 
HETATM   15  C   UNL     1      30.151  43.310  53.080  1.00  0.00     0.240 C 
HETATM   16  H   UNL     1      23.734  45.491  52.419  1.00  0.00     0.162 HD
HETATM   17  H   UNL     1      24.903  43.608  48.901  1.00  0.00     0.165 HD
ENDROOT
BRANCH   9  18
HETATM   18  C   UNL     1      23.897  46.008  49.823  1.00  0.00    -0.016 A 
HETATM   19  C   UNL     1      22.807  46.207  48.959  1.00  0.00     0.023 A 
HETATM   20  C   UNL     1      22.620  47.428  48.279  1.00  0.00    -0.000 A 
HETATM   21  C   UNL     1      23.538  48.473  48.474  1.00  0.00     0.076 A 
HETATM   22  C   UNL     1      24.608  48.291  49.353  1.00  0.00     0.038 A 
HETATM   23  C   UNL     1      24.783  47.075  50.023  1.00  0.00     0.014 A 
BRANCH  20  24
HETATM   24  C   UNL     1      21.425  47.579  47.360  1.00  0.00     0.217 C 
BRANCH  24  25
HETATM   25  O   UNL     1      20.243  47.305  48.114  1.00  0.00    -0.347 OA
BRANCH  25  26
HETATM   26  C   UNL     1      19.664  48.355  48.771  1.00  0.00     0.070 A 
HETATM   27  C   UNL     1      19.792  49.588  48.122  1.00  0.00     0.063 A 
HETATM   28  C   UNL     1      19.243  50.741  48.684  1.00  0.00     0.075 A 
HETATM   29 CL   UNL     1      19.413  52.245  47.865  1.00  0.00    -0.081 Cl
HETATM   30  C   UNL     1      18.566  50.664  49.897  1.00  0.00     0.138 A 
HETATM   31  F   UNL     1      18.029  51.757  50.457  1.00  0.00    -0.204 F 
HETATM   32  C   UNL     1      18.437  49.444  50.554  1.00  0.00     0.047 A 
HETATM   33  C   UNL     1      18.989  48.288  49.993  1.00  0.00     0.040 A 
ENDBRANCH  25  26
ENDBRANCH  24  25
ENDBRANCH  20  24
BRANCH  21  34
HETATM   34  O   UNL     1      23.299  49.624  47.771  1.00  0.00    -0.355 OA
HETATM   35  C   UNL     1      24.382  50.529  47.593  1.00  0.00     0.210 C 
ENDBRANCH  21  34
ENDBRANCH   9  18
BRANCH   1  36
HETATM   36  C   UNL     1      30.808  43.043  55.497  1.00  0.00     0.231 C 
HETATM   37  C   UNL     1      30.839  44.307  56.337  1.00  0.00     0.034 C 
ENDBRANCH   1  36
TORSDOF 6
ENDMDL
MODEL 4
REMARK VINA RESULT:      -8.8     12.002     14.652
REMARK  6 active torsions:
REMARK  status: ('A' for Active; 'I' for Inactive)
REMARK    1  A    between atoms: C_2  and  N_3 
REMARK    2  A    between atoms: C_11  and  C_12 
REMARK    3  A    between atoms: C_14  and  C_15 
REMARK    4  A    between atoms: C_15  and  O_16 
REMARK    5  A    between atoms: O_16  and  C_17 
REMARK    6  A    between atoms: C_25  and  O_26 
ROOT
HETATM    1  N   UNL     1      34.458  52.063  41.380  1.00  0.00    -0.067 N 
HETATM    2  H   UNL     1      34.272  53.071  41.307  1.00  0.00     0.280 HD
HETATM    3  C   UNL     1      34.143  51.475  40.002  1.00  0.00     0.281 C 
HETATM    4  C   UNL     1      32.679  51.539  39.733  1.00  0.00     0.018 A 
HETATM    5  C   UNL     1      31.702  51.763  40.685  1.00  0.00    -0.023 A 
HETATM    6  C   UNL     1      30.401  51.821  40.089  1.00  0.00     0.073 A 
HETATM    7  C   UNL     1      30.449  51.595  38.735  1.00  0.00     0.088 A 
HETATM    8  N   UNL     1      29.363  51.604  37.941  1.00  0.00    -0.358 N 
HETATM    9  C   UNL     1      28.033  51.702  38.495  1.00  0.00     0.219 C 
HETATM   10  N   UNL     1      28.046  52.116  39.877  1.00  0.00    -0.332 N 
HETATM   11  C   UNL     1      29.123  52.094  40.714  1.00  0.00     0.256 C 
HETATM   12  O   UNL     1      29.010  52.312  41.916  1.00  0.00    -0.267 OA
HETATM   13  S   UNL     1      32.031  51.320  38.175  1.00  0.00    -0.074 SA
HETATM   14  C   UNL     1      32.047  51.966  42.130  1.00  0.00     0.068 C 
HETATM   15  C   UNL     1      33.489  51.523  42.436  1.00  0.00     0.240 C 
HETATM   16  H   UNL     1      29.415  51.262  36.985  1.00  0.00     0.162 HD
HETATM   17  H   UNL     1      27.157  52.268  40.327  1.00  0.00     0.165 HD
ENDROOT
BRANCH   9  18
HETATM   18  C   UNL     1      27.276  50.404  38.295  1.00  0.00    -0.016 A 
HETATM   19  C   UNL     1      27.975  49.188  38.218  1.00  0.00     0.023 A 
HETATM   20  C   UNL     1      27.306  47.964  38.015  1.00  0.00    -0.000 A 
HETATM   21  C   UNL     1      25.905  47.956  37.893  1.00  0.00     0.076 A 
HETATM   22  C   UNL     1      25.202  49.158  37.997  1.00  0.00     0.038 A 
HETATM   23  C   UNL     1      25.878  50.367  38.199  1.00  0.00     0.014 A 
BRANCH  20  24
HETATM   24  C   UNL     1      28.117  46.687  37.940  1.00  0.00     0.217 C 
BRANCH  24  25
HETATM   25  O   UNL     1      28.240  46.157  39.262  1.00  0.00    -0.347 OA
BRANCH  25  26
HETATM   26  C   UNL     1      28.787  46.974  40.213  1.00  0.00     0.070 A 
HETATM   27  C   UNL     1      30.174  47.135  40.112  1.00  0.00     0.063 A 
HETATM   28  C   UNL     1      30.857  47.945  41.020  1.00  0.00     0.075 A 
HETATM   29 CL   UNL     1      32.562  48.128  40.874  1.00  0.00    -0.081 Cl
HETATM   30  C   UNL     1      30.155  48.595  42.030  1.00  0.00     0.138 A 
HETATM   31  F   UNL     1      30.789  49.381  42.913  1.00  0.00    -0.204 F 
HETATM   32  C   UNL     1      28.777  48.439  42.143  1.00  0.00     0.047 A 
HETATM   33  C   UNL     1      28.092  47.625  41.236  1.00  0.00     0.040 A 
ENDBRANCH  25  26
ENDBRANCH  24  25
ENDBRANCH  20  24
BRANCH  21  34
HETATM   34  O   UNL     1      25.326  46.734  37.685  1.00  0.00    -0.355 OA
HETATM   35  C   UNL     1      24.359  46.289  38.629  1.00  0.00     0.210 C 
ENDBRANCH  21  34
ENDBRANCH   9  18
BRANCH   1  36
HETATM   36  C   UNL     1      35.897  51.882  41.792  1.00  0.00     0.231 C 
HETATM   37  C   UNL     1      36.169  50.442  42.188  1.00  0.00     0.034 C 
ENDBRANCH   1  36
TORSDOF 6
ENDMDL
MODEL 5
REMARK VINA RESULT:      -8.8      2.237      2.815
REMARK  6 active torsions:
REMARK  status: ('A' for Active; 'I' for Inactive)
REMARK    1  A    between atoms: C_2  and  N_3 
REMARK    2  A    between atoms: C_11  and  C_12 
REMARK    3  A    between atoms: C_14  and  C_15 
REMARK    4  A    between atoms: C_15  and  O_16 
REMARK    5  A    between atoms: O_16  and  C_17 
REMARK    6  A    between atoms: C_25  and  O_26 
ROOT
HETATM    1  N   UNL     1      14.866  49.063  46.655  1.00  0.00    -0.067 N 
HETATM    2  H   UNL     1      14.467  49.488  47.502  1.00  0.00     0.280 HD
HETATM    3  C   UNL     1      15.852  47.998  47.141  1.00  0.00     0.281 C 
HETATM    4  C   UNL     1      17.028  48.639  47.795  1.00  0.00     0.018 A 
HETATM    5  C   UNL     1      17.371  49.973  47.687  1.00  0.00    -0.023 A 
HETATM    6  C   UNL     1      18.522  50.279  48.482  1.00  0.00     0.073 A 
HETATM    7  C   UNL     1      19.019  49.163  49.112  1.00  0.00     0.088 A 
HETATM    8  N   UNL     1      20.090  49.183  49.924  1.00  0.00    -0.358 N 
HETATM    9  C   UNL     1      20.897  50.372  50.068  1.00  0.00     0.219 C 
HETATM   10  N   UNL     1      20.241  51.545  49.542  1.00  0.00    -0.332 N 
HETATM   11  C   UNL     1      19.170  51.557  48.697  1.00  0.00     0.256 C 
HETATM   12  O   UNL     1      18.774  52.593  48.172  1.00  0.00    -0.267 OA
HETATM   13  S   UNL     1      18.118  47.763  48.764  1.00  0.00    -0.074 SA
HETATM   14  C   UNL     1      16.558  50.929  46.866  1.00  0.00     0.068 C 
HETATM   15  C   UNL     1      15.600  50.187  45.917  1.00  0.00     0.240 C 
HETATM   16  H   UNL     1      20.528  48.318  50.228  1.00  0.00     0.162 HD
HETATM   17  H   UNL     1      20.707  52.431  49.655  1.00  0.00     0.165 HD
ENDROOT
BRANCH   9  18
HETATM   18  C   UNL     1      22.269  50.163  49.457  1.00  0.00    -0.016 A 
HETATM   19  C   UNL     1      22.984  48.985  49.725  1.00  0.00     0.023 A 
HETATM   20  C   UNL     1      24.269  48.764  49.189  1.00  0.00    -0.000 A 
HETATM   21  C   UNL     1      24.847  49.741  48.360  1.00  0.00     0.076 A 
HETATM   22  C   UNL     1      24.129  50.904  48.067  1.00  0.00     0.038 A 
HETATM   23  C   UNL     1      22.854  51.111  48.605  1.00  0.00     0.014 A 
BRANCH  20  24
HETATM   24  C   UNL     1      24.990  47.473  49.517  1.00  0.00     0.217 C 
BRANCH  24  25
HETATM   25  O   UNL     1      24.352  46.882  50.651  1.00  0.00    -0.347 OA
BRANCH  25  26
HETATM   26  C   UNL     1      25.162  46.312  51.595  1.00  0.00     0.070 A 
HETATM   27  C   UNL     1      25.557  47.179  52.620  1.00  0.00     0.063 A 
HETATM   28  C   UNL     1      26.382  46.724  53.649  1.00  0.00     0.075 A 
HETATM   29 CL   UNL     1      26.854  47.808  54.900  1.00  0.00    -0.081 Cl
HETATM   30  C   UNL     1      26.815  45.401  53.654  1.00  0.00     0.138 A 
HETATM   31  F   UNL     1      27.607  44.939  54.632  1.00  0.00    -0.204 F 
HETATM   32  C   UNL     1      26.432  44.532  52.638  1.00  0.00     0.047 A 
HETATM   33  C   UNL     1      25.608  44.988  51.604  1.00  0.00     0.040 A 
ENDBRANCH  25  26
ENDBRANCH  24  25
ENDBRANCH  20  24
BRANCH  21  34
HETATM   34  O   UNL     1      26.101  49.465  47.887  1.00  0.00    -0.355 OA
HETATM   35  C   UNL     1      27.207  50.079  48.538  1.00  0.00     0.210 C 
ENDBRANCH  21  34
ENDBRANCH   9  18
BRANCH   1  36
HETATM   36  C   UNL     1      13.732  48.499  45.837  1.00  0.00     0.231 C 
HETATM   37  C   UNL     1      13.474  49.355  44.610  1.00  0.00     0.034 C 
ENDBRANCH   1  36
TORSDOF 6
ENDMDL
MODEL 6
REMARK VINA RESULT:      -8.7      7.120      9.898
REMARK  6 active torsions:
REMARK  status: ('A' for Active; 'I' for Inactive)
REMARK    1  A    between atoms: C_2  and  N_3 
REMARK    2  A    between atoms: C_11  and  C_12 
REMARK    3  A    between atoms: C_14  and  C_15 
REMARK    4  A    between atoms: C_15  and  O_16 
REMARK    5  A    between atoms: O_16  and  C_17 
REMARK    6  A    between atoms: C_25  and  O_26 
ROOT
HETATM    1  N   UNL     1      25.717  37.756  46.414  1.00  0.00    -0.067 N 
HETATM    2  H   UNL     1      24.989  37.280  46.963  1.00  0.00     0.280 HD
HETATM    3  C   UNL     1      26.706  38.330  47.430  1.00  0.00     0.281 C 
HETATM    4  C   UNL     1      26.073  39.438  48.201  1.00  0.00     0.018 A 
HETATM    5  C   UNL     1      24.910  40.094  47.846  1.00  0.00    -0.023 A 
HETATM    6  C   UNL     1      24.543  41.068  48.830  1.00  0.00     0.073 A 
HETATM    7  C   UNL     1      25.461  41.135  49.850  1.00  0.00     0.088 A 
HETATM    8  N   UNL     1      25.343  41.963  50.903  1.00  0.00    -0.358 N 
HETATM    9  C   UNL     1      24.305  42.966  50.952  1.00  0.00     0.219 C 
HETATM   10  N   UNL     1      23.277  42.737  49.965  1.00  0.00    -0.332 N 
HETATM   11  C   UNL     1      23.374  41.923  48.875  1.00  0.00     0.256 C 
HETATM   12  O   UNL     1      22.513  41.909  48.002  1.00  0.00    -0.267 OA
HETATM   13  S   UNL     1      26.748  40.042  49.642  1.00  0.00    -0.074 SA
HETATM   14  C   UNL     1      24.156  39.735  46.601  1.00  0.00     0.068 C 
HETATM   15  C   UNL     1      25.009  38.879  45.648  1.00  0.00     0.240 C 
HETATM   16  H   UNL     1      26.122  42.108  51.540  1.00  0.00     0.162 HD
HETATM   17  H   UNL     1      22.480  43.355  49.968  1.00  0.00     0.165 HD
ENDROOT
BRANCH   9  18
HETATM   18  C   UNL     1      24.900  44.356  50.844  1.00  0.00    -0.016 A 
HETATM   19  C   UNL     1      25.278  45.049  52.005  1.00  0.00     0.023 A 
HETATM   20  C   UNL     1      25.818  46.350  51.944  1.00  0.00    -0.000 A 
HETATM   21  C   UNL     1      25.989  46.967  50.693  1.00  0.00     0.076 A 
HETATM   22  C   UNL     1      25.641  46.273  49.533  1.00  0.00     0.038 A 
HETATM   23  C   UNL     1      25.106  44.981  49.606  1.00  0.00     0.014 A 
BRANCH  20  24
HETATM   24  C   UNL     1      26.206  47.045  53.233  1.00  0.00     0.217 C 
BRANCH  24  25
HETATM   25  O   UNL     1      26.241  46.067  54.275  1.00  0.00    -0.347 OA
BRANCH  25  26
HETATM   26  C   UNL     1      27.458  45.799  54.839  1.00  0.00     0.070 A 
HETATM   27  C   UNL     1      28.083  44.645  54.351  1.00  0.00     0.063 A 
HETATM   28  C   UNL     1      29.331  44.260  54.841  1.00  0.00     0.075 A 
HETATM   29 CL   UNL     1      30.080  42.838  54.225  1.00  0.00    -0.081 Cl
HETATM   30  C   UNL     1      29.957  45.027  55.819  1.00  0.00     0.138 A 
HETATM   31  F   UNL     1      31.157  44.678  56.304  1.00  0.00    -0.204 F 
HETATM   32  C   UNL     1      29.343  46.173  56.314  1.00  0.00     0.047 A 
HETATM   33  C   UNL     1      28.091  46.559  55.827  1.00  0.00     0.040 A 
ENDBRANCH  25  26
ENDBRANCH  24  25
ENDBRANCH  20  24
BRANCH  21  34
HETATM   34  O   UNL     1      26.506  48.235  50.713  1.00  0.00    -0.355 OA
HETATM   35  C   UNL     1      27.097  48.728  49.516  1.00  0.00     0.210 C 
ENDBRANCH  21  34
ENDBRANCH   9  18
BRANCH   1  36
HETATM   36  C   UNL     1      26.335  36.744  45.483  1.00  0.00     0.231 C 
HETATM   37  C   UNL     1      27.512  37.345  44.735  1.00  0.00     0.034 C 
ENDBRANCH   1  36
TORSDOF 6
ENDMDL
MODEL 7
REMARK VINA RESULT:      -8.6     13.239     14.993
REMARK  6 active torsions:
REMARK  status: ('A' for Active; 'I' for Inactive)
REMARK    1  A    between atoms: C_2  and  N_3 
REMARK    2  A    between atoms: C_11  and  C_12 
REMARK    3  A    between atoms: C_14  and  C_15 
REMARK    4  A    between atoms: C_15  and  O_16 
REMARK    5  A    between atoms: O_16  and  C_17 
REMARK    6  A    between atoms: C_25  and  O_26 
ROOT
HETATM    1  N   UNL     1      27.433  49.955  38.808  1.00  0.00    -0.067 N 
HETATM    2  H   UNL     1      26.830  50.195  39.606  1.00  0.00     0.280 HD
HETATM    3  C   UNL     1      28.443  48.934  39.335  1.00  0.00     0.281 C 
HETATM    4  C   UNL     1      29.381  49.579  40.298  1.00  0.00     0.018 A 
HETATM    5  C   UNL     1      29.557  50.941  40.447  1.00  0.00    -0.023 A 
HETATM    6  C   UNL     1      30.488  51.232  41.496  1.00  0.00     0.073 A 
HETATM    7  C   UNL     1      31.002  50.086  42.054  1.00  0.00     0.088 A 
HETATM    8  N   UNL     1      31.890  50.086  43.065  1.00  0.00    -0.358 N 
HETATM    9  C   UNL     1      32.490  51.313  43.533  1.00  0.00     0.219 C 
HETATM   10  N   UNL     1      31.793  52.481  43.050  1.00  0.00    -0.332 N 
HETATM   11  C   UNL     1      30.907  52.519  42.013  1.00  0.00     0.256 C 
HETATM   12  O   UNL     1      30.482  53.579  41.566  1.00  0.00    -0.267 OA
HETATM   13  S   UNL     1      30.377  48.675  41.340  1.00  0.00    -0.074 SA
HETATM   14  C   UNL     1      28.792  51.927  39.616  1.00  0.00     0.068 C 
HETATM   15  C   UNL     1      28.135  51.253  38.398  1.00  0.00     0.240 C 
HETATM   16  H   UNL     1      32.375  49.233  43.330  1.00  0.00     0.162 HD
HETATM   17  H   UNL     1      32.108  53.381  43.377  1.00  0.00     0.165 HD
ENDROOT
BRANCH   9  18
HETATM   18  C   UNL     1      33.967  51.349  43.193  1.00  0.00    -0.016 A 
HETATM   19  C   UNL     1      34.840  52.152  43.945  1.00  0.00     0.023 A 
HETATM   20  C   UNL     1      36.216  52.224  43.647  1.00  0.00    -0.000 A 
HETATM   21  C   UNL     1      36.730  51.470  42.578  1.00  0.00     0.076 A 
HETATM   22  C   UNL     1      35.872  50.647  41.844  1.00  0.00     0.038 A 
HETATM   23  C   UNL     1      34.507  50.584  42.150  1.00  0.00     0.014 A 
BRANCH  20  24
HETATM   24  C   UNL     1      37.106  53.110  44.494  1.00  0.00     0.217 C 
BRANCH  24  25
HETATM   25  O   UNL     1      37.471  52.383  45.669  1.00  0.00    -0.347 OA
BRANCH  25  26
HETATM   26  C   UNL     1      38.475  52.905  46.439  1.00  0.00     0.070 A 
HETATM   27  C   UNL     1      39.760  52.721  45.918  1.00  0.00     0.063 A 
HETATM   28  C   UNL     1      40.874  53.208  46.604  1.00  0.00     0.075 A 
HETATM   29 CL   UNL     1      42.445  52.971  45.943  1.00  0.00    -0.081 Cl
HETATM   30  C   UNL     1      40.704  53.878  47.812  1.00  0.00     0.138 A 
HETATM   31  F   UNL     1      41.757  54.357  48.488  1.00  0.00    -0.204 F 
HETATM   32  C   UNL     1      39.430  54.062  48.341  1.00  0.00     0.047 A 
HETATM   33  C   UNL     1      38.313  53.572  47.656  1.00  0.00     0.040 A 
ENDBRANCH  25  26
ENDBRANCH  24  25
ENDBRANCH  20  24
BRANCH  21  34
HETATM   34  O   UNL     1      38.072  51.599  42.339  1.00  0.00    -0.355 OA
HETATM   35  C   UNL     1      38.906  50.482  42.620  1.00  0.00     0.210 C 
ENDBRANCH  21  34
ENDBRANCH   9  18
BRANCH   1  36
HETATM   36  C   UNL     1      26.557  49.417  37.705  1.00  0.00     0.231 C 
HETATM   37  C   UNL     1      26.363  47.918  37.853  1.00  0.00     0.034 C 
ENDBRANCH   1  36
TORSDOF 6
ENDMDL
MODEL 8
REMARK VINA RESULT:      -8.6      5.320     10.446
REMARK  6 active torsions:
REMARK  status: ('A' for Active; 'I' for Inactive)
REMARK    1  A    between atoms: C_2  and  N_3 
REMARK    2  A    between atoms: C_11  and  C_12 
REMARK    3  A    between atoms: C_14  and  C_15 
REMARK    4  A    between atoms: C_15  and  O_16 
REMARK    5  A    between atoms: O_16  and  C_17 
REMARK    6  A    between atoms: C_25  and  O_26 
ROOT
HETATM    1  N   UNL     1      28.511  43.245  53.647  1.00  0.00    -0.067 N 
HETATM    2  H   UNL     1      28.042  42.457  54.113  1.00  0.00     0.280 HD
HETATM    3  C   UNL     1      27.434  44.309  53.427  1.00  0.00     0.281 C 
HETATM    4  C   UNL     1      26.445  43.845  52.413  1.00  0.00     0.018 A 
HETATM    5  C   UNL     1      26.633  42.789  51.542  1.00  0.00    -0.023 A 
HETATM    6  C   UNL     1      25.470  42.568  50.736  1.00  0.00     0.073 A 
HETATM    7  C   UNL     1      24.484  43.489  50.999  1.00  0.00     0.088 A 
HETATM    8  N   UNL     1      23.289  43.495  50.383  1.00  0.00    -0.358 N 
HETATM    9  C   UNL     1      23.017  42.613  49.272  1.00  0.00     0.219 C 
HETATM   10  N   UNL     1      23.997  41.560  49.157  1.00  0.00    -0.332 N 
HETATM   11  C   UNL     1      25.226  41.536  49.748  1.00  0.00     0.256 C 
HETATM   12  O   UNL     1      26.059  40.681  49.470  1.00  0.00    -0.267 OA
HETATM   13  S   UNL     1      24.936  44.603  52.202  1.00  0.00    -0.074 SA
HETATM   14  C   UNL     1      27.900  41.988  51.541  1.00  0.00     0.068 C 
HETATM   15  C   UNL     1      29.025  42.706  52.308  1.00  0.00     0.240 C 
HETATM   16  H   UNL     1      22.660  44.287  50.476  1.00  0.00     0.162 HD
HETATM   17  H   UNL     1      23.852  40.862  48.444  1.00  0.00     0.165 HD
ENDROOT
BRANCH   9  18
HETATM   18  C   UNL     1      22.874  43.403  47.986  1.00  0.00    -0.016 A 
HETATM   19  C   UNL     1      22.177  44.622  47.986  1.00  0.00     0.023 A 
HETATM   20  C   UNL     1      22.009  45.375  46.805  1.00  0.00    -0.000 A 
HETATM   21  C   UNL     1      22.556  44.900  45.601  1.00  0.00     0.076 A 
HETATM   22  C   UNL     1      23.274  43.702  45.600  1.00  0.00     0.038 A 
HETATM   23  C   UNL     1      23.435  42.964  46.779  1.00  0.00     0.014 A 
BRANCH  20  24
HETATM   24  C   UNL     1      21.246  46.682  46.871  1.00  0.00     0.217 C 
BRANCH  24  25
HETATM   25  O   UNL     1      22.162  47.716  47.239  1.00  0.00    -0.347 OA
BRANCH  25  26
HETATM   26  C   UNL     1      21.657  48.775  47.942  1.00  0.00     0.070 A 
HETATM   27  C   UNL     1      20.662  48.437  48.866  1.00  0.00     0.063 A 
HETATM   28  C   UNL     1      20.065  49.424  49.651  1.00  0.00     0.075 A 
HETATM   29 CL   UNL     1      18.844  48.984  50.781  1.00  0.00    -0.081 Cl
HETATM   30  C   UNL     1      20.462  50.751  49.513  1.00  0.00     0.138 A 
HETATM   31  F   UNL     1      19.905  51.717  50.257  1.00  0.00    -0.204 F 
HETATM   32  C   UNL     1      21.447  51.099  48.595  1.00  0.00     0.047 A 
HETATM   33  C   UNL     1      22.044  50.111  47.805  1.00  0.00     0.040 A 
ENDBRANCH  25  26
ENDBRANCH  24  25
ENDBRANCH  20  24
BRANCH  21  34
HETATM   34  O   UNL     1      22.342  45.677  44.495  1.00  0.00    -0.355 OA
HETATM   35  C   UNL     1      22.735  45.154  43.232  1.00  0.00     0.210 C 
ENDBRANCH  21  34
ENDBRANCH   9  18
BRANCH   1  36
HETATM   36  C   UNL     1      29.638  43.708  54.537  1.00  0.00     0.231 C 
HETATM   37  C   UNL     1      29.237  44.949  55.313  1.00  0.00     0.034 C 
ENDBRANCH   1  36
TORSDOF 6
ENDMDL
MODEL 9
REMARK VINA RESULT:      -8.5      2.860      4.623
REMARK  6 active torsions:
REMARK  status: ('A' for Active; 'I' for Inactive)
REMARK    1  A    between atoms: C_2  and  N_3 
REMARK    2  A    between atoms: C_11  and  C_12 
REMARK    3  A    between atoms: C_14  and  C_15 
REMARK    4  A    between atoms: C_15  and  O_16 
REMARK    5  A    between atoms: O_16  and  C_17 
REMARK    6  A    between atoms: C_25  and  O_26 
ROOT
HETATM    1  N   UNL     1      19.034  50.304  49.379  1.00  0.00    -0.067 N 
HETATM    2  H   UNL     1      18.689  50.231  48.413  1.00  0.00     0.280 HD
HETATM    3  C   UNL     1      20.559  50.203  49.292  1.00  0.00     0.281 C 
HETATM    4  C   UNL     1      20.966  48.829  48.881  1.00  0.00     0.018 A 
HETATM    5  C   UNL     1      20.148  47.715  48.906  1.00  0.00    -0.023 A 
HETATM    6  C   UNL     1      20.827  46.562  48.395  1.00  0.00     0.073 A 
HETATM    7  C   UNL     1      22.128  46.845  48.053  1.00  0.00     0.088 A 
HETATM    8  N   UNL     1      22.976  45.937  47.539  1.00  0.00    -0.358 N 
HETATM    9  C   UNL     1      22.615  44.541  47.458  1.00  0.00     0.219 C 
HETATM   10  N   UNL     1      21.201  44.329  47.653  1.00  0.00    -0.332 N 
HETATM   11  C   UNL     1      20.321  45.220  48.193  1.00  0.00     0.256 C 
HETATM   12  O   UNL     1      19.169  44.901  48.470  1.00  0.00    -0.267 OA
HETATM   13  S   UNL     1      22.536  48.473  48.333  1.00  0.00    -0.074 SA
HETATM   14  C   UNL     1      18.725  47.796  49.372  1.00  0.00     0.068 C 
HETATM   15  C   UNL     1      18.452  49.105  50.134  1.00  0.00     0.240 C 
HETATM   16  H   UNL     1      23.970  46.137  47.465  1.00  0.00     0.162 HD
HETATM   17  H   UNL     1      20.852  43.389  47.552  1.00  0.00     0.165 HD
ENDROOT
BRANCH   9  18
HETATM   18  C   UNL     1      23.453  43.716  48.415  1.00  0.00    -0.016 A 
HETATM   19  C   UNL     1      23.794  44.236  49.675  1.00  0.00     0.023 A 
HETATM   20  C   UNL     1      24.586  43.505  50.584  1.00  0.00    -0.000 A 
HETATM   21  C   UNL     1      25.041  42.224  50.227  1.00  0.00     0.076 A 
HETATM   22  C   UNL     1      24.683  41.690  48.986  1.00  0.00     0.038 A 
HETATM   23  C   UNL     1      23.895  42.426  48.093  1.00  0.00     0.014 A 
BRANCH  20  24
HETATM   24  C   UNL     1      24.919  44.121  51.927  1.00  0.00     0.217 C 
BRANCH  24  25
HETATM   25  O   UNL     1      26.049  44.980  51.756  1.00  0.00    -0.347 OA
BRANCH  25  26
HETATM   26  C   UNL     1      26.893  45.121  52.823  1.00  0.00     0.070 A 
HETATM   27  C   UNL     1      27.854  44.111  52.940  1.00  0.00     0.063 A 
HETATM   28  C   UNL     1      28.779  44.136  53.984  1.00  0.00     0.075 A 
HETATM   29 CL   UNL     1      29.953  42.883  54.106  1.00  0.00    -0.081 Cl
HETATM   30  C   UNL     1      28.744  45.171  54.914  1.00  0.00     0.138 A 
HETATM   31  F   UNL     1      29.623  45.219  55.925  1.00  0.00    -0.204 F 
HETATM   32  C   UNL     1      27.790  46.178  54.810  1.00  0.00     0.047 A 
HETATM   33  C   UNL     1      26.860  46.152  53.766  1.00  0.00     0.040 A 
ENDBRANCH  25  26
ENDBRANCH  24  25
ENDBRANCH  20  24
BRANCH  21  34
HETATM   34  O   UNL     1      25.816  41.580  51.153  1.00  0.00    -0.355 OA
HETATM   35  C   UNL     1      26.655  40.525  50.698  1.00  0.00     0.210 C 
ENDBRANCH  21  34
ENDBRANCH   9  18
BRANCH   1  36
HETATM   36  C   UNL     1      18.553  51.615  49.949  1.00  0.00     0.231 C 
HETATM   37  C   UNL     1      18.036  52.525  48.849  1.00  0.00     0.034 C 
ENDBRANCH   1  36
TORSDOF 6
ENDMDL
MODEL 10
REMARK VINA RESULT:      -8.5      5.111     10.706
REMARK  6 active torsions:
REMARK  status: ('A' for Active; 'I' for Inactive)
REMARK    1  A    between atoms: C_2  and  N_3 
REMARK    2  A    between atoms: C_11  and  C_12 
REMARK    3  A    between atoms: C_14  and  C_15 
REMARK    4  A    between atoms: C_15  and  O_16 
REMARK    5  A    between atoms: O_16  and  C_17 
REMARK    6  A    between atoms: C_25  and  O_26 
ROOT
HETATM    1  N   UNL     1      27.036  45.160  53.115  1.00  0.00    -0.067 N 
HETATM    2  H   UNL     1      27.702  45.265  52.338  1.00  0.00     0.280 HD
HETATM    3  C   UNL     1      25.946  44.212  52.613  1.00  0.00     0.281 C 
HETATM    4  C   UNL     1      25.136  44.869  51.547  1.00  0.00     0.018 A 
HETATM    5  C   UNL     1      25.121  46.224  51.280  1.00  0.00    -0.023 A 
HETATM    6  C   UNL     1      24.282  46.522  50.158  1.00  0.00     0.073 A 
HETATM    7  C   UNL     1      23.672  45.394  49.663  1.00  0.00     0.088 A 
HETATM    8  N   UNL     1      22.842  45.402  48.605  1.00  0.00    -0.358 N 
HETATM    9  C   UNL     1      22.407  46.642  48.005  1.00  0.00     0.219 C 
HETATM   10  N   UNL     1      23.204  47.766  48.434  1.00  0.00    -0.332 N 
HETATM   11  C   UNL     1      24.036  47.797  49.515  1.00  0.00     0.256 C 
HETATM   12  O   UNL     1      24.553  48.840  49.901  1.00  0.00    -0.267 OA
HETATM   13  S   UNL     1      24.099  43.991  50.523  1.00  0.00    -0.074 SA
HETATM   14  C   UNL     1      25.949  47.190  52.073  1.00  0.00     0.068 C 
HETATM   15  C   UNL     1      26.463  46.557  53.378  1.00  0.00     0.240 C 
HETATM   16  H   UNL     1      22.278  44.586  48.380  1.00  0.00     0.162 HD
HETATM   17  H   UNL     1      23.009  48.663  48.018  1.00  0.00     0.165 HD
ENDROOT
BRANCH   9  18
HETATM   18  C   UNL     1      20.928  46.865  48.253  1.00  0.00    -0.016 A 
HETATM   19  C   UNL     1      20.486  48.070  48.822  1.00  0.00     0.023 A 
HETATM   20  C   UNL     1      19.120  48.305  49.083  1.00  0.00    -0.000 A 
HETATM   21  C   UNL     1      18.177  47.315  48.760  1.00  0.00     0.076 A 
HETATM   22  C   UNL     1      18.607  46.125  48.168  1.00  0.00     0.038 A 
HETATM   23  C   UNL     1      19.966  45.904  47.913  1.00  0.00     0.014 A 
BRANCH  20  24
HETATM   24  C   UNL     1      18.707  49.625  49.700  1.00  0.00     0.217 C 
BRANCH  24  25
HETATM   25  O   UNL     1      18.495  50.565  48.644  1.00  0.00    -0.347 OA
BRANCH  25  26
HETATM   26  C   UNL     1      17.419  51.402  48.761  1.00  0.00     0.070 A 
HETATM   27  C   UNL     1      16.692  51.582  47.579  1.00  0.00     0.063 A 
HETATM   28  C   UNL     1      15.569  52.409  47.562  1.00  0.00     0.075 A 
HETATM   29 CL   UNL     1      14.690  52.613  46.096  1.00  0.00    -0.081 Cl
HETATM   30  C   UNL     1      15.172  53.060  48.726  1.00  0.00     0.138 A 
HETATM   31  F   UNL     1      14.096  53.859  48.735  1.00  0.00    -0.204 F 
HETATM   32  C   UNL     1      15.890  52.893  49.905  1.00  0.00     0.047 A 
HETATM   33  C   UNL     1      17.018  52.066  49.924  1.00  0.00     0.040 A 
ENDBRANCH  25  26
ENDBRANCH  24  25
ENDBRANCH  20  24
BRANCH  21  34
HETATM   34  O   UNL     1      16.872  47.607  49.053  1.00  0.00    -0.355 OA
HETATM   35  C   UNL     1      16.005  47.928  47.972  1.00  0.00     0.210 C 
ENDBRANCH  21  34
ENDBRANCH   9  18
BRANCH   1  36
HETATM   36  C   UNL     1      27.790  44.628  54.308  1.00  0.00     0.231 C 
HETATM   37  C   UNL     1      27.763  43.110  54.330  1.00  0.00     0.034 C 
ENDBRANCH   1  36
TORSDOF 6
ENDMDL
