MODEL 1
REMARK VINA RESULT:      -9.4      0.000      0.000
REMARK  6 active torsions:
REMARK  status: ('A' for Active; 'I' for Inactive)
REMARK    1  A    between atoms: C_2  and  N_3 
REMARK       I    between atoms: N_3  and  C_4 
REMARK    2  A    between atoms: C_4  and  C_5 
REMARK    3  A    between atoms: C_7  and  N_8 
REMARK       I    between atoms: N_8  and  C_9 
REMARK    4  A    between atoms: C_9  and  C_10 
REMARK    5  A    between atoms: C_10  and  C_11 
REMARK    6  A    between atoms: C_15  and  O_16 
ROOT
HETATM    1  N   UNL     1      25.780  46.553  50.984  1.00  0.00    -0.327 N 
HETATM    2  C   UNL     1      25.600  46.579  52.358  1.00  0.00     0.226 C 
HETATM    3  O   UNL     1      25.604  47.585  53.065  1.00  0.00    -0.273 OA
HETATM    4  H   UNL     1      25.898  45.645  50.552  1.00  0.00     0.169 HD
ENDROOT
BRANCH   1   5
HETATM    5  C   UNL     1      25.824  47.666  50.118  1.00  0.00     0.035 A 
HETATM    6  C   UNL     1      24.679  48.315  49.644  1.00  0.00     0.046 A 
HETATM    7  C   UNL     1      24.781  49.411  48.776  1.00  0.00     0.034 A 
HETATM    8  C   UNL     1      26.049  49.843  48.365  1.00  0.00     0.017 A 
HETATM    9  C   UNL     1      27.194  49.191  48.819  1.00  0.00     0.003 A 
HETATM   10  C   UNL     1      27.081  48.104  49.688  1.00  0.00     0.029 A 
BRANCH   7  11
HETATM   11  C   UNL     1      23.581  50.111  48.227  1.00  0.00     0.251 C 
HETATM   12  N   UNL     1      22.621  50.519  49.131  1.00  0.00    -0.357 N 
HETATM   13  H   UNL     1      22.813  50.490  50.123  1.00  0.00     0.162 HD
HETATM   14  O   UNL     1      23.488  50.309  47.020  1.00  0.00    -0.268 OA
BRANCH  12  15
HETATM   15  C   UNL     1      21.425  51.221  48.712  1.00  0.00     0.118 C 
HETATM   16  C   UNL     1      20.319  51.098  49.742  1.00  0.00     0.026 C 
ENDBRANCH  12  15
ENDBRANCH   7  11
ENDBRANCH   1   5
BRANCH   2  17
HETATM   17  C   UNL     1      25.401  45.203  52.971  1.00  0.00     0.144 C 
BRANCH  17  18
HETATM   18  C   UNL     1      26.685  44.475  53.194  1.00  0.00    -0.014 A 
HETATM   19  C   UNL     1      27.721  44.759  54.143  1.00  0.00     0.006 A 
HETATM   20  C   UNL     1      28.695  43.787  53.951  1.00  0.00     0.088 A 
HETATM   21  C   UNL     1      27.943  45.722  55.145  1.00  0.00     0.017 A 
HETATM   22  C   UNL     1      29.869  43.697  54.694  1.00  0.00     0.074 A 
HETATM   23  O   UNL     1      28.333  42.948  52.944  1.00  0.00    -0.321 OA
HETATM   24  C   UNL     1      30.059  44.644  55.706  1.00  0.00     0.070 A 
HETATM   25  C   UNL     1      29.111  45.648  55.921  1.00  0.00     0.038 A 
HETATM   26  C   UNL     1      27.128  43.371  52.489  1.00  0.00     0.151 A 
BRANCH  24  27
HETATM   27  O   UNL     1      31.223  44.488  56.413  1.00  0.00    -0.356 OA
HETATM   28  C   UNL     1      31.440  43.221  57.021  1.00  0.00     0.210 C 
ENDBRANCH  24  27
ENDBRANCH  17  18
ENDBRANCH   2  17
TORSDOF 6
ENDMDL
MODEL 2
REMARK VINA RESULT:      -8.5      2.069      2.818
REMARK  6 active torsions:
REMARK  status: ('A' for Active; 'I' for Inactive)
REMARK    1  A    between atoms: C_2  and  N_3 
REMARK       I    between atoms: N_3  and  C_4 
REMARK    2  A    between atoms: C_4  and  C_5 
REMARK    3  A    between atoms: C_7  and  N_8 
REMARK       I    between atoms: N_8  and  C_9 
REMARK    4  A    between atoms: C_9  and  C_10 
REMARK    5  A    between atoms: C_10  and  C_11 
REMARK    6  A    between atoms: C_15  and  O_16 
ROOT
HETATM    1  N   UNL     1      25.292  44.448  50.562  1.00  0.00    -0.327 N 
HETATM    2  C   UNL     1      26.676  44.427  50.500  1.00  0.00     0.226 C 
HETATM    3  O   UNL     1      27.368  45.009  49.665  1.00  0.00    -0.273 OA
HETATM    4  H   UNL     1      24.850  43.808  51.210  1.00  0.00     0.169 HD
ENDROOT
BRANCH   1   5
HETATM    5  C   UNL     1      24.426  45.266  49.805  1.00  0.00     0.035 A 
HETATM    6  C   UNL     1      24.328  46.649  49.982  1.00  0.00     0.046 A 
HETATM    7  C   UNL     1      23.442  47.413  49.209  1.00  0.00     0.034 A 
HETATM    8  C   UNL     1      22.632  46.772  48.263  1.00  0.00     0.017 A 
HETATM    9  C   UNL     1      22.711  45.390  48.092  1.00  0.00     0.003 A 
HETATM   10  C   UNL     1      23.601  44.641  48.863  1.00  0.00     0.029 A 
BRANCH   7  11
HETATM   11  C   UNL     1      23.289  48.888  49.389  1.00  0.00     0.251 C 
HETATM   12  N   UNL     1      22.021  49.362  49.658  1.00  0.00    -0.357 N 
HETATM   13  H   UNL     1      21.276  48.717  49.885  1.00  0.00     0.162 HD
HETATM   14  O   UNL     1      24.272  49.618  49.306  1.00  0.00    -0.268 OA
BRANCH  12  15
HETATM   15  C   UNL     1      21.760  50.771  49.866  1.00  0.00     0.118 C 
HETATM   16  C   UNL     1      20.293  51.100  49.668  1.00  0.00     0.026 C 
ENDBRANCH  12  15
ENDBRANCH   7  11
ENDBRANCH   1   5
BRANCH   2  17
HETATM   17  C   UNL     1      27.319  43.579  51.584  1.00  0.00     0.144 C 
BRANCH  17  18
HETATM   18  C   UNL     1      27.628  44.355  52.822  1.00  0.00    -0.014 A 
HETATM   19  C   UNL     1      28.665  44.128  53.785  1.00  0.00     0.006 A 
HETATM   20  C   UNL     1      28.528  45.127  54.741  1.00  0.00     0.088 A 
HETATM   21  C   UNL     1      29.705  43.195  53.955  1.00  0.00     0.017 A 
HETATM   22  C   UNL     1      29.361  45.274  55.846  1.00  0.00     0.074 A 
HETATM   23  O   UNL     1      27.475  45.930  54.435  1.00  0.00    -0.321 OA
HETATM   24  C   UNL     1      30.409  44.356  55.983  1.00  0.00     0.070 A 
HETATM   25  C   UNL     1      30.571  43.326  55.053  1.00  0.00     0.038 A 
HETATM   26  C   UNL     1      26.933  45.457  53.286  1.00  0.00     0.151 A 
BRANCH  24  27
HETATM   27  O   UNL     1      31.204  44.567  57.080  1.00  0.00    -0.356 OA
HETATM   28  C   UNL     1      30.665  45.378  58.117  1.00  0.00     0.210 C 
ENDBRANCH  24  27
ENDBRANCH  17  18
ENDBRANCH   2  17
TORSDOF 6
ENDMDL
MODEL 3
REMARK VINA RESULT:      -8.4      4.590      7.662
REMARK  6 active torsions:
REMARK  status: ('A' for Active; 'I' for Inactive)
REMARK    1  A    between atoms: C_2  and  N_3 
REMARK       I    between atoms: N_3  and  C_4 
REMARK    2  A    between atoms: C_4  and  C_5 
REMARK    3  A    between atoms: C_7  and  N_8 
REMARK       I    between atoms: N_8  and  C_9 
REMARK    4  A    between atoms: C_9  and  C_10 
REMARK    5  A    between atoms: C_10  and  C_11 
REMARK    6  A    between atoms: C_15  and  O_16 
ROOT
HETATM    1  N   UNL     1      25.820  42.993  51.953  1.00  0.00    -0.327 N 
HETATM    2  C   UNL     1      26.229  44.317  51.903  1.00  0.00     0.226 C 
HETATM    3  O   UNL     1      26.951  44.814  51.041  1.00  0.00    -0.273 OA
HETATM    4  H   UNL     1      25.348  42.688  52.795  1.00  0.00     0.169 HD
ENDROOT
BRANCH   1   5
HETATM    5  C   UNL     1      26.001  42.016  50.951  1.00  0.00     0.035 A 
HETATM    6  C   UNL     1      27.113  41.169  50.898  1.00  0.00     0.046 A 
HETATM    7  C   UNL     1      27.248  40.222  49.873  1.00  0.00     0.034 A 
HETATM    8  C   UNL     1      26.263  40.143  48.880  1.00  0.00     0.017 A 
HETATM    9  C   UNL     1      25.160  40.996  48.915  1.00  0.00     0.003 A 
HETATM   10  C   UNL     1      25.033  41.931  49.944  1.00  0.00     0.029 A 
BRANCH   7  11
HETATM   11  C   UNL     1      28.434  39.320  49.768  1.00  0.00     0.251 C 
HETATM   12  N   UNL     1      29.052  38.951  50.947  1.00  0.00    -0.357 N 
HETATM   13  H   UNL     1      28.611  39.151  51.834  1.00  0.00     0.162 HD
HETATM   14  O   UNL     1      28.811  38.933  48.667  1.00  0.00    -0.268 OA
BRANCH  12  15
HETATM   15  C   UNL     1      30.199  38.068  50.964  1.00  0.00     0.118 C 
HETATM   16  C   UNL     1      29.830  36.688  51.474  1.00  0.00     0.026 C 
ENDBRANCH  12  15
ENDBRANCH   7  11
ENDBRANCH   1   5
BRANCH   2  17
HETATM   17  C   UNL     1      25.706  45.157  53.056  1.00  0.00     0.144 C 
BRANCH  17  18
HETATM   18  C   UNL     1      26.797  45.702  53.918  1.00  0.00    -0.014 A 
HETATM   19  C   UNL     1      27.947  45.026  54.442  1.00  0.00     0.006 A 
HETATM   20  C   UNL     1      28.651  45.974  55.174  1.00  0.00     0.088 A 
HETATM   21  C   UNL     1      28.474  43.722  54.377  1.00  0.00     0.017 A 
HETATM   22  C   UNL     1      29.850  45.722  55.835  1.00  0.00     0.074 A 
HETATM   23  O   UNL     1      28.002  47.168  55.146  1.00  0.00    -0.321 OA
HETATM   24  C   UNL     1      30.375  44.429  55.734  1.00  0.00     0.070 A 
HETATM   25  C   UNL     1      29.690  43.441  55.021  1.00  0.00     0.038 A 
HETATM   26  C   UNL     1      26.885  46.997  54.396  1.00  0.00     0.151 A 
BRANCH  24  27
HETATM   27  O   UNL     1      31.566  44.252  56.389  1.00  0.00    -0.356 OA
HETATM   28  C   UNL     1      31.688  43.088  57.198  1.00  0.00     0.210 C 
ENDBRANCH  24  27
ENDBRANCH  17  18
ENDBRANCH   2  17
TORSDOF 6
ENDMDL
MODEL 4
REMARK VINA RESULT:      -8.1      1.849      2.273
REMARK  6 active torsions:
REMARK  status: ('A' for Active; 'I' for Inactive)
REMARK    1  A    between atoms: C_2  and  N_3 
REMARK       I    between atoms: N_3  and  C_4 
REMARK    2  A    between atoms: C_4  and  C_5 
REMARK    3  A    between atoms: C_7  and  N_8 
REMARK       I    between atoms: N_8  and  C_9 
REMARK    4  A    between atoms: C_9  and  C_10 
REMARK    5  A    between atoms: C_10  and  C_11 
REMARK    6  A    between atoms: C_15  and  O_16 
ROOT
HETATM    1  N   UNL     1      25.424  44.617  50.857  1.00  0.00    -0.327 N 
HETATM    2  C   UNL     1      26.262  43.623  50.376  1.00  0.00     0.226 C 
HETATM    3  O   UNL     1      26.927  43.680  49.343  1.00  0.00    -0.273 OA
HETATM    4  H   UNL     1      24.828  44.378  51.640  1.00  0.00     0.169 HD
ENDROOT
BRANCH   1   5
HETATM    5  C   UNL     1      25.307  45.934  50.362  1.00  0.00     0.035 A 
HETATM    6  C   UNL     1      24.113  46.459  49.858  1.00  0.00     0.046 A 
HETATM    7  C   UNL     1      24.055  47.772  49.368  1.00  0.00     0.034 A 
HETATM    8  C   UNL     1      25.217  48.554  49.368  1.00  0.00     0.017 A 
HETATM    9  C   UNL     1      26.415  48.031  49.853  1.00  0.00     0.003 A 
HETATM   10  C   UNL     1      26.460  46.725  50.344  1.00  0.00     0.029 A 
BRANCH   7  11
HETATM   11  C   UNL     1      22.806  48.358  48.796  1.00  0.00     0.251 C 
HETATM   12  N   UNL     1      22.892  49.630  48.266  1.00  0.00    -0.357 N 
HETATM   13  H   UNL     1      23.795  50.060  48.126  1.00  0.00     0.162 HD
HETATM   14  O   UNL     1      21.766  47.706  48.804  1.00  0.00    -0.268 OA
BRANCH  12  15
HETATM   15  C   UNL     1      21.747  50.288  47.671  1.00  0.00     0.118 C 
HETATM   16  C   UNL     1      21.082  51.238  48.649  1.00  0.00     0.026 C 
ENDBRANCH  12  15
ENDBRANCH   7  11
ENDBRANCH   1   5
BRANCH   2  17
HETATM   17  C   UNL     1      26.296  42.382  51.252  1.00  0.00     0.144 C 
BRANCH  17  18
HETATM   18  C   UNL     1      27.560  42.259  52.037  1.00  0.00    -0.014 A 
HETATM   19  C   UNL     1      28.072  43.133  53.051  1.00  0.00     0.006 A 
HETATM   20  C   UNL     1      29.273  42.574  53.471  1.00  0.00     0.088 A 
HETATM   21  C   UNL     1      27.655  44.330  53.664  1.00  0.00     0.017 A 
HETATM   22  C   UNL     1      30.082  43.112  54.468  1.00  0.00     0.074 A 
HETATM   23  O   UNL     1      29.532  41.436  52.773  1.00  0.00    -0.321 OA
HETATM   24  C   UNL     1      29.638  44.285  55.088  1.00  0.00     0.070 A 
HETATM   25  C   UNL     1      28.444  44.889  54.684  1.00  0.00     0.038 A 
HETATM   26  C   UNL     1      28.504  41.256  51.908  1.00  0.00     0.151 A 
BRANCH  24  27
HETATM   27  O   UNL     1      30.468  44.751  56.073  1.00  0.00    -0.356 OA
HETATM   28  C   UNL     1      31.285  43.791  56.732  1.00  0.00     0.210 C 
ENDBRANCH  24  27
ENDBRANCH  17  18
ENDBRANCH   2  17
TORSDOF 6
ENDMDL
MODEL 5
REMARK VINA RESULT:      -8.0      2.647      9.590
REMARK  6 active torsions:
REMARK  status: ('A' for Active; 'I' for Inactive)
REMARK    1  A    between atoms: C_2  and  N_3 
REMARK       I    between atoms: N_3  and  C_4 
REMARK    2  A    between atoms: C_4  and  C_5 
REMARK    3  A    between atoms: C_7  and  N_8 
REMARK       I    between atoms: N_8  and  C_9 
REMARK    4  A    between atoms: C_9  and  C_10 
REMARK    5  A    between atoms: C_10  and  C_11 
REMARK    6  A    between atoms: C_15  and  O_16 
ROOT
HETATM    1  N   UNL     1      26.312  43.544  50.635  1.00  0.00    -0.327 N 
HETATM    2  C   UNL     1      25.002  43.980  50.755  1.00  0.00     0.226 C 
HETATM    3  O   UNL     1      24.287  43.848  51.747  1.00  0.00    -0.273 OA
HETATM    4  H   UNL     1      26.731  43.589  49.714  1.00  0.00     0.169 HD
ENDROOT
BRANCH   1   5
HETATM    5  C   UNL     1      27.129  43.033  51.667  1.00  0.00     0.035 A 
HETATM    6  C   UNL     1      27.751  43.841  52.624  1.00  0.00     0.046 A 
HETATM    7  C   UNL     1      28.560  43.280  53.622  1.00  0.00     0.034 A 
HETATM    8  C   UNL     1      28.762  41.894  53.641  1.00  0.00     0.017 A 
HETATM    9  C   UNL     1      28.159  41.083  52.680  1.00  0.00     0.003 A 
HETATM   10  C   UNL     1      27.350  41.652  51.695  1.00  0.00     0.029 A 
BRANCH   7  11
HETATM   11  C   UNL     1      29.264  44.113  54.643  1.00  0.00     0.251 C 
HETATM   12  N   UNL     1      30.305  43.521  55.331  1.00  0.00    -0.357 N 
HETATM   13  H   UNL     1      30.669  42.628  55.028  1.00  0.00     0.162 HD
HETATM   14  O   UNL     1      28.913  45.273  54.832  1.00  0.00    -0.268 OA
BRANCH  12  15
HETATM   15  C   UNL     1      31.066  44.240  56.331  1.00  0.00     0.118 C 
HETATM   16  C   UNL     1      31.882  43.295  57.193  1.00  0.00     0.026 C 
ENDBRANCH  12  15
ENDBRANCH   7  11
ENDBRANCH   1   5
BRANCH   2  17
HETATM   17  C   UNL     1      24.471  44.657  49.503  1.00  0.00     0.144 C 
BRANCH  17  18
HETATM   18  C   UNL     1      24.303  46.132  49.667  1.00  0.00    -0.014 A 
HETATM   19  C   UNL     1      23.298  46.986  49.106  1.00  0.00     0.006 A 
HETATM   20  C   UNL     1      23.581  48.267  49.564  1.00  0.00     0.088 A 
HETATM   21  C   UNL     1      22.179  46.821  48.268  1.00  0.00     0.017 A 
HETATM   22  C   UNL     1      22.823  49.393  49.261  1.00  0.00     0.074 A 
HETATM   23  O   UNL     1      24.694  48.252  50.346  1.00  0.00    -0.321 OA
HETATM   24  C   UNL     1      21.697  49.207  48.452  1.00  0.00     0.070 A 
HETATM   25  C   UNL     1      21.385  47.938  47.956  1.00  0.00     0.038 A 
HETATM   26  C   UNL     1      25.128  46.968  50.397  1.00  0.00     0.151 A 
BRANCH  24  27
HETATM   27  O   UNL     1      20.982  50.351  48.207  1.00  0.00    -0.356 OA
HETATM   28  C   UNL     1      20.012  50.293  47.169  1.00  0.00     0.210 C 
ENDBRANCH  24  27
ENDBRANCH  17  18
ENDBRANCH   2  17
TORSDOF 6
ENDMDL
MODEL 6
REMARK VINA RESULT:      -7.9      2.307      9.491
REMARK  6 active torsions:
REMARK  status: ('A' for Active; 'I' for Inactive)
REMARK    1  A    between atoms: C_2  and  N_3 
REMARK       I    between atoms: N_3  and  C_4 
REMARK    2  A    between atoms: C_4  and  C_5 
REMARK    3  A    between atoms: C_7  and  N_8 
REMARK       I    between atoms: N_8  and  C_9 
REMARK    4  A    between atoms: C_9  and  C_10 
REMARK    5  A    between atoms: C_10  and  C_11 
REMARK    6  A    between atoms: C_15  and  O_16 
ROOT
HETATM    1  N   UNL     1      24.965  45.652  51.378  1.00  0.00    -0.327 N 
HETATM    2  C   UNL     1      25.084  45.811  50.005  1.00  0.00     0.226 C 
HETATM    3  O   UNL     1      26.101  45.610  49.344  1.00  0.00    -0.273 OA
HETATM    4  H   UNL     1      24.114  45.992  51.809  1.00  0.00     0.169 HD
ENDROOT
BRANCH   1   5
HETATM    5  C   UNL     1      25.915  45.071  52.245  1.00  0.00     0.035 A 
HETATM    6  C   UNL     1      26.682  45.813  53.148  1.00  0.00     0.046 A 
HETATM    7  C   UNL     1      27.620  45.185  53.980  1.00  0.00     0.034 A 
HETATM    8  C   UNL     1      27.801  43.799  53.884  1.00  0.00     0.017 A 
HETATM    9  C   UNL     1      27.052  43.055  52.973  1.00  0.00     0.003 A 
HETATM   10  C   UNL     1      26.116  43.689  52.155  1.00  0.00     0.029 A 
BRANCH   7  11
HETATM   11  C   UNL     1      28.478  45.947  54.937  1.00  0.00     0.251 C 
HETATM   12  N   UNL     1      29.373  45.221  55.697  1.00  0.00    -0.357 N 
HETATM   13  H   UNL     1      29.546  44.248  55.484  1.00  0.00     0.162 HD
HETATM   14  O   UNL     1      28.374  47.167  55.012  1.00  0.00    -0.268 OA
BRANCH  12  15
HETATM   15  C   UNL     1      30.264  45.858  56.644  1.00  0.00     0.118 C 
HETATM   16  C   UNL     1      29.681  45.855  58.044  1.00  0.00     0.026 C 
ENDBRANCH  12  15
ENDBRANCH   7  11
ENDBRANCH   1   5
BRANCH   2  17
HETATM   17  C   UNL     1      23.806  46.289  49.337  1.00  0.00     0.144 C 
BRANCH  17  18
HETATM   18  C   UNL     1      23.735  47.775  49.215  1.00  0.00    -0.014 A 
HETATM   19  C   UNL     1      22.582  48.603  49.018  1.00  0.00     0.006 A 
HETATM   20  C   UNL     1      23.050  49.911  48.977  1.00  0.00     0.088 A 
HETATM   21  C   UNL     1      21.197  48.396  48.876  1.00  0.00     0.017 A 
HETATM   22  C   UNL     1      22.236  51.030  48.818  1.00  0.00     0.074 A 
HETATM   23  O   UNL     1      24.402  49.932  49.115  1.00  0.00    -0.321 OA
HETATM   24  C   UNL     1      20.859  50.808  48.709  1.00  0.00     0.070 A 
HETATM   25  C   UNL     1      20.349  49.507  48.729  1.00  0.00     0.038 A 
HETATM   26  C   UNL     1      24.809  48.646  49.250  1.00  0.00     0.151 A 
BRANCH  24  27
HETATM   27  O   UNL     1      20.113  51.950  48.575  1.00  0.00    -0.356 OA
HETATM   28  C   UNL     1      18.944  52.051  49.379  1.00  0.00     0.210 C 
ENDBRANCH  24  27
ENDBRANCH  17  18
ENDBRANCH   2  17
TORSDOF 6
ENDMDL
MODEL 7
REMARK VINA RESULT:      -7.9      2.278      9.633
REMARK  6 active torsions:
REMARK  status: ('A' for Active; 'I' for Inactive)
REMARK    1  A    between atoms: C_2  and  N_3 
REMARK       I    between atoms: N_3  and  C_4 
REMARK    2  A    between atoms: C_4  and  C_5 
REMARK    3  A    between atoms: C_7  and  N_8 
REMARK       I    between atoms: N_8  and  C_9 
REMARK    4  A    between atoms: C_9  and  C_10 
REMARK    5  A    between atoms: C_10  and  C_11 
REMARK    6  A    between atoms: C_15  and  O_16 
ROOT
HETATM    1  N   UNL     1      25.478  47.441  51.339  1.00  0.00    -0.327 N 
HETATM    2  C   UNL     1      25.910  47.492  50.023  1.00  0.00     0.226 C 
HETATM    3  O   UNL     1      26.762  46.764  49.517  1.00  0.00    -0.273 OA
HETATM    4  H   UNL     1      24.879  48.194  51.658  1.00  0.00     0.169 HD
ENDROOT
BRANCH   1   5
HETATM    5  C   UNL     1      25.794  46.450  52.293  1.00  0.00     0.035 A 
HETATM    6  C   UNL     1      26.795  46.604  53.256  1.00  0.00     0.046 A 
HETATM    7  C   UNL     1      27.074  45.581  54.174  1.00  0.00     0.034 A 
HETATM    8  C   UNL     1      26.352  44.383  54.104  1.00  0.00     0.017 A 
HETATM    9  C   UNL     1      25.363  44.215  53.135  1.00  0.00     0.003 A 
HETATM   10  C   UNL     1      25.089  45.242  52.231  1.00  0.00     0.029 A 
BRANCH   7  11
HETATM   11  C   UNL     1      28.155  45.698  55.199  1.00  0.00     0.251 C 
HETATM   12  N   UNL     1      29.220  44.826  55.094  1.00  0.00    -0.357 N 
HETATM   13  H   UNL     1      29.331  44.260  54.264  1.00  0.00     0.162 HD
HETATM   14  O   UNL     1      28.073  46.551  56.077  1.00  0.00    -0.268 OA
BRANCH  12  15
HETATM   15  C   UNL     1      30.331  44.862  56.023  1.00  0.00     0.118 C 
HETATM   16  C   UNL     1      31.008  43.509  56.131  1.00  0.00     0.026 C 
ENDBRANCH  12  15
ENDBRANCH   7  11
ENDBRANCH   1   5
BRANCH   2  17
HETATM   17  C   UNL     1      25.232  48.578  49.204  1.00  0.00     0.144 C 
BRANCH  17  18
HETATM   18  C   UNL     1      23.766  48.353  49.041  1.00  0.00    -0.014 A 
HETATM   19  C   UNL     1      22.712  49.323  48.990  1.00  0.00     0.006 A 
HETATM   20  C   UNL     1      21.534  48.604  48.822  1.00  0.00     0.088 A 
HETATM   21  C   UNL     1      22.620  50.726  49.062  1.00  0.00     0.017 A 
HETATM   22  C   UNL     1      20.273  49.181  48.706  1.00  0.00     0.074 A 
HETATM   23  O   UNL     1      21.798  47.271  48.786  1.00  0.00    -0.321 OA
HETATM   24  C   UNL     1      20.203  50.578  48.749  1.00  0.00     0.070 A 
HETATM   25  C   UNL     1      21.362  51.338  48.933  1.00  0.00     0.038 A 
HETATM   26  C   UNL     1      23.139  47.126  48.926  1.00  0.00     0.151 A 
BRANCH  24  27
HETATM   27  O   UNL     1      18.937  51.084  48.608  1.00  0.00    -0.356 OA
HETATM   28  C   UNL     1      18.388  51.761  49.732  1.00  0.00     0.210 C 
ENDBRANCH  24  27
ENDBRANCH  17  18
ENDBRANCH   2  17
TORSDOF 6
ENDMDL
MODEL 8
REMARK VINA RESULT:      -7.8      3.260      6.883
REMARK  6 active torsions:
REMARK  status: ('A' for Active; 'I' for Inactive)
REMARK    1  A    between atoms: C_2  and  N_3 
REMARK       I    between atoms: N_3  and  C_4 
REMARK    2  A    between atoms: C_4  and  C_5 
REMARK    3  A    between atoms: C_7  and  N_8 
REMARK       I    between atoms: N_8  and  C_9 
REMARK    4  A    between atoms: C_9  and  C_10 
REMARK    5  A    between atoms: C_10  and  C_11 
REMARK    6  A    between atoms: C_15  and  O_16 
ROOT
HETATM    1  N   UNL     1      21.838  50.422  48.106  1.00  0.00    -0.327 N 
HETATM    2  C   UNL     1      23.031  50.788  48.709  1.00  0.00     0.226 C 
HETATM    3  O   UNL     1      23.154  51.232  49.850  1.00  0.00    -0.273 OA
HETATM    4  H   UNL     1      21.868  50.211  47.116  1.00  0.00     0.169 HD
ENDROOT
BRANCH   1   5
HETATM    5  C   UNL     1      20.575  50.319  48.727  1.00  0.00     0.035 A 
HETATM    6  C   UNL     1      19.560  51.266  48.559  1.00  0.00     0.046 A 
HETATM    7  C   UNL     1      18.326  51.120  49.209  1.00  0.00     0.034 A 
HETATM    8  C   UNL     1      18.123  50.021  50.054  1.00  0.00     0.017 A 
HETATM    9  C   UNL     1      19.137  49.082  50.240  1.00  0.00     0.003 A 
HETATM   10  C   UNL     1      20.359  49.233  49.583  1.00  0.00     0.029 A 
BRANCH   7  11
HETATM   11  C   UNL     1      17.228  52.124  49.077  1.00  0.00     0.251 C 
HETATM   12  N   UNL     1      16.812  52.759  50.231  1.00  0.00    -0.357 N 
HETATM   13  H   UNL     1      17.348  52.663  51.083  1.00  0.00     0.162 HD
HETATM   14  O   UNL     1      16.745  52.359  47.974  1.00  0.00    -0.268 OA
BRANCH  12  15
HETATM   15  C   UNL     1      15.767  53.762  50.216  1.00  0.00     0.118 C 
HETATM   16  C   UNL     1      14.413  53.156  50.533  1.00  0.00     0.026 C 
ENDBRANCH  12  15
ENDBRANCH   7  11
ENDBRANCH   1   5
BRANCH   2  17
HETATM   17  C   UNL     1      24.245  50.608  47.813  1.00  0.00     0.144 C 
BRANCH  17  18
HETATM   18  C   UNL     1      25.291  49.733  48.420  1.00  0.00    -0.014 A 
HETATM   19  C   UNL     1      25.124  48.500  49.132  1.00  0.00     0.006 A 
HETATM   20  C   UNL     1      26.401  48.082  49.484  1.00  0.00     0.088 A 
HETATM   21  C   UNL     1      24.039  47.688  49.513  1.00  0.00     0.017 A 
HETATM   22  C   UNL     1      26.679  46.907  50.176  1.00  0.00     0.074 A 
HETATM   23  O   UNL     1      27.326  48.981  49.053  1.00  0.00    -0.321 OA
HETATM   24  C   UNL     1      25.592  46.096  50.521  1.00  0.00     0.070 A 
HETATM   25  C   UNL     1      24.289  46.488  50.200  1.00  0.00     0.038 A 
HETATM   26  C   UNL     1      26.653  49.974  48.422  1.00  0.00     0.151 A 
BRANCH  24  27
HETATM   27  O   UNL     1      25.934  44.946  51.182  1.00  0.00    -0.356 OA
HETATM   28  C   UNL     1      26.536  45.095  52.462  1.00  0.00     0.210 C 
ENDBRANCH  24  27
ENDBRANCH  17  18
ENDBRANCH   2  17
TORSDOF 6
ENDMDL
MODEL 9
REMARK VINA RESULT:      -7.8      3.378      9.501
REMARK  6 active torsions:
REMARK  status: ('A' for Active; 'I' for Inactive)
REMARK    1  A    between atoms: C_2  and  N_3 
REMARK       I    between atoms: N_3  and  C_4 
REMARK    2  A    between atoms: C_4  and  C_5 
REMARK    3  A    between atoms: C_7  and  N_8 
REMARK       I    between atoms: N_8  and  C_9 
REMARK    4  A    between atoms: C_9  and  C_10 
REMARK    5  A    between atoms: C_10  and  C_11 
REMARK    6  A    between atoms: C_15  and  O_16 
ROOT
HETATM    1  N   UNL     1      23.154  49.902  48.461  1.00  0.00    -0.327 N 
HETATM    2  C   UNL     1      22.402  50.718  49.293  1.00  0.00     0.226 C 
HETATM    3  O   UNL     1      22.700  51.045  50.440  1.00  0.00    -0.273 OA
HETATM    4  H   UNL     1      22.719  49.597  47.599  1.00  0.00     0.169 HD
ENDROOT
BRANCH   1   5
HETATM    5  C   UNL     1      24.466  49.439  48.696  1.00  0.00     0.035 A 
HETATM    6  C   UNL     1      24.751  48.261  49.393  1.00  0.00     0.046 A 
HETATM    7  C   UNL     1      26.075  47.854  49.606  1.00  0.00     0.034 A 
HETATM    8  C   UNL     1      27.123  48.653  49.131  1.00  0.00     0.017 A 
HETATM    9  C   UNL     1      26.848  49.839  48.449  1.00  0.00     0.003 A 
HETATM   10  C   UNL     1      25.525  50.231  48.237  1.00  0.00     0.029 A 
BRANCH   7  11
HETATM   11  C   UNL     1      26.419  46.617  50.371  1.00  0.00     0.251 C 
HETATM   12  N   UNL     1      26.066  46.582  51.705  1.00  0.00    -0.357 N 
HETATM   13  H   UNL     1      25.457  47.293  52.087  1.00  0.00     0.162 HD
HETATM   14  O   UNL     1      26.982  45.686  49.804  1.00  0.00    -0.268 OA
BRANCH  12  15
HETATM   15  C   UNL     1      26.335  45.428  52.537  1.00  0.00     0.118 C 
HETATM   16  C   UNL     1      25.183  44.442  52.509  1.00  0.00     0.026 C 
ENDBRANCH  12  15
ENDBRANCH   7  11
ENDBRANCH   1   5
BRANCH   2  17
HETATM   17  C   UNL     1      21.105  51.196  48.662  1.00  0.00     0.144 C 
BRANCH  17  18
HETATM   18  C   UNL     1      19.934  50.343  49.023  1.00  0.00    -0.014 A 
HETATM   19  C   UNL     1      19.561  49.065  48.492  1.00  0.00     0.006 A 
HETATM   20  C   UNL     1      18.401  48.695  49.162  1.00  0.00     0.088 A 
HETATM   21  C   UNL     1      20.075  48.178  47.528  1.00  0.00     0.017 A 
HETATM   22  C   UNL     1      17.723  47.498  48.950  1.00  0.00     0.074 A 
HETATM   23  O   UNL     1      18.036  49.663  50.044  1.00  0.00    -0.321 OA
HETATM   24  C   UNL     1      18.263  46.614  48.010  1.00  0.00     0.070 A 
HETATM   25  C   UNL     1      19.419  46.956  47.303  1.00  0.00     0.038 A 
HETATM   26  C   UNL     1      18.957  50.654  49.950  1.00  0.00     0.151 A 
BRANCH  24  27
HETATM   27  O   UNL     1      17.560  45.447  47.864  1.00  0.00    -0.356 OA
HETATM   28  C   UNL     1      17.527  44.876  46.562  1.00  0.00     0.210 C 
ENDBRANCH  24  27
ENDBRANCH  17  18
ENDBRANCH   2  17
TORSDOF 6
ENDMDL
MODEL 10
REMARK VINA RESULT:      -7.7      4.450      7.773
REMARK  6 active torsions:
REMARK  status: ('A' for Active; 'I' for Inactive)
REMARK    1  A    between atoms: C_2  and  N_3 
REMARK       I    between atoms: N_3  and  C_4 
REMARK    2  A    between atoms: C_4  and  C_5 
REMARK    3  A    between atoms: C_7  and  N_8 
REMARK       I    between atoms: N_8  and  C_9 
REMARK    4  A    between atoms: C_9  and  C_10 
REMARK    5  A    between atoms: C_10  and  C_11 
REMARK    6  A    between atoms: C_15  and  O_16 
ROOT
HETATM    1  N   UNL     1      25.412  44.532  53.036  1.00  0.00    -0.327 N 
HETATM    2  C   UNL     1      25.489  44.236  51.684  1.00  0.00     0.226 C 
HETATM    3  O   UNL     1      26.216  44.797  50.866  1.00  0.00    -0.273 OA
HETATM    4  H   UNL     1      24.667  44.092  53.563  1.00  0.00     0.169 HD
ENDROOT
BRANCH   1   5
HETATM    5  C   UNL     1      26.261  45.395  53.761  1.00  0.00     0.035 A 
HETATM    6  C   UNL     1      27.440  44.968  54.381  1.00  0.00     0.046 A 
HETATM    7  C   UNL     1      28.242  45.867  55.097  1.00  0.00     0.034 A 
HETATM    8  C   UNL     1      27.841  47.205  55.208  1.00  0.00     0.017 A 
HETATM    9  C   UNL     1      26.658  47.635  54.607  1.00  0.00     0.003 A 
HETATM   10  C   UNL     1      25.870  46.733  53.890  1.00  0.00     0.029 A 
BRANCH   7  11
HETATM   11  C   UNL     1      29.492  45.443  55.797  1.00  0.00     0.251 C 
HETATM   12  N   UNL     1      30.131  44.316  55.317  1.00  0.00    -0.357 N 
HETATM   13  H   UNL     1      29.849  43.911  54.435  1.00  0.00     0.162 HD
HETATM   14  O   UNL     1      29.912  46.095  56.747  1.00  0.00    -0.268 OA
BRANCH  12  15
HETATM   15  C   UNL     1      31.358  43.824  55.908  1.00  0.00     0.118 C 
HETATM   16  C   UNL     1      31.081  42.950  57.116  1.00  0.00     0.026 C 
ENDBRANCH  12  15
ENDBRANCH   7  11
ENDBRANCH   1   5
BRANCH   2  17
HETATM   17  C   UNL     1      24.553  43.119  51.253  1.00  0.00     0.144 C 
BRANCH  17  18
HETATM   18  C   UNL     1      25.242  42.056  50.463  1.00  0.00    -0.014 A 
HETATM   19  C   UNL     1      26.455  41.357  50.770  1.00  0.00     0.006 A 
HETATM   20  C   UNL     1      26.664  40.469  49.722  1.00  0.00     0.088 A 
HETATM   21  C   UNL     1      27.396  41.370  51.817  1.00  0.00     0.017 A 
HETATM   22  C   UNL     1      27.735  39.583  49.647  1.00  0.00     0.074 A 
HETATM   23  O   UNL     1      25.677  40.594  48.796  1.00  0.00    -0.321 OA
HETATM   24  C   UNL     1      28.644  39.588  50.711  1.00  0.00     0.070 A 
HETATM   25  C   UNL     1      28.480  40.477  51.777  1.00  0.00     0.038 A 
HETATM   26  C   UNL     1      24.830  41.554  49.242  1.00  0.00     0.151 A 
BRANCH  24  27
HETATM   27  O   UNL     1      29.663  38.679  50.586  1.00  0.00    -0.356 OA
HETATM   28  C   UNL     1      29.871  38.122  49.294  1.00  0.00     0.210 C 
ENDBRANCH  24  27
ENDBRANCH  17  18
ENDBRANCH   2  17
TORSDOF 6
ENDMDL
