MODEL 1
REMARK VINA RESULT:     -11.2      0.000      0.000
REMARK  4 active torsions:
REMARK  status: ('A' for Active; 'I' for Inactive)
REMARK    1  A    between atoms: C_4  and  C_5 
REMARK    2  A    between atoms: C_16  and  C_17 
REMARK    3  A    between atoms: C_20  and  C_21 
REMARK    4  A    between atoms: C_21  and  N_22 
REMARK       I    between atoms: N_22  and  C_23 
REMARK       I    between atoms: C_23  and  N_24 
ROOT
HETATM    1  C   UNL     1      25.630  42.017  50.367  1.00  0.00     0.067 C 
HETATM    2  C   UNL     1      25.705  42.614  48.948  1.00  0.00     0.001 C 
HETATM    3  C   UNL     1      25.618  44.155  48.975  1.00  0.00     0.040 C 
HETATM    4  C   UNL     1      24.288  44.634  49.583  1.00  0.00     0.206 C 
HETATM    5  N   UNL     1      23.566  43.394  50.080  1.00  0.00    -0.065 N 
HETATM    6  H   UNL     1      22.718  43.721  50.594  1.00  0.00     0.280 HD
HETATM    7  C   UNL     1      24.372  42.591  51.077  1.00  0.00     0.246 C 
HETATM    8  C   UNL     1      24.447  42.115  48.182  1.00  0.00     0.033 C 
HETATM    9  C   UNL     1      23.163  42.519  48.922  1.00  0.00     0.236 C 
ENDROOT
BRANCH   1  10
HETATM   10  C   UNL     1      26.804  42.067  51.313  1.00  0.00     0.038 C 
HETATM   11  N   UNL     1      27.995  41.381  51.355  1.00  0.00    -0.277 N 
HETATM   12  C   UNL     1      28.456  40.207  50.652  1.00  0.00     0.179 C 
HETATM   13  N   UNL     1      28.882  41.929  52.208  1.00  0.00    -0.172 NA
HETATM   14  C   UNL     1      28.191  42.822  52.923  1.00  0.00     0.089 C 
HETATM   15  C   UNL     1      26.879  42.918  52.410  1.00  0.00     0.061 C 
BRANCH  14  16
HETATM   16  C   UNL     1      28.781  43.609  54.006  1.00  0.00    -0.005 A 
HETATM   17  C   UNL     1      29.817  43.075  54.789  1.00  0.00     0.026 A 
HETATM   18  C   UNL     1      30.342  43.782  55.885  1.00  0.00    -0.025 A 
HETATM   19  C   UNL     1      29.821  45.058  56.199  1.00  0.00    -0.026 A 
HETATM   20  C   UNL     1      31.367  43.243  56.679  1.00  0.00     0.012 A 
HETATM   21  C   UNL     1      28.805  45.599  55.397  1.00  0.00     0.013 A 
HETATM   22  C   UNL     1      30.331  45.752  57.308  1.00  0.00     0.012 A 
HETATM   23  C   UNL     1      28.293  44.883  54.310  1.00  0.00     0.014 A 
HETATM   24  C   UNL     1      31.344  45.199  58.092  1.00  0.00     0.001 A 
HETATM   25  C   UNL     1      31.863  43.947  57.777  1.00  0.00     0.001 A 
ENDBRANCH  14  16
ENDBRANCH   1  10
BRANCH   4  26
HETATM   26  C   UNL     1      24.507  45.717  50.671  1.00  0.00     0.157 C 
BRANCH  26  27
HETATM   27  N   UNL     1      23.853  46.998  50.458  1.00  0.00    -0.341 N 
HETATM   28  C   UNL     1      24.339  48.005  49.678  1.00  0.00     0.318 C 
HETATM   29  N   UNL     1      23.422  48.967  49.310  1.00  0.00    -0.330 N 
HETATM   30  O   UNL     1      25.527  48.033  49.360  1.00  0.00    -0.247 OA
HETATM   31  C   UNL     1      21.991  48.666  49.110  1.00  0.00     0.153 C 
HETATM   32  C   UNL     1      23.912  50.043  48.439  1.00  0.00     0.153 C 
HETATM   33  C   UNL     1      21.135  49.935  49.071  1.00  0.00     0.187 C 
HETATM   34  O   UNL     1      21.638  50.863  48.105  1.00  0.00    -0.388 OA
HETATM   35  C   UNL     1      22.977  51.253  48.435  1.00  0.00     0.187 C 
HETATM   36  H   UNL     1      22.997  47.181  50.963  1.00  0.00     0.164 HD
ENDBRANCH  26  27
ENDBRANCH   4  26
TORSDOF 4
ENDMDL
MODEL 2
REMARK VINA RESULT:     -10.6      2.674      4.108
REMARK  4 active torsions:
REMARK  status: ('A' for Active; 'I' for Inactive)
REMARK    1  A    between atoms: C_4  and  C_5 
REMARK    2  A    between atoms: C_16  and  C_17 
REMARK    3  A    between atoms: C_20  and  C_21 
REMARK    4  A    between atoms: C_21  and  N_22 
REMARK       I    between atoms: N_22  and  C_23 
REMARK       I    between atoms: C_23  and  N_24 
ROOT
HETATM    1  C   UNL     1      27.818  39.193  48.751  1.00  0.00     0.067 C 
HETATM    2  C   UNL     1      27.892  40.087  47.496  1.00  0.00     0.001 C 
HETATM    3  C   UNL     1      26.795  41.173  47.508  1.00  0.00     0.040 C 
HETATM    4  C   UNL     1      25.387  40.554  47.523  1.00  0.00     0.206 C 
HETATM    5  N   UNL     1      25.575  39.053  47.661  1.00  0.00    -0.065 N 
HETATM    6  H   UNL     1      24.625  38.637  47.786  1.00  0.00     0.280 HD
HETATM    7  C   UNL     1      26.365  38.658  48.889  1.00  0.00     0.246 C 
HETATM    8  C   UNL     1      27.593  39.173  46.273  1.00  0.00     0.033 C 
HETATM    9  C   UNL     1      26.228  38.487  46.427  1.00  0.00     0.236 C 
ENDROOT
BRANCH   1  10
HETATM   10  C   UNL     1      28.305  39.671  50.095  1.00  0.00     0.038 C 
HETATM   11  N   UNL     1      29.164  39.125  51.022  1.00  0.00    -0.277 N 
HETATM   12  C   UNL     1      29.726  37.802  51.152  1.00  0.00     0.179 C 
HETATM   13  N   UNL     1      29.542  40.010  51.965  1.00  0.00    -0.172 NA
HETATM   14  C   UNL     1      28.735  41.065  51.815  1.00  0.00     0.089 C 
HETATM   15  C   UNL     1      27.927  40.878  50.672  1.00  0.00     0.061 C 
BRANCH  14  16
HETATM   16  C   UNL     1      28.783  42.239  52.687  1.00  0.00    -0.005 A 
HETATM   17  C   UNL     1      29.780  42.355  53.668  1.00  0.00     0.026 A 
HETATM   18  C   UNL     1      29.796  43.435  54.569  1.00  0.00    -0.025 A 
HETATM   19  C   UNL     1      28.793  44.426  54.477  1.00  0.00    -0.026 A 
HETATM   20  C   UNL     1      30.783  43.545  55.561  1.00  0.00     0.012 A 
HETATM   21  C   UNL     1      27.814  44.321  53.477  1.00  0.00     0.013 A 
HETATM   22  C   UNL     1      28.797  45.491  55.392  1.00  0.00     0.012 A 
HETATM   23  C   UNL     1      27.813  43.240  52.589  1.00  0.00     0.014 A 
HETATM   24  C   UNL     1      29.780  45.582  56.378  1.00  0.00     0.001 A 
HETATM   25  C   UNL     1      30.773  44.611  56.461  1.00  0.00     0.001 A 
ENDBRANCH  14  16
ENDBRANCH   1  10
BRANCH   4  26
HETATM   26  C   UNL     1      24.491  41.181  48.621  1.00  0.00     0.157 C 
BRANCH  26  27
HETATM   27  N   UNL     1      24.685  42.596  48.892  1.00  0.00    -0.341 N 
HETATM   28  C   UNL     1      24.383  43.217  50.067  1.00  0.00     0.318 C 
HETATM   29  N   UNL     1      24.971  44.451  50.256  1.00  0.00    -0.330 N 
HETATM   30  O   UNL     1      23.616  42.693  50.874  1.00  0.00    -0.247 OA
HETATM   31  C   UNL     1      26.292  44.795  49.697  1.00  0.00     0.153 C 
HETATM   32  C   UNL     1      24.691  45.124  51.532  1.00  0.00     0.153 C 
HETATM   33  C   UNL     1      26.555  46.303  49.728  1.00  0.00     0.187 C 
HETATM   34  O   UNL     1      26.366  46.831  51.045  1.00  0.00    -0.388 OA
HETATM   35  C   UNL     1      25.017  46.617  51.480  1.00  0.00     0.187 C 
HETATM   36  H   UNL     1      25.023  43.179  48.139  1.00  0.00     0.164 HD
ENDBRANCH  26  27
ENDBRANCH   4  26
TORSDOF 4
ENDMDL
MODEL 3
REMARK VINA RESULT:     -10.5      1.553      2.074
REMARK  4 active torsions:
REMARK  status: ('A' for Active; 'I' for Inactive)
REMARK    1  A    between atoms: C_4  and  C_5 
REMARK    2  A    between atoms: C_16  and  C_17 
REMARK    3  A    between atoms: C_20  and  C_21 
REMARK    4  A    between atoms: C_21  and  N_22 
REMARK       I    between atoms: N_22  and  C_23 
REMARK       I    between atoms: C_23  and  N_24 
ROOT
HETATM    1  C   UNL     1      23.703  42.785  49.657  1.00  0.00     0.067 C 
HETATM    2  C   UNL     1      23.869  43.133  48.164  1.00  0.00     0.001 C 
HETATM    3  C   UNL     1      24.207  44.626  47.964  1.00  0.00     0.040 C 
HETATM    4  C   UNL     1      23.091  45.535  48.505  1.00  0.00     0.206 C 
HETATM    5  N   UNL     1      22.082  44.626  49.186  1.00  0.00    -0.065 N 
HETATM    6  H   UNL     1      21.382  45.244  49.654  1.00  0.00     0.280 HD
HETATM    7  C   UNL     1      22.686  43.779  50.285  1.00  0.00     0.246 C 
HETATM    8  C   UNL     1      22.486  42.901  47.491  1.00  0.00     0.033 C 
HETATM    9  C   UNL     1      21.400  43.744  48.174  1.00  0.00     0.236 C 
ENDROOT
BRANCH   1  10
HETATM   10  C   UNL     1      24.891  42.639  50.575  1.00  0.00     0.038 C 
HETATM   11  N   UNL     1      25.878  41.687  50.675  1.00  0.00    -0.277 N 
HETATM   12  C   UNL     1      26.008  40.369  50.100  1.00  0.00     0.179 C 
HETATM   13  N   UNL     1      26.906  42.083  51.451  1.00  0.00    -0.172 NA
HETATM   14  C   UNL     1      26.485  43.188  52.073  1.00  0.00     0.089 C 
HETATM   15  C   UNL     1      25.216  43.553  51.571  1.00  0.00     0.061 C 
BRANCH  14  16
HETATM   16  C   UNL     1      27.293  43.910  53.056  1.00  0.00    -0.005 A 
HETATM   17  C   UNL     1      28.445  43.321  53.600  1.00  0.00     0.026 A 
HETATM   18  C   UNL     1      29.190  43.964  54.604  1.00  0.00    -0.025 A 
HETATM   19  C   UNL     1      28.774  45.233  55.068  1.00  0.00    -0.026 A 
HETATM   20  C   UNL     1      30.333  43.369  55.161  1.00  0.00     0.012 A 
HETATM   21  C   UNL     1      27.638  45.831  54.502  1.00  0.00     0.013 A 
HETATM   22  C   UNL     1      29.506  45.863  56.086  1.00  0.00     0.012 A 
HETATM   23  C   UNL     1      26.908  45.177  53.503  1.00  0.00     0.014 A 
HETATM   24  C   UNL     1      30.635  45.255  56.636  1.00  0.00     0.001 A 
HETATM   25  C   UNL     1      31.050  44.010  56.172  1.00  0.00     0.001 A 
ENDBRANCH  14  16
ENDBRANCH   1  10
BRANCH   4  26
HETATM   26  C   UNL     1      23.650  46.656  49.419  1.00  0.00     0.157 C 
BRANCH  26  27
HETATM   27  N   UNL     1      22.786  47.802  49.649  1.00  0.00    -0.341 N 
HETATM   28  C   UNL     1      22.562  48.805  48.753  1.00  0.00     0.318 C 
HETATM   29  N   UNL     1      21.452  49.586  49.001  1.00  0.00    -0.330 N 
HETATM   30  O   UNL     1      23.331  48.987  47.810  1.00  0.00    -0.247 OA
HETATM   31  C   UNL     1      20.239  49.058  49.654  1.00  0.00     0.153 C 
HETATM   32  C   UNL     1      21.167  50.650  48.029  1.00  0.00     0.153 C 
HETATM   33  C   UNL     1      19.314  50.177  50.141  1.00  0.00     0.187 C 
HETATM   34  O   UNL     1      19.009  51.089  49.082  1.00  0.00    -0.388 OA
HETATM   35  C   UNL     1      20.208  51.701  48.589  1.00  0.00     0.187 C 
HETATM   36  H   UNL     1      22.355  47.895  50.558  1.00  0.00     0.164 HD
ENDBRANCH  26  27
ENDBRANCH   4  26
TORSDOF 4
ENDMDL
MODEL 4
REMARK VINA RESULT:     -10.5      3.752      6.954
REMARK  4 active torsions:
REMARK  status: ('A' for Active; 'I' for Inactive)
REMARK    1  A    between atoms: C_4  and  C_5 
REMARK    2  A    between atoms: C_16  and  C_17 
REMARK    3  A    between atoms: C_20  and  C_21 
REMARK    4  A    between atoms: C_21  and  N_22 
REMARK       I    between atoms: N_22  and  C_23 
REMARK       I    between atoms: C_23  and  N_24 
ROOT
HETATM    1  C   UNL     1      24.832  44.117  50.601  1.00  0.00     0.067 C 
HETATM    2  C   UNL     1      24.275  42.687  50.752  1.00  0.00     0.001 C 
HETATM    3  C   UNL     1      25.328  41.625  50.369  1.00  0.00     0.040 C 
HETATM    4  C   UNL     1      25.769  41.772  48.902  1.00  0.00     0.206 C 
HETATM    5  N   UNL     1      25.097  43.026  48.370  1.00  0.00    -0.065 N 
HETATM    6  H   UNL     1      25.481  43.194  47.413  1.00  0.00     0.280 HD
HETATM    7  C   UNL     1      25.425  44.266  49.172  1.00  0.00     0.246 C 
HETATM    8  C   UNL     1      23.113  42.545  49.728  1.00  0.00     0.033 C 
HETATM    9  C   UNL     1      23.605  42.837  48.303  1.00  0.00     0.236 C 
ENDROOT
BRANCH   1  10
HETATM   10  C   UNL     1      25.791  44.706  51.604  1.00  0.00     0.038 C 
HETATM   11  N   UNL     1      25.890  45.953  52.177  1.00  0.00    -0.277 N 
HETATM   12  C   UNL     1      25.262  47.212  51.857  1.00  0.00     0.179 C 
HETATM   13  N   UNL     1      26.726  45.975  53.234  1.00  0.00    -0.172 NA
HETATM   14  C   UNL     1      27.378  44.809  53.203  1.00  0.00     0.089 C 
HETATM   15  C   UNL     1      26.840  43.999  52.180  1.00  0.00     0.061 C 
BRANCH  14  16
HETATM   16  C   UNL     1      28.426  44.454  54.160  1.00  0.00    -0.005 A 
HETATM   17  C   UNL     1      28.599  45.202  55.335  1.00  0.00     0.026 A 
HETATM   18  C   UNL     1      29.650  44.927  56.229  1.00  0.00    -0.025 A 
HETATM   19  C   UNL     1      30.544  43.871  55.940  1.00  0.00    -0.026 A 
HETATM   20  C   UNL     1      29.834  45.684  57.396  1.00  0.00     0.012 A 
HETATM   21  C   UNL     1      30.351  43.108  54.778  1.00  0.00     0.013 A 
HETATM   22  C   UNL     1      31.606  43.613  56.821  1.00  0.00     0.012 A 
HETATM   23  C   UNL     1      29.300  43.394  53.900  1.00  0.00     0.014 A 
HETATM   24  C   UNL     1      31.780  44.380  57.973  1.00  0.00     0.001 A 
HETATM   25  C   UNL     1      30.894  45.413  58.262  1.00  0.00     0.001 A 
ENDBRANCH  14  16
ENDBRANCH   1  10
BRANCH   4  26
HETATM   26  C   UNL     1      27.313  41.773  48.760  1.00  0.00     0.157 C 
BRANCH  26  27
HETATM   27  N   UNL     1      27.879  40.860  47.781  1.00  0.00    -0.341 N 
HETATM   28  C   UNL     1      28.079  39.526  47.978  1.00  0.00     0.318 C 
HETATM   29  N   UNL     1      28.270  38.778  46.834  1.00  0.00    -0.330 N 
HETATM   30  O   UNL     1      28.103  39.057  49.115  1.00  0.00    -0.247 OA
HETATM   31  C   UNL     1      27.642  39.125  45.545  1.00  0.00     0.153 C 
HETATM   32  C   UNL     1      28.450  37.332  47.018  1.00  0.00     0.153 C 
HETATM   33  C   UNL     1      28.287  38.379  44.372  1.00  0.00     0.187 C 
HETATM   34  O   UNL     1      28.303  36.968  44.609  1.00  0.00    -0.388 OA
HETATM   35  C   UNL     1      29.064  36.667  45.785  1.00  0.00     0.187 C 
HETATM   36  H   UNL     1      28.195  41.246  46.903  1.00  0.00     0.164 HD
ENDBRANCH  26  27
ENDBRANCH   4  26
TORSDOF 4
ENDMDL
MODEL 5
REMARK VINA RESULT:     -10.4      2.917      3.755
REMARK  4 active torsions:
REMARK  status: ('A' for Active; 'I' for Inactive)
REMARK    1  A    between atoms: C_4  and  C_5 
REMARK    2  A    between atoms: C_16  and  C_17 
REMARK    3  A    between atoms: C_20  and  C_21 
REMARK    4  A    between atoms: C_21  and  N_22 
REMARK       I    between atoms: N_22  and  C_23 
REMARK       I    between atoms: C_23  and  N_24 
ROOT
HETATM    1  C   UNL     1      27.633  41.050  50.205  1.00  0.00     0.067 C 
HETATM    2  C   UNL     1      27.748  41.042  48.667  1.00  0.00     0.001 C 
HETATM    3  C   UNL     1      26.450  41.545  47.999  1.00  0.00     0.040 C 
HETATM    4  C   UNL     1      25.249  40.652  48.355  1.00  0.00     0.206 C 
HETATM    5  N   UNL     1      25.747  39.640  49.373  1.00  0.00    -0.065 N 
HETATM    6  H   UNL     1      24.913  39.105  49.703  1.00  0.00     0.280 HD
HETATM    7  C   UNL     1      26.345  40.278  50.607  1.00  0.00     0.246 C 
HETATM    8  C   UNL     1      27.918  39.557  48.235  1.00  0.00     0.033 C 
HETATM    9  C   UNL     1      26.745  38.705  48.742  1.00  0.00     0.236 C 
ENDROOT
BRANCH   1  10
HETATM   10  C   UNL     1      27.719  42.328  51.001  1.00  0.00     0.038 C 
HETATM   11  N   UNL     1      27.058  43.531  50.904  1.00  0.00    -0.277 N 
HETATM   12  C   UNL     1      26.217  44.088  49.872  1.00  0.00     0.179 C 
HETATM   13  N   UNL     1      27.238  44.311  51.988  1.00  0.00    -0.172 NA
HETATM   14  C   UNL     1      28.223  43.738  52.686  1.00  0.00     0.089 C 
HETATM   15  C   UNL     1      28.569  42.509  52.085  1.00  0.00     0.061 C 
BRANCH  14  16
HETATM   16  C   UNL     1      28.762  44.307  53.922  1.00  0.00    -0.005 A 
HETATM   17  C   UNL     1      29.801  43.660  54.608  1.00  0.00     0.026 A 
HETATM   18  C   UNL     1      30.278  44.146  55.839  1.00  0.00    -0.025 A 
HETATM   19  C   UNL     1      29.705  45.315  56.389  1.00  0.00    -0.026 A 
HETATM   20  C   UNL     1      31.306  43.491  56.535  1.00  0.00     0.012 A 
HETATM   21  C   UNL     1      28.686  45.975  55.686  1.00  0.00     0.013 A 
HETATM   22  C   UNL     1      30.167  45.786  57.628  1.00  0.00     0.012 A 
HETATM   23  C   UNL     1      28.223  45.477  54.463  1.00  0.00     0.014 A 
HETATM   24  C   UNL     1      31.184  45.118  58.312  1.00  0.00     0.001 A 
HETATM   25  C   UNL     1      31.755  43.973  57.765  1.00  0.00     0.001 A 
ENDBRANCH  14  16
ENDBRANCH   1  10
BRANCH   4  26
HETATM   26  C   UNL     1      24.031  41.484  48.834  1.00  0.00     0.157 C 
BRANCH  26  27
HETATM   27  N   UNL     1      23.310  42.231  47.817  1.00  0.00    -0.341 N 
HETATM   28  C   UNL     1      22.795  43.482  47.982  1.00  0.00     0.318 C 
HETATM   29  N   UNL     1      22.484  44.155  46.818  1.00  0.00    -0.330 N 
HETATM   30  O   UNL     1      22.613  43.941  49.109  1.00  0.00    -0.247 OA
HETATM   31  C   UNL     1      23.230  43.955  45.561  1.00  0.00     0.153 C 
HETATM   32  C   UNL     1      21.962  45.520  46.969  1.00  0.00     0.153 C 
HETATM   33  C   UNL     1      22.480  44.519  44.351  1.00  0.00     0.187 C 
HETATM   34  O   UNL     1      22.124  45.890  44.562  1.00  0.00    -0.388 OA
HETATM   35  C   UNL     1      21.264  46.013  45.701  1.00  0.00     0.187 C 
HETATM   36  H   UNL     1      23.131  41.774  46.934  1.00  0.00     0.164 HD
ENDBRANCH  26  27
ENDBRANCH   4  26
TORSDOF 4
ENDMDL
MODEL 6
REMARK VINA RESULT:     -10.0      4.143      5.985
REMARK  4 active torsions:
REMARK  status: ('A' for Active; 'I' for Inactive)
REMARK    1  A    between atoms: C_4  and  C_5 
REMARK    2  A    between atoms: C_16  and  C_17 
REMARK    3  A    between atoms: C_20  and  C_21 
REMARK    4  A    between atoms: C_21  and  N_22 
REMARK       I    between atoms: N_22  and  C_23 
REMARK       I    between atoms: C_23  and  N_24 
ROOT
HETATM    1  C   UNL     1      27.891  40.270  50.348  1.00  0.00     0.067 C 
HETATM    2  C   UNL     1      28.384  40.035  48.906  1.00  0.00     0.001 C 
HETATM    3  C   UNL     1      27.393  40.605  47.868  1.00  0.00     0.040 C 
HETATM    4  C   UNL     1      26.014  39.933  47.976  1.00  0.00     0.206 C 
HETATM    5  N   UNL     1      26.071  39.016  49.185  1.00  0.00    -0.065 N 
HETATM    6  H   UNL     1      25.106  38.644  49.332  1.00  0.00     0.280 HD
HETATM    7  C   UNL     1      26.436  39.735  50.465  1.00  0.00     0.246 C 
HETATM    8  C   UNL     1      28.414  38.496  48.685  1.00  0.00     0.033 C 
HETATM    9  C   UNL     1      27.031  37.881  48.942  1.00  0.00     0.236 C 
ENDROOT
BRANCH   1  10
HETATM   10  C   UNL     1      27.980  41.624  51.007  1.00  0.00     0.038 C 
HETATM   11  N   UNL     1      27.393  42.836  50.726  1.00  0.00    -0.277 N 
HETATM   12  C   UNL     1      26.667  43.311  49.573  1.00  0.00     0.179 C 
HETATM   13  N   UNL     1      27.526  43.724  51.731  1.00  0.00    -0.172 NA
HETATM   14  C   UNL     1      28.422  43.190  52.568  1.00  0.00     0.089 C 
HETATM   15  C   UNL     1      28.750  41.887  52.133  1.00  0.00     0.061 C 
BRANCH  14  16
HETATM   16  C   UNL     1      28.890  43.869  53.776  1.00  0.00    -0.005 A 
HETATM   17  C   UNL     1      29.919  43.312  54.551  1.00  0.00     0.026 A 
HETATM   18  C   UNL     1      30.329  43.906  55.758  1.00  0.00    -0.025 A 
HETATM   19  C   UNL     1      29.696  45.092  56.194  1.00  0.00    -0.026 A 
HETATM   20  C   UNL     1      31.347  43.342  56.542  1.00  0.00     0.012 A 
HETATM   21  C   UNL     1      28.686  45.661  55.403  1.00  0.00     0.013 A 
HETATM   22  C   UNL     1      30.090  45.671  57.410  1.00  0.00     0.012 A 
HETATM   23  C   UNL     1      28.291  45.057  54.204  1.00  0.00     0.014 A 
HETATM   24  C   UNL     1      31.098  45.093  58.183  1.00  0.00     0.001 A 
HETATM   25  C   UNL     1      31.728  43.931  57.748  1.00  0.00     0.001 A 
ENDBRANCH  14  16
ENDBRANCH   1  10
BRANCH   4  26
HETATM   26  C   UNL     1      24.866  40.974  48.026  1.00  0.00     0.157 C 
BRANCH  26  27
HETATM   27  N   UNL     1      23.522  40.476  47.780  1.00  0.00    -0.341 N 
HETATM   28  C   UNL     1      22.807  40.684  46.638  1.00  0.00     0.318 C 
HETATM   29  N   UNL     1      21.732  39.840  46.448  1.00  0.00    -0.330 N 
HETATM   30  O   UNL     1      23.115  41.587  45.862  1.00  0.00    -0.247 OA
HETATM   31  C   UNL     1      21.717  38.450  46.942  1.00  0.00     0.153 C 
HETATM   32  C   UNL     1      20.968  40.020  45.206  1.00  0.00     0.153 C 
HETATM   33  C   UNL     1      20.307  37.852  46.935  1.00  0.00     0.187 C 
HETATM   34  O   UNL     1      19.703  37.979  45.643  1.00  0.00    -0.388 OA
HETATM   35  C   UNL     1      19.590  39.360  45.277  1.00  0.00     0.187 C 
HETATM   36  H   UNL     1      23.059  39.979  48.527  1.00  0.00     0.164 HD
ENDBRANCH  26  27
ENDBRANCH   4  26
TORSDOF 4
ENDMDL
MODEL 7
REMARK VINA RESULT:      -9.8     17.211     19.394
REMARK  4 active torsions:
REMARK  status: ('A' for Active; 'I' for Inactive)
REMARK    1  A    between atoms: C_4  and  C_5 
REMARK    2  A    between atoms: C_16  and  C_17 
REMARK    3  A    between atoms: C_20  and  C_21 
REMARK    4  A    between atoms: C_21  and  N_22 
REMARK       I    between atoms: N_22  and  C_23 
REMARK       I    between atoms: C_23  and  N_24 
ROOT
HETATM    1  C   UNL     1      37.407  41.907  64.345  1.00  0.00     0.067 C 
HETATM    2  C   UNL     1      38.557  41.163  65.053  1.00  0.00     0.001 C 
HETATM    3  C   UNL     1      39.835  42.026  65.120  1.00  0.00     0.040 C 
HETATM    4  C   UNL     1      40.345  42.389  63.715  1.00  0.00     0.206 C 
HETATM    5  N   UNL     1      39.311  41.871  62.730  1.00  0.00    -0.065 N 
HETATM    6  H   UNL     1      39.593  42.212  61.784  1.00  0.00     0.280 HD
HETATM    7  C   UNL     1      37.924  42.423  62.973  1.00  0.00     0.246 C 
HETATM    8  C   UNL     1      38.905  39.929  64.172  1.00  0.00     0.033 C 
HETATM    9  C   UNL     1      39.275  40.366  62.746  1.00  0.00     0.236 C 
ENDROOT
BRANCH   1  10
HETATM   10  C   UNL     1      36.630  43.003  65.031  1.00  0.00     0.038 C 
HETATM   11  N   UNL     1      35.402  43.027  65.650  1.00  0.00    -0.277 N 
HETATM   12  C   UNL     1      34.313  42.080  65.666  1.00  0.00     0.179 C 
HETATM   13  N   UNL     1      35.206  44.146  66.376  1.00  0.00    -0.172 NA
HETATM   14  C   UNL     1      36.193  44.978  66.029  1.00  0.00     0.089 C 
HETATM   15  C   UNL     1      37.090  44.308  65.168  1.00  0.00     0.061 C 
BRANCH  14  16
HETATM   16  C   UNL     1      36.316  46.336  66.559  1.00  0.00    -0.005 A 
HETATM   17  C   UNL     1      36.895  47.352  65.782  1.00  0.00     0.026 A 
HETATM   18  C   UNL     1      37.096  48.644  66.301  1.00  0.00    -0.025 A 
HETATM   19  C   UNL     1      36.699  48.924  67.628  1.00  0.00    -0.026 A 
HETATM   20  C   UNL     1      37.689  49.657  65.532  1.00  0.00     0.012 A 
HETATM   21  C   UNL     1      36.095  47.914  68.392  1.00  0.00     0.013 A 
HETATM   22  C   UNL     1      36.921  50.208  68.152  1.00  0.00     0.012 A 
HETATM   23  C   UNL     1      35.903  46.634  67.860  1.00  0.00     0.014 A 
HETATM   24  C   UNL     1      37.520  51.202  67.377  1.00  0.00     0.001 A 
HETATM   25  C   UNL     1      37.902  50.927  66.068  1.00  0.00     0.001 A 
ENDBRANCH  14  16
ENDBRANCH   1  10
BRANCH   4  26
HETATM   26  C   UNL     1      40.641  43.905  63.580  1.00  0.00     0.157 C 
BRANCH  26  27
HETATM   27  N   UNL     1      40.819  44.647  64.817  1.00  0.00    -0.341 N 
HETATM   28  C   UNL     1      40.936  46.003  64.908  1.00  0.00     0.318 C 
HETATM   29  N   UNL     1      40.725  46.536  66.162  1.00  0.00    -0.330 N 
HETATM   30  O   UNL     1      41.232  46.673  63.919  1.00  0.00    -0.247 OA
HETATM   31  C   UNL     1      39.798  45.929  67.137  1.00  0.00     0.153 C 
HETATM   32  C   UNL     1      40.809  47.998  66.278  1.00  0.00     0.153 C 
HETATM   33  C   UNL     1      40.012  46.476  68.552  1.00  0.00     0.187 C 
HETATM   34  O   UNL     1      39.957  47.906  68.563  1.00  0.00    -0.388 OA
HETATM   35  C   UNL     1      40.985  48.452  67.727  1.00  0.00     0.187 C 
HETATM   36  H   UNL     1      40.912  44.121  65.675  1.00  0.00     0.164 HD
ENDBRANCH  26  27
ENDBRANCH   4  26
TORSDOF 4
ENDMDL
MODEL 8
REMARK VINA RESULT:      -9.8      6.315     10.173
REMARK  4 active torsions:
REMARK  status: ('A' for Active; 'I' for Inactive)
REMARK    1  A    between atoms: C_4  and  C_5 
REMARK    2  A    between atoms: C_16  and  C_17 
REMARK    3  A    between atoms: C_20  and  C_21 
REMARK    4  A    between atoms: C_21  and  N_22 
REMARK       I    between atoms: N_22  and  C_23 
REMARK       I    between atoms: C_23  and  N_24 
ROOT
HETATM    1  C   UNL     1      17.753  51.407  49.187  1.00  0.00     0.067 C 
HETATM    2  C   UNL     1      16.332  50.810  49.220  1.00  0.00     0.001 C 
HETATM    3  C   UNL     1      16.009  50.044  47.919  1.00  0.00     0.040 C 
HETATM    4  C   UNL     1      16.070  50.967  46.690  1.00  0.00     0.206 C 
HETATM    5  N   UNL     1      16.570  52.314  47.183  1.00  0.00    -0.065 N 
HETATM    6  H   UNL     1      16.722  52.911  46.340  1.00  0.00     0.280 HD
HETATM    7  C   UNL     1      17.910  52.235  47.882  1.00  0.00     0.246 C 
HETATM    8  C   UNL     1      15.341  52.006  49.283  1.00  0.00     0.033 C 
HETATM    9  C   UNL     1      15.554  52.953  48.093  1.00  0.00     0.236 C 
ENDROOT
BRANCH   1  10
HETATM   10  C   UNL     1      18.979  50.551  49.387  1.00  0.00     0.038 C 
HETATM   11  N   UNL     1      19.149  49.254  49.812  1.00  0.00    -0.277 N 
HETATM   12  C   UNL     1      18.246  48.319  50.440  1.00  0.00     0.179 C 
HETATM   13  N   UNL     1      20.393  48.790  49.580  1.00  0.00    -0.172 NA
HETATM   14  C   UNL     1      21.120  49.859  49.241  1.00  0.00     0.089 C 
HETATM   15  C   UNL     1      20.275  50.985  49.136  1.00  0.00     0.061 C 
BRANCH  14  16
HETATM   16  C   UNL     1      22.554  49.793  48.957  1.00  0.00    -0.005 A 
HETATM   17  C   UNL     1      23.341  48.768  49.504  1.00  0.00     0.026 A 
HETATM   18  C   UNL     1      24.733  48.733  49.309  1.00  0.00    -0.025 A 
HETATM   19  C   UNL     1      25.349  49.746  48.540  1.00  0.00    -0.026 A 
HETATM   20  C   UNL     1      25.525  47.718  49.869  1.00  0.00     0.012 A 
HETATM   21  C   UNL     1      24.555  50.753  47.971  1.00  0.00     0.013 A 
HETATM   22  C   UNL     1      26.742  49.722  48.365  1.00  0.00     0.012 A 
HETATM   23  C   UNL     1      23.171  50.774  48.175  1.00  0.00     0.014 A 
HETATM   24  C   UNL     1      27.516  48.710  48.936  1.00  0.00     0.001 A 
HETATM   25  C   UNL     1      26.907  47.708  49.684  1.00  0.00     0.001 A 
ENDBRANCH  14  16
ENDBRANCH   1  10
BRANCH   4  26
HETATM   26  C   UNL     1      16.922  50.357  45.548  1.00  0.00     0.157 C 
BRANCH  26  27
HETATM   27  N   UNL     1      17.296  48.959  45.689  1.00  0.00    -0.341 N 
HETATM   28  C   UNL     1      18.500  48.513  46.147  1.00  0.00     0.318 C 
HETATM   29  N   UNL     1      18.531  47.195  46.553  1.00  0.00    -0.330 N 
HETATM   30  O   UNL     1      19.479  49.258  46.162  1.00  0.00    -0.247 OA
HETATM   31  C   UNL     1      17.358  46.517  47.138  1.00  0.00     0.153 C 
HETATM   32  C   UNL     1      19.808  46.701  47.086  1.00  0.00     0.153 C 
HETATM   33  C   UNL     1      17.527  44.995  47.162  1.00  0.00     0.187 C 
HETATM   34  O   UNL     1      18.749  44.624  47.808  1.00  0.00    -0.388 OA
HETATM   35  C   UNL     1      19.871  45.173  47.107  1.00  0.00     0.187 C 
HETATM   36  H   UNL     1      16.636  48.260  45.380  1.00  0.00     0.164 HD
ENDBRANCH  26  27
ENDBRANCH   4  26
TORSDOF 4
ENDMDL
MODEL 9
REMARK VINA RESULT:      -9.5      3.318      5.478
REMARK  4 active torsions:
REMARK  status: ('A' for Active; 'I' for Inactive)
REMARK    1  A    between atoms: C_4  and  C_5 
REMARK    2  A    between atoms: C_16  and  C_17 
REMARK    3  A    between atoms: C_20  and  C_21 
REMARK    4  A    between atoms: C_21  and  N_22 
REMARK       I    between atoms: N_22  and  C_23 
REMARK       I    between atoms: C_23  and  N_24 
ROOT
HETATM    1  C   UNL     1      22.520  45.325  48.347  1.00  0.00     0.067 C 
HETATM    2  C   UNL     1      22.164  46.018  47.016  1.00  0.00     0.001 C 
HETATM    3  C   UNL     1      21.250  47.242  47.241  1.00  0.00     0.040 C 
HETATM    4  C   UNL     1      19.919  46.840  47.898  1.00  0.00     0.206 C 
HETATM    5  N   UNL     1      20.026  45.361  48.227  1.00  0.00    -0.065 N 
HETATM    6  H   UNL     1      19.173  45.107  48.774  1.00  0.00     0.280 HD
HETATM    7  C   UNL     1      21.203  45.029  49.117  1.00  0.00     0.246 C 
HETATM    8  C   UNL     1      21.335  44.998  46.185  1.00  0.00     0.033 C 
HETATM    9  C   UNL     1      20.091  44.543  46.964  1.00  0.00     0.236 C 
ENDROOT
BRANCH   1  10
HETATM   10  C   UNL     1      23.535  45.908  49.298  1.00  0.00     0.038 C 
HETATM   11  N   UNL     1      23.767  47.189  49.742  1.00  0.00    -0.277 N 
HETATM   12  C   UNL     1      23.280  48.469  49.286  1.00  0.00     0.179 C 
HETATM   13  N   UNL     1      24.598  47.230  50.802  1.00  0.00    -0.172 NA
HETATM   14  C   UNL     1      25.120  46.004  50.899  1.00  0.00     0.089 C 
HETATM   15  C   UNL     1      24.500  45.155  49.957  1.00  0.00     0.061 C 
BRANCH  14  16
HETATM   16  C   UNL     1      26.121  45.639  51.903  1.00  0.00    -0.005 A 
HETATM   17  C   UNL     1      27.074  44.647  51.627  1.00  0.00     0.026 A 
HETATM   18  C   UNL     1      27.993  44.224  52.605  1.00  0.00    -0.025 A 
HETATM   19  C   UNL     1      27.957  44.817  53.888  1.00  0.00    -0.026 A 
HETATM   20  C   UNL     1      28.937  43.221  52.337  1.00  0.00     0.012 A 
HETATM   21  C   UNL     1      27.021  45.828  54.151  1.00  0.00     0.013 A 
HETATM   22  C   UNL     1      28.859  44.377  54.870  1.00  0.00     0.012 A 
HETATM   23  C   UNL     1      26.114  46.236  53.166  1.00  0.00     0.014 A 
HETATM   24  C   UNL     1      29.787  43.373  54.589  1.00  0.00     0.001 A 
HETATM   25  C   UNL     1      29.827  42.797  53.323  1.00  0.00     0.001 A 
ENDBRANCH  14  16
ENDBRANCH   1  10
BRANCH   4  26
HETATM   26  C   UNL     1      19.581  47.735  49.118  1.00  0.00     0.157 C 
BRANCH  26  27
HETATM   27  N   UNL     1      18.421  48.601  48.991  1.00  0.00    -0.341 N 
HETATM   28  C   UNL     1      18.219  49.748  49.700  1.00  0.00     0.318 C 
HETATM   29  N   UNL     1      17.269  50.606  49.184  1.00  0.00    -0.330 N 
HETATM   30  O   UNL     1      18.844  49.962  50.737  1.00  0.00    -0.247 OA
HETATM   31  C   UNL     1      17.001  50.718  47.738  1.00  0.00     0.153 C 
HETATM   32  C   UNL     1      17.059  51.866  49.910  1.00  0.00     0.153 C 
HETATM   33  C   UNL     1      15.682  51.441  47.451  1.00  0.00     0.187 C 
HETATM   34  O   UNL     1      15.637  52.709  48.114  1.00  0.00    -0.388 OA
HETATM   35  C   UNL     1      15.736  52.534  49.533  1.00  0.00     0.187 C 
HETATM   36  H   UNL     1      17.681  48.311  48.367  1.00  0.00     0.164 HD
ENDBRANCH  26  27
ENDBRANCH   4  26
TORSDOF 4
ENDMDL
MODEL 10
REMARK VINA RESULT:      -9.5      4.573      6.488
REMARK  4 active torsions:
REMARK  status: ('A' for Active; 'I' for Inactive)
REMARK    1  A    between atoms: C_4  and  C_5 
REMARK    2  A    between atoms: C_16  and  C_17 
REMARK    3  A    between atoms: C_20  and  C_21 
REMARK    4  A    between atoms: C_21  and  N_22 
REMARK       I    between atoms: N_22  and  C_23 
REMARK       I    between atoms: C_23  and  N_24 
ROOT
HETATM    1  C   UNL     1      27.468  40.219  50.579  1.00  0.00     0.067 C 
HETATM    2  C   UNL     1      28.602  39.321  50.047  1.00  0.00     0.001 C 
HETATM    3  C   UNL     1      29.113  39.807  48.673  1.00  0.00     0.040 C 
HETATM    4  C   UNL     1      27.998  39.780  47.614  1.00  0.00     0.206 C 
HETATM    5  N   UNL     1      26.718  39.403  48.341  1.00  0.00    -0.065 N 
HETATM    6  H   UNL     1      25.938  39.493  47.652  1.00  0.00     0.280 HD
HETATM    7  C   UNL     1      26.378  40.341  49.478  1.00  0.00     0.246 C 
HETATM    8  C   UNL     1      27.990  37.911  49.814  1.00  0.00     0.033 C 
HETATM    9  C   UNL     1      26.797  37.987  48.849  1.00  0.00     0.236 C 
ENDROOT
BRANCH   1  10
HETATM   10  C   UNL     1      27.743  41.582  51.163  1.00  0.00     0.038 C 
HETATM   11  N   UNL     1      27.372  42.851  50.781  1.00  0.00    -0.277 N 
HETATM   12  C   UNL     1      26.786  43.357  49.563  1.00  0.00     0.179 C 
HETATM   13  N   UNL     1      27.598  43.770  51.740  1.00  0.00    -0.172 NA
HETATM   14  C   UNL     1      28.356  43.158  52.655  1.00  0.00     0.089 C 
HETATM   15  C   UNL     1      28.491  41.794  52.315  1.00  0.00     0.061 C 
BRANCH  14  16
HETATM   16  C   UNL     1      28.870  43.833  53.847  1.00  0.00    -0.005 A 
HETATM   17  C   UNL     1      29.915  43.263  54.591  1.00  0.00     0.026 A 
HETATM   18  C   UNL     1      30.369  43.854  55.784  1.00  0.00    -0.025 A 
HETATM   19  C   UNL     1      29.765  45.048  56.237  1.00  0.00    -0.026 A 
HETATM   20  C   UNL     1      31.404  43.277  56.538  1.00  0.00     0.012 A 
HETATM   21  C   UNL     1      28.740  45.629  55.476  1.00  0.00     0.013 A 
HETATM   22  C   UNL     1      30.204  45.623  57.440  1.00  0.00     0.012 A 
HETATM   23  C   UNL     1      28.300  45.029  54.291  1.00  0.00     0.014 A 
HETATM   24  C   UNL     1      31.228  45.033  58.183  1.00  0.00     0.001 A 
HETATM   25  C   UNL     1      31.829  43.862  57.731  1.00  0.00     0.001 A 
ENDBRANCH  14  16
ENDBRANCH   1  10
BRANCH   4  26
HETATM   26  C   UNL     1      27.910  41.115  46.832  1.00  0.00     0.157 C 
BRANCH  26  27
HETATM   27  N   UNL     1      27.099  41.113  45.626  1.00  0.00    -0.341 N 
HETATM   28  C   UNL     1      27.541  40.757  44.386  1.00  0.00     0.318 C 
HETATM   29  N   UNL     1      26.556  40.466  43.464  1.00  0.00    -0.330 N 
HETATM   30  O   UNL     1      28.745  40.729  44.134  1.00  0.00    -0.247 OA
HETATM   31  C   UNL     1      25.257  39.881  43.849  1.00  0.00     0.153 C 
HETATM   32  C   UNL     1      27.008  40.044  42.132  1.00  0.00     0.153 C 
HETATM   33  C   UNL     1      24.221  39.995  42.726  1.00  0.00     0.187 C 
HETATM   34  O   UNL     1      24.726  39.447  41.504  1.00  0.00    -0.388 OA
HETATM   35  C   UNL     1      25.898  40.156  41.085  1.00  0.00     0.187 C 
HETATM   36  H   UNL     1      26.148  41.446  45.695  1.00  0.00     0.164 HD
ENDBRANCH  26  27
ENDBRANCH   4  26
TORSDOF 4
ENDMDL
