MODEL 1
REMARK VINA RESULT:     -10.7      0.000      0.000
REMARK  6 active torsions:
REMARK  status: ('A' for Active; 'I' for Inactive)
REMARK    1  A    between atoms: C_4  and  C_5 
REMARK    2  A    between atoms: C_8  and  C_9 
REMARK    3  A    between atoms: C_9  and  C_10 
REMARK       I    between atoms: C_10  and  N_11 
REMARK    4  A    between atoms: N_11  and  C_12 
REMARK    5  A    between atoms: N_13  and  C_14 
REMARK    6  A    between atoms: C_25  and  C_26 
ROOT
HETATM    1  C   UNL     1      24.671  42.350  49.380  1.00  0.00     0.152 A 
HETATM    2  N   UNL     1      24.090  43.579  49.657  1.00  0.00    -0.044 N 
HETATM    3  N   UNL     1      23.016  43.844  48.852  1.00  0.00    -0.148 NA
HETATM    4  C   UNL     1      22.929  42.761  48.067  1.00  0.00     0.115 A 
HETATM    5  C   UNL     1      23.948  41.825  48.332  1.00  0.00     0.087 A 
ENDROOT
BRANCH   1   6
HETATM    6  N   UNL     1      25.740  41.848  50.110  1.00  0.00    -0.311 N 
HETATM    7  C   UNL     1      27.003  41.675  49.571  1.00  0.00     0.227 C 
HETATM    8  O   UNL     1      27.385  42.109  48.486  1.00  0.00    -0.273 OA
HETATM    9  H   UNL     1      25.558  41.565  51.073  1.00  0.00     0.170 HD
BRANCH   7  10
HETATM   10  C   UNL     1      27.911  40.816  50.439  1.00  0.00     0.141 C 
BRANCH  10  11
HETATM   11  C   UNL     1      28.415  41.555  51.658  1.00  0.00    -0.049 A 
HETATM   12  C   UNL     1      28.511  42.953  51.664  1.00  0.00     0.008 A 
HETATM   13  C   UNL     1      28.990  43.633  52.786  1.00  0.00     0.013 A 
HETATM   14  C   UNL     1      29.365  42.945  53.951  1.00  0.00    -0.026 A 
HETATM   15  C   UNL     1      29.230  41.547  53.949  1.00  0.00     0.013 A 
HETATM   16  C   UNL     1      28.761  40.860  52.821  1.00  0.00     0.008 A 
BRANCH  14  17
HETATM   17  C   UNL     1      29.887  43.672  55.125  1.00  0.00    -0.026 A 
HETATM   18  C   UNL     1      30.911  43.130  55.922  1.00  0.00     0.012 A 
HETATM   19  C   UNL     1      31.389  43.804  57.050  1.00  0.00     0.001 A 
HETATM   20  C   UNL     1      30.854  45.039  57.401  1.00  0.00     0.000 A 
HETATM   21  C   UNL     1      29.844  45.600  56.625  1.00  0.00     0.001 A 
HETATM   22  C   UNL     1      29.366  44.922  55.499  1.00  0.00     0.012 A 
ENDBRANCH  14  17
ENDBRANCH  10  11
ENDBRANCH   7  10
ENDBRANCH   1   6
BRANCH   2  23
HETATM   23  C   UNL     1      24.483  44.527  50.623  1.00  0.00     0.732 A 
HETATM   24  N   UNL     1      24.808  44.215  51.843  1.00  0.00    -0.067 NA
HETATM   25  C   UNL     1      25.178  45.286  52.609  1.00  0.00     0.065 A 
HETATM   26  C   UNL     1      25.228  46.558  52.210  1.00  0.00     0.036 A 
HETATM   27  C   UNL     1      25.595  45.155  54.036  1.00  0.00     0.061 C 
HETATM   28  C   UNL     1      25.687  47.492  53.262  1.00  0.00     0.047 C 
HETATM   29  C   UNL     1      24.858  46.890  50.835  1.00  0.00     0.268 A 
HETATM   30  C   UNL     1      26.233  46.523  54.318  1.00  0.00     0.011 C 
HETATM   31  O   UNL     1      24.887  48.032  50.401  1.00  0.00    -0.267 OA
HETATM   32  N   UNL     1      24.484  45.801  50.100  1.00  0.00    -0.152 N 
HETATM   33  H   UNL     1      24.215  45.935  49.130  1.00  0.00     0.188 HD
ENDBRANCH   2  23
BRANCH   4  34
HETATM   34  C   UNL     1      21.851  42.578  47.053  1.00  0.00     0.105 A 
HETATM   35  O   UNL     1      20.736  43.367  46.961  1.00  0.00    -0.320 OA
HETATM   36  C   UNL     1      20.005  42.914  45.911  1.00  0.00     0.142 A 
HETATM   37  C   UNL     1      20.627  41.841  45.318  1.00  0.00     0.027 A 
HETATM   38  C   UNL     1      21.817  41.622  46.056  1.00  0.00     0.041 A 
ENDBRANCH   4  34
TORSDOF 6
ENDMDL
MODEL 2
REMARK VINA RESULT:     -10.6      2.641      4.289
REMARK  6 active torsions:
REMARK  status: ('A' for Active; 'I' for Inactive)
REMARK    1  A    between atoms: C_4  and  C_5 
REMARK    2  A    between atoms: C_8  and  C_9 
REMARK    3  A    between atoms: C_9  and  C_10 
REMARK       I    between atoms: C_10  and  N_11 
REMARK    4  A    between atoms: N_11  and  C_12 
REMARK    5  A    between atoms: N_13  and  C_14 
REMARK    6  A    between atoms: C_25  and  C_26 
ROOT
HETATM    1  C   UNL     1      24.402  44.942  49.468  1.00  0.00     0.152 A 
HETATM    2  N   UNL     1      23.296  45.428  48.784  1.00  0.00    -0.044 N 
HETATM    3  N   UNL     1      22.710  44.477  47.994  1.00  0.00    -0.148 NA
HETATM    4  C   UNL     1      23.461  43.386  48.195  1.00  0.00     0.115 A 
HETATM    5  C   UNL     1      24.537  43.631  49.071  1.00  0.00     0.087 A 
ENDROOT
BRANCH   1   6
HETATM    6  N   UNL     1      25.120  45.714  50.371  1.00  0.00    -0.311 N 
HETATM    7  C   UNL     1      24.921  45.650  51.739  1.00  0.00     0.227 C 
HETATM    8  O   UNL     1      24.258  44.799  52.328  1.00  0.00    -0.273 OA
HETATM    9  H   UNL     1      25.794  46.377  49.988  1.00  0.00     0.170 HD
BRANCH   7  10
HETATM   10  C   UNL     1      25.570  46.803  52.492  1.00  0.00     0.141 C 
BRANCH  10  11
HETATM   11  C   UNL     1      26.670  46.342  53.421  1.00  0.00    -0.049 A 
HETATM   12  C   UNL     1      27.221  45.059  53.303  1.00  0.00     0.008 A 
HETATM   13  C   UNL     1      28.228  44.630  54.171  1.00  0.00     0.013 A 
HETATM   14  C   UNL     1      28.739  45.474  55.170  1.00  0.00    -0.026 A 
HETATM   15  C   UNL     1      28.206  46.771  55.257  1.00  0.00     0.013 A 
HETATM   16  C   UNL     1      27.188  47.202  54.394  1.00  0.00     0.008 A 
BRANCH  14  17
HETATM   17  C   UNL     1      29.790  45.004  56.094  1.00  0.00    -0.026 A 
HETATM   18  C   UNL     1      30.616  43.914  55.765  1.00  0.00     0.012 A 
HETATM   19  C   UNL     1      31.594  43.450  56.650  1.00  0.00     0.001 A 
HETATM   20  C   UNL     1      31.770  44.074  57.881  1.00  0.00     0.000 A 
HETATM   21  C   UNL     1      30.970  45.159  58.227  1.00  0.00     0.001 A 
HETATM   22  C   UNL     1      29.990  45.618  57.342  1.00  0.00     0.012 A 
ENDBRANCH  14  17
ENDBRANCH  10  11
ENDBRANCH   7  10
ENDBRANCH   1   6
BRANCH   2  23
HETATM   23  C   UNL     1      22.760  46.731  48.816  1.00  0.00     0.732 A 
HETATM   24  N   UNL     1      23.491  47.807  48.822  1.00  0.00    -0.067 NA
HETATM   25  C   UNL     1      22.768  48.968  48.835  1.00  0.00     0.065 A 
HETATM   26  C   UNL     1      21.436  49.065  48.835  1.00  0.00     0.036 A 
HETATM   27  C   UNL     1      23.403  50.318  48.838  1.00  0.00     0.061 C 
HETATM   28  C   UNL     1      20.943  50.460  48.828  1.00  0.00     0.047 C 
HETATM   29  C   UNL     1      20.632  47.845  48.828  1.00  0.00     0.268 A 
HETATM   30  C   UNL     1      22.223  51.237  48.493  1.00  0.00     0.011 C 
HETATM   31  O   UNL     1      19.410  47.859  48.823  1.00  0.00    -0.267 OA
HETATM   32  N   UNL     1      21.383  46.704  48.827  1.00  0.00    -0.152 N 
HETATM   33  H   UNL     1      20.909  45.806  48.817  1.00  0.00     0.188 HD
ENDBRANCH   2  23
BRANCH   4  34
HETATM   34  C   UNL     1      23.158  42.066  47.571  1.00  0.00     0.105 A 
HETATM   35  O   UNL     1      22.307  41.137  48.106  1.00  0.00    -0.320 OA
HETATM   36  C   UNL     1      22.267  40.084  47.250  1.00  0.00     0.142 A 
HETATM   37  C   UNL     1      23.080  40.313  46.167  1.00  0.00     0.027 A 
HETATM   38  C   UNL     1      23.657  41.590  46.373  1.00  0.00     0.041 A 
ENDBRANCH   4  34
TORSDOF 6
ENDMDL
MODEL 3
REMARK VINA RESULT:     -10.4      2.144      5.300
REMARK  6 active torsions:
REMARK  status: ('A' for Active; 'I' for Inactive)
REMARK    1  A    between atoms: C_4  and  C_5 
REMARK    2  A    between atoms: C_8  and  C_9 
REMARK    3  A    between atoms: C_9  and  C_10 
REMARK       I    between atoms: C_10  and  N_11 
REMARK    4  A    between atoms: N_11  and  C_12 
REMARK    5  A    between atoms: N_13  and  C_14 
REMARK    6  A    between atoms: C_25  and  C_26 
ROOT
HETATM    1  C   UNL     1      24.551  45.911  49.951  1.00  0.00     0.152 A 
HETATM    2  N   UNL     1      23.694  45.601  48.904  1.00  0.00    -0.044 N 
HETATM    3  N   UNL     1      23.030  46.700  48.430  1.00  0.00    -0.148 NA
HETATM    4  C   UNL     1      23.484  47.703  49.192  1.00  0.00     0.115 A 
HETATM    5  C   UNL     1      24.400  47.261  50.168  1.00  0.00     0.087 A 
ENDROOT
BRANCH   1   6
HETATM    6  N   UNL     1      25.369  44.963  50.551  1.00  0.00    -0.311 N 
HETATM    7  C   UNL     1      26.695  44.782  50.195  1.00  0.00     0.227 C 
HETATM    8  O   UNL     1      27.353  45.533  49.479  1.00  0.00    -0.273 OA
HETATM    9  H   UNL     1      24.947  44.358  51.257  1.00  0.00     0.170 HD
BRANCH   7  10
HETATM   10  C   UNL     1      27.288  43.489  50.738  1.00  0.00     0.141 C 
BRANCH  10  11
HETATM   11  C   UNL     1      28.010  43.691  52.051  1.00  0.00    -0.049 A 
HETATM   12  C   UNL     1      27.553  44.628  52.988  1.00  0.00     0.008 A 
HETATM   13  C   UNL     1      28.229  44.822  54.195  1.00  0.00     0.013 A 
HETATM   14  C   UNL     1      29.369  44.071  54.522  1.00  0.00    -0.026 A 
HETATM   15  C   UNL     1      29.798  43.108  53.593  1.00  0.00     0.013 A 
HETATM   16  C   UNL     1      29.128  42.917  52.376  1.00  0.00     0.008 A 
BRANCH  14  17
HETATM   17  C   UNL     1      30.087  44.297  55.792  1.00  0.00    -0.026 A 
HETATM   18  C   UNL     1      29.825  45.428  56.586  1.00  0.00     0.012 A 
HETATM   19  C   UNL     1      30.523  45.658  57.776  1.00  0.00     0.001 A 
HETATM   20  C   UNL     1      31.494  44.756  58.198  1.00  0.00     0.000 A 
HETATM   21  C   UNL     1      31.767  43.626  57.433  1.00  0.00     0.001 A 
HETATM   22  C   UNL     1      31.070  43.400  56.242  1.00  0.00     0.012 A 
ENDBRANCH  14  17
ENDBRANCH  10  11
ENDBRANCH   7  10
ENDBRANCH   1   6
BRANCH   2  23
HETATM   23  C   UNL     1      23.451  44.340  48.325  1.00  0.00     0.732 A 
HETATM   24  N   UNL     1      24.316  43.368  48.333  1.00  0.00    -0.067 NA
HETATM   25  C   UNL     1      23.869  42.223  47.733  1.00  0.00     0.065 A 
HETATM   26  C   UNL     1      22.670  42.045  47.175  1.00  0.00     0.036 A 
HETATM   27  C   UNL     1      24.696  40.984  47.636  1.00  0.00     0.061 C 
HETATM   28  C   UNL     1      22.469  40.686  46.623  1.00  0.00     0.047 C 
HETATM   29  C   UNL     1      21.712  43.148  47.174  1.00  0.00     0.268 A 
HETATM   30  C   UNL     1      23.657  39.929  47.229  1.00  0.00     0.011 C 
HETATM   31  O   UNL     1      20.595  43.053  46.686  1.00  0.00    -0.267 OA
HETATM   32  N   UNL     1      22.191  44.280  47.770  1.00  0.00    -0.152 N 
HETATM   33  H   UNL     1      21.592  45.098  47.822  1.00  0.00     0.188 HD
ENDBRANCH   2  23
BRANCH   4  34
HETATM   34  C   UNL     1      23.072  49.123  48.996  1.00  0.00     0.105 A 
HETATM   35  O   UNL     1      22.085  49.745  49.711  1.00  0.00    -0.320 OA
HETATM   36  C   UNL     1      22.013  51.027  49.271  1.00  0.00     0.142 A 
HETATM   37  C   UNL     1      22.938  51.249  48.280  1.00  0.00     0.027 A 
HETATM   38  C   UNL     1      23.620  50.020  48.099  1.00  0.00     0.041 A 
ENDBRANCH   4  34
TORSDOF 6
ENDMDL
MODEL 4
REMARK VINA RESULT:     -10.0      1.447      4.233
REMARK  6 active torsions:
REMARK  status: ('A' for Active; 'I' for Inactive)
REMARK    1  A    between atoms: C_4  and  C_5 
REMARK    2  A    between atoms: C_8  and  C_9 
REMARK    3  A    between atoms: C_9  and  C_10 
REMARK       I    between atoms: C_10  and  N_11 
REMARK    4  A    between atoms: N_11  and  C_12 
REMARK    5  A    between atoms: N_13  and  C_14 
REMARK    6  A    between atoms: C_25  and  C_26 
ROOT
HETATM    1  C   UNL     1      24.640  44.399  49.285  1.00  0.00     0.152 A 
HETATM    2  N   UNL     1      25.046  43.084  49.107  1.00  0.00    -0.044 N 
HETATM    3  N   UNL     1      24.299  42.428  48.167  1.00  0.00    -0.148 NA
HETATM    4  C   UNL     1      23.420  43.352  47.755  1.00  0.00     0.115 A 
HETATM    5  C   UNL     1      23.569  44.575  48.439  1.00  0.00     0.087 A 
ENDROOT
BRANCH   1   6
HETATM    6  N   UNL     1      25.291  45.271  50.148  1.00  0.00    -0.311 N 
HETATM    7  C   UNL     1      24.892  45.469  51.458  1.00  0.00     0.227 C 
HETATM    8  O   UNL     1      24.072  44.786  52.069  1.00  0.00    -0.273 OA
HETATM    9  H   UNL     1      26.074  45.807  49.770  1.00  0.00     0.170 HD
BRANCH   7  10
HETATM   10  C   UNL     1      25.532  46.692  52.099  1.00  0.00     0.141 C 
BRANCH  10  11
HETATM   11  C   UNL     1      26.571  46.326  53.134  1.00  0.00    -0.049 A 
HETATM   12  C   UNL     1      27.238  45.095  53.080  1.00  0.00     0.008 A 
HETATM   13  C   UNL     1      28.189  44.752  54.045  1.00  0.00     0.013 A 
HETATM   14  C   UNL     1      28.527  45.636  55.082  1.00  0.00    -0.026 A 
HETATM   15  C   UNL     1      27.880  46.883  55.106  1.00  0.00     0.013 A 
HETATM   16  C   UNL     1      26.918  47.226  54.146  1.00  0.00     0.008 A 
BRANCH  14  17
HETATM   17  C   UNL     1      29.520  45.257  56.107  1.00  0.00    -0.026 A 
HETATM   18  C   UNL     1      29.593  45.936  57.337  1.00  0.00     0.012 A 
HETATM   19  C   UNL     1      30.550  45.597  58.298  1.00  0.00     0.001 A 
HETATM   20  C   UNL     1      31.451  44.566  58.050  1.00  0.00     0.000 A 
HETATM   21  C   UNL     1      31.395  43.875  56.843  1.00  0.00     0.001 A 
HETATM   22  C   UNL     1      30.439  44.219  55.882  1.00  0.00     0.012 A 
ENDBRANCH  14  17
ENDBRANCH  10  11
ENDBRANCH   7  10
ENDBRANCH   1   6
BRANCH   2  23
HETATM   23  C   UNL     1      26.085  42.399  49.769  1.00  0.00     0.732 A 
HETATM   24  N   UNL     1      26.244  42.412  51.060  1.00  0.00    -0.067 NA
HETATM   25  C   UNL     1      27.303  41.664  51.496  1.00  0.00     0.065 A 
HETATM   26  C   UNL     1      28.135  40.957  50.728  1.00  0.00     0.036 A 
HETATM   27  C   UNL     1      27.664  41.535  52.938  1.00  0.00     0.061 C 
HETATM   28  C   UNL     1      29.174  40.232  51.492  1.00  0.00     0.047 C 
HETATM   29  C   UNL     1      27.941  40.954  49.280  1.00  0.00     0.268 A 
HETATM   30  C   UNL     1      28.644  40.354  52.926  1.00  0.00     0.011 C 
HETATM   31  O   UNL     1      28.660  40.325  48.518  1.00  0.00    -0.267 OA
HETATM   32  N   UNL     1      26.883  41.718  48.876  1.00  0.00    -0.152 N 
HETATM   33  H   UNL     1      26.668  41.773  47.885  1.00  0.00     0.188 HD
ENDBRANCH   2  23
BRANCH   4  34
HETATM   34  C   UNL     1      22.423  43.099  46.676  1.00  0.00     0.105 A 
HETATM   35  O   UNL     1      21.142  42.670  46.894  1.00  0.00    -0.320 OA
HETATM   36  C   UNL     1      20.534  42.578  45.684  1.00  0.00     0.142 A 
HETATM   37  C   UNL     1      21.400  42.939  44.681  1.00  0.00     0.027 A 
HETATM   38  C   UNL     1      22.620  43.273  45.319  1.00  0.00     0.041 A 
ENDBRANCH   4  34
TORSDOF 6
ENDMDL
MODEL 5
REMARK VINA RESULT:      -9.9     12.132     13.190
REMARK  6 active torsions:
REMARK  status: ('A' for Active; 'I' for Inactive)
REMARK    1  A    between atoms: C_4  and  C_5 
REMARK    2  A    between atoms: C_8  and  C_9 
REMARK    3  A    between atoms: C_9  and  C_10 
REMARK       I    between atoms: C_10  and  N_11 
REMARK    4  A    between atoms: N_11  and  C_12 
REMARK    5  A    between atoms: N_13  and  C_14 
REMARK    6  A    between atoms: C_25  and  C_26 
ROOT
HETATM    1  C   UNL     1      26.364  48.253  38.378  1.00  0.00     0.152 A 
HETATM    2  N   UNL     1      26.301  49.589  38.749  1.00  0.00    -0.044 N 
HETATM    3  N   UNL     1      25.060  50.129  38.548  1.00  0.00    -0.148 NA
HETATM    4  C   UNL     1      24.344  49.113  38.049  1.00  0.00     0.115 A 
HETATM    5  C   UNL     1      25.114  47.942  37.894  1.00  0.00     0.087 A 
ENDROOT
BRANCH   1   6
HETATM    6  N   UNL     1      27.508  47.485  38.546  1.00  0.00    -0.311 N 
HETATM    7  C   UNL     1      27.737  46.714  39.673  1.00  0.00     0.227 C 
HETATM    8  O   UNL     1      26.910  46.457  40.545  1.00  0.00    -0.273 OA
HETATM    9  H   UNL     1      28.216  47.532  37.813  1.00  0.00     0.170 HD
BRANCH   7  10
HETATM   10  C   UNL     1      29.176  46.233  39.786  1.00  0.00     0.141 C 
BRANCH  10  11
HETATM   11  C   UNL     1      30.067  47.231  40.490  1.00  0.00    -0.049 A 
HETATM   12  C   UNL     1      29.559  48.068  41.492  1.00  0.00     0.008 A 
HETATM   13  C   UNL     1      30.380  48.999  42.133  1.00  0.00     0.013 A 
HETATM   14  C   UNL     1      31.743  49.110  41.815  1.00  0.00    -0.026 A 
HETATM   15  C   UNL     1      32.252  48.241  40.835  1.00  0.00     0.013 A 
HETATM   16  C   UNL     1      31.429  47.313  40.183  1.00  0.00     0.008 A 
BRANCH  14  17
HETATM   17  C   UNL     1      32.598  50.110  42.484  1.00  0.00    -0.026 A 
HETATM   18  C   UNL     1      33.914  50.351  42.051  1.00  0.00     0.012 A 
HETATM   19  C   UNL     1      34.736  51.278  42.700  1.00  0.00     0.001 A 
HETATM   20  C   UNL     1      34.253  51.988  43.794  1.00  0.00     0.000 A 
HETATM   21  C   UNL     1      32.952  51.772  44.239  1.00  0.00     0.001 A 
HETATM   22  C   UNL     1      32.134  50.842  43.590  1.00  0.00     0.012 A 
ENDBRANCH  14  17
ENDBRANCH  10  11
ENDBRANCH   7  10
ENDBRANCH   1   6
BRANCH   2  23
HETATM   23  C   UNL     1      27.332  50.395  39.272  1.00  0.00     0.732 A 
HETATM   24  N   UNL     1      28.564  50.340  38.858  1.00  0.00    -0.067 NA
HETATM   25  C   UNL     1      29.400  51.222  39.486  1.00  0.00     0.065 A 
HETATM   26  C   UNL     1      29.053  52.090  40.438  1.00  0.00     0.036 A 
HETATM   27  C   UNL     1      30.852  51.332  39.163  1.00  0.00     0.061 C 
HETATM   28  C   UNL     1      30.176  52.930  40.911  1.00  0.00     0.047 C 
HETATM   29  C   UNL     1      27.664  52.137  40.891  1.00  0.00     0.268 A 
HETATM   30  C   UNL     1      31.240  52.652  39.843  1.00  0.00     0.011 C 
HETATM   31  O   UNL     1      27.277  52.911  41.754  1.00  0.00    -0.267 OA
HETATM   32  N   UNL     1      26.859  51.238  40.253  1.00  0.00    -0.152 N 
HETATM   33  H   UNL     1      25.874  51.201  40.498  1.00  0.00     0.188 HD
ENDBRANCH   2  23
BRANCH   4  34
HETATM   34  C   UNL     1      22.893  49.224  37.724  1.00  0.00     0.105 A 
HETATM   35  O   UNL     1      21.992  49.945  38.460  1.00  0.00    -0.320 OA
HETATM   36  C   UNL     1      20.785  49.829  37.847  1.00  0.00     0.142 A 
HETATM   37  C   UNL     1      20.888  49.043  36.725  1.00  0.00     0.027 A 
HETATM   38  C   UNL     1      22.247  48.649  36.646  1.00  0.00     0.041 A 
ENDBRANCH   4  34
TORSDOF 6
ENDMDL
MODEL 6
REMARK VINA RESULT:      -9.7      3.466      9.675
REMARK  6 active torsions:
REMARK  status: ('A' for Active; 'I' for Inactive)
REMARK    1  A    between atoms: C_4  and  C_5 
REMARK    2  A    between atoms: C_8  and  C_9 
REMARK    3  A    between atoms: C_9  and  C_10 
REMARK       I    between atoms: C_10  and  N_11 
REMARK    4  A    between atoms: N_11  and  C_12 
REMARK    5  A    between atoms: N_13  and  C_14 
REMARK    6  A    between atoms: C_25  and  C_26 
ROOT
HETATM    1  C   UNL     1      27.669  43.385  51.796  1.00  0.00     0.152 A 
HETATM    2  N   UNL     1      28.302  42.159  51.948  1.00  0.00    -0.044 N 
HETATM    3  N   UNL     1      29.155  42.140  53.018  1.00  0.00    -0.148 NA
HETATM    4  C   UNL     1      29.046  43.370  53.536  1.00  0.00     0.115 A 
HETATM    5  C   UNL     1      28.166  44.186  52.798  1.00  0.00     0.087 A 
ENDROOT
BRANCH   1   6
HETATM    6  N   UNL     1      26.718  43.617  50.811  1.00  0.00    -0.311 N 
HETATM    7  C   UNL     1      25.359  43.654  51.073  1.00  0.00     0.227 C 
HETATM    8  O   UNL     1      24.845  43.688  52.189  1.00  0.00    -0.273 OA
HETATM    9  H   UNL     1      27.052  43.726  49.853  1.00  0.00     0.170 HD
BRANCH   7  10
HETATM   10  C   UNL     1      24.506  43.590  49.813  1.00  0.00     0.141 C 
BRANCH  10  11
HETATM   11  C   UNL     1      23.849  44.913  49.492  1.00  0.00    -0.049 A 
HETATM   12  C   UNL     1      24.438  46.124  49.881  1.00  0.00     0.008 A 
HETATM   13  C   UNL     1      23.822  47.345  49.594  1.00  0.00     0.013 A 
HETATM   14  C   UNL     1      22.610  47.402  48.888  1.00  0.00    -0.026 A 
HETATM   15  C   UNL     1      22.046  46.186  48.470  1.00  0.00     0.013 A 
HETATM   16  C   UNL     1      22.655  44.958  48.765  1.00  0.00     0.008 A 
BRANCH  14  17
HETATM   17  C   UNL     1      21.958  48.697  48.607  1.00  0.00    -0.026 A 
HETATM   18  C   UNL     1      22.524  49.908  49.043  1.00  0.00     0.012 A 
HETATM   19  C   UNL     1      21.895  51.133  48.802  1.00  0.00     0.001 A 
HETATM   20  C   UNL     1      20.687  51.171  48.112  1.00  0.00     0.000 A 
HETATM   21  C   UNL     1      20.110  49.986  47.665  1.00  0.00     0.001 A 
HETATM   22  C   UNL     1      20.739  48.763  47.911  1.00  0.00     0.012 A 
ENDBRANCH  14  17
ENDBRANCH  10  11
ENDBRANCH   7  10
ENDBRANCH   1   6
BRANCH   2  23
HETATM   23  C   UNL     1      28.165  41.006  51.149  1.00  0.00     0.732 A 
HETATM   24  N   UNL     1      27.275  40.888  50.207  1.00  0.00    -0.067 NA
HETATM   25  C   UNL     1      27.328  39.695  49.541  1.00  0.00     0.065 A 
HETATM   26  C   UNL     1      28.187  38.700  49.776  1.00  0.00     0.036 A 
HETATM   27  C   UNL     1      26.405  39.351  48.420  1.00  0.00     0.061 C 
HETATM   28  C   UNL     1      28.013  37.540  48.875  1.00  0.00     0.047 C 
HETATM   29  C   UNL     1      29.179  38.851  50.839  1.00  0.00     0.268 A 
HETATM   30  C   UNL     1      27.084  38.121  47.802  1.00  0.00     0.011 C 
HETATM   31  O   UNL     1      29.999  37.984  51.106  1.00  0.00    -0.267 OA
HETATM   32  N   UNL     1      29.093  40.048  51.492  1.00  0.00    -0.152 N 
HETATM   33  H   UNL     1      29.746  40.244  52.244  1.00  0.00     0.188 HD
ENDBRANCH   2  23
BRANCH   4  34
HETATM   34  C   UNL     1      29.765  43.797  54.771  1.00  0.00     0.105 A 
HETATM   35  O   UNL     1      29.556  44.988  55.412  1.00  0.00    -0.320 OA
HETATM   36  C   UNL     1      30.369  45.010  56.500  1.00  0.00     0.142 A 
HETATM   37  C   UNL     1      31.104  43.852  56.576  1.00  0.00     0.027 A 
HETATM   38  C   UNL     1      30.717  43.069  55.459  1.00  0.00     0.041 A 
ENDBRANCH   4  34
TORSDOF 6
ENDMDL
MODEL 7
REMARK VINA RESULT:      -9.5      4.557     10.147
REMARK  6 active torsions:
REMARK  status: ('A' for Active; 'I' for Inactive)
REMARK    1  A    between atoms: C_4  and  C_5 
REMARK    2  A    between atoms: C_8  and  C_9 
REMARK    3  A    between atoms: C_9  and  C_10 
REMARK       I    between atoms: C_10  and  N_11 
REMARK    4  A    between atoms: N_11  and  C_12 
REMARK    5  A    between atoms: N_13  and  C_14 
REMARK    6  A    between atoms: C_25  and  C_26 
ROOT
HETATM    1  C   UNL     1      24.601  47.020  50.364  1.00  0.00     0.152 A 
HETATM    2  N   UNL     1      23.960  45.823  50.078  1.00  0.00    -0.044 N 
HETATM    3  N   UNL     1      24.312  44.822  50.942  1.00  0.00    -0.148 NA
HETATM    4  C   UNL     1      25.181  45.409  51.776  1.00  0.00     0.115 A 
HETATM    5  C   UNL     1      25.417  46.757  51.441  1.00  0.00     0.087 A 
ENDROOT
BRANCH   1   6
HETATM    6  N   UNL     1      24.354  48.187  49.654  1.00  0.00    -0.311 N 
HETATM    7  C   UNL     1      25.334  48.853  48.938  1.00  0.00     0.227 C 
HETATM    8  O   UNL     1      26.453  48.416  48.678  1.00  0.00    -0.273 OA
HETATM    9  H   UNL     1      23.411  48.575  49.703  1.00  0.00     0.170 HD
BRANCH   7  10
HETATM   10  C   UNL     1      24.921  50.258  48.524  1.00  0.00     0.141 C 
BRANCH  10  11
HETATM   11  C   UNL     1      23.427  50.473  48.612  1.00  0.00    -0.049 A 
HETATM   12  C   UNL     1      22.837  50.960  49.786  1.00  0.00     0.008 A 
HETATM   13  C   UNL     1      21.455  51.144  49.870  1.00  0.00     0.013 A 
HETATM   14  C   UNL     1      20.615  50.874  48.778  1.00  0.00    -0.026 A 
HETATM   15  C   UNL     1      21.219  50.421  47.593  1.00  0.00     0.013 A 
HETATM   16  C   UNL     1      22.605  50.225  47.508  1.00  0.00     0.008 A 
BRANCH  14  17
HETATM   17  C   UNL     1      19.154  51.054  48.883  1.00  0.00    -0.026 A 
HETATM   18  C   UNL     1      18.601  52.074  49.678  1.00  0.00     0.012 A 
HETATM   19  C   UNL     1      17.217  52.231  49.801  1.00  0.00     0.001 A 
HETATM   20  C   UNL     1      16.357  51.371  49.124  1.00  0.00     0.000 A 
HETATM   21  C   UNL     1      16.880  50.357  48.327  1.00  0.00     0.001 A 
HETATM   22  C   UNL     1      18.264  50.201  48.209  1.00  0.00     0.012 A 
ENDBRANCH  14  17
ENDBRANCH  10  11
ENDBRANCH   7  10
ENDBRANCH   1   6
BRANCH   2  23
HETATM   23  C   UNL     1      23.046  45.554  49.041  1.00  0.00     0.732 A 
HETATM   24  N   UNL     1      22.402  46.481  48.393  1.00  0.00    -0.067 NA
HETATM   25  C   UNL     1      21.579  46.002  47.412  1.00  0.00     0.065 A 
HETATM   26  C   UNL     1      21.405  44.719  47.088  1.00  0.00     0.036 A 
HETATM   27  C   UNL     1      20.752  46.891  46.543  1.00  0.00     0.061 C 
HETATM   28  C   UNL     1      20.464  44.513  45.965  1.00  0.00     0.047 C 
HETATM   29  C   UNL     1      22.137  43.692  47.826  1.00  0.00     0.268 A 
HETATM   30  C   UNL     1      20.318  45.939  45.419  1.00  0.00     0.011 C 
HETATM   31  O   UNL     1      22.030  42.499  47.580  1.00  0.00    -0.267 OA
HETATM   32  N   UNL     1      22.941  44.201  48.806  1.00  0.00    -0.152 N 
HETATM   33  H   UNL     1      23.492  43.560  49.369  1.00  0.00     0.188 HD
ENDBRANCH   2  23
BRANCH   4  34
HETATM   34  C   UNL     1      25.795  44.703  52.937  1.00  0.00     0.105 A 
HETATM   35  O   UNL     1      27.095  44.276  52.980  1.00  0.00    -0.320 OA
HETATM   36  C   UNL     1      27.294  43.705  54.195  1.00  0.00     0.142 A 
HETATM   37  C   UNL     1      26.143  43.752  54.944  1.00  0.00     0.027 A 
HETATM   38  C   UNL     1      25.174  44.394  54.132  1.00  0.00     0.041 A 
ENDBRANCH   4  34
TORSDOF 6
ENDMDL
MODEL 8
REMARK VINA RESULT:      -9.3      3.473      8.491
REMARK  6 active torsions:
REMARK  status: ('A' for Active; 'I' for Inactive)
REMARK    1  A    between atoms: C_4  and  C_5 
REMARK    2  A    between atoms: C_8  and  C_9 
REMARK    3  A    between atoms: C_9  and  C_10 
REMARK       I    between atoms: C_10  and  N_11 
REMARK    4  A    between atoms: N_11  and  C_12 
REMARK    5  A    between atoms: N_13  and  C_14 
REMARK    6  A    between atoms: C_25  and  C_26 
ROOT
HETATM    1  C   UNL     1      26.813  43.294  51.178  1.00  0.00     0.152 A 
HETATM    2  N   UNL     1      27.733  42.880  52.132  1.00  0.00    -0.044 N 
HETATM    3  N   UNL     1      28.158  41.596  51.925  1.00  0.00    -0.148 NA
HETATM    4  C   UNL     1      27.495  41.211  50.827  1.00  0.00     0.115 A 
HETATM    5  C   UNL     1      26.628  42.213  50.347  1.00  0.00     0.087 A 
ENDROOT
BRANCH   1   6
HETATM    6  N   UNL     1      26.288  44.579  51.155  1.00  0.00    -0.311 N 
HETATM    7  C   UNL     1      26.661  45.527  50.218  1.00  0.00     0.227 C 
HETATM    8  O   UNL     1      27.322  45.311  49.204  1.00  0.00    -0.273 OA
HETATM    9  H   UNL     1      25.627  44.828  51.892  1.00  0.00     0.170 HD
BRANCH   7  10
HETATM   10  C   UNL     1      26.216  46.936  50.583  1.00  0.00     0.141 C 
BRANCH  10  11
HETATM   11  C   UNL     1      24.965  47.357  49.847  1.00  0.00    -0.049 A 
HETATM   12  C   UNL     1      24.821  48.663  49.360  1.00  0.00     0.008 A 
HETATM   13  C   UNL     1      23.658  49.054  48.692  1.00  0.00     0.013 A 
HETATM   14  C   UNL     1      22.609  48.150  48.462  1.00  0.00    -0.026 A 
HETATM   15  C   UNL     1      22.778  46.833  48.921  1.00  0.00     0.013 A 
HETATM   16  C   UNL     1      23.939  46.439  49.601  1.00  0.00     0.008 A 
BRANCH  14  17
HETATM   17  C   UNL     1      21.377  48.578  47.771  1.00  0.00    -0.026 A 
HETATM   18  C   UNL     1      20.519  47.643  47.165  1.00  0.00     0.012 A 
HETATM   19  C   UNL     1      19.365  48.048  46.487  1.00  0.00     0.001 A 
HETATM   20  C   UNL     1      19.044  49.400  46.406  1.00  0.00     0.000 A 
HETATM   21  C   UNL     1      19.874  50.344  47.003  1.00  0.00     0.001 A 
HETATM   22  C   UNL     1      21.029  49.936  47.677  1.00  0.00     0.012 A 
ENDBRANCH  14  17
ENDBRANCH  10  11
ENDBRANCH   7  10
ENDBRANCH   1   6
BRANCH   2  23
HETATM   23  C   UNL     1      28.231  43.608  53.230  1.00  0.00     0.732 A 
HETATM   24  N   UNL     1      27.679  44.697  53.679  1.00  0.00    -0.067 NA
HETATM   25  C   UNL     1      28.312  45.233  54.766  1.00  0.00     0.065 A 
HETATM   26  C   UNL     1      29.397  44.739  55.366  1.00  0.00     0.036 A 
HETATM   27  C   UNL     1      27.844  46.477  55.445  1.00  0.00     0.061 C 
HETATM   28  C   UNL     1      29.841  45.531  56.535  1.00  0.00     0.047 C 
HETATM   29  C   UNL     1      30.005  43.515  54.847  1.00  0.00     0.268 A 
HETATM   30  C   UNL     1      28.633  46.449  56.761  1.00  0.00     0.011 C 
HETATM   31  O   UNL     1      30.995  43.005  55.350  1.00  0.00    -0.267 OA
HETATM   32  N   UNL     1      29.355  43.011  53.756  1.00  0.00    -0.152 N 
HETATM   33  H   UNL     1      29.704  42.158  53.329  1.00  0.00     0.188 HD
ENDBRANCH   2  23
BRANCH   4  34
HETATM   34  C   UNL     1      27.689  39.878  50.187  1.00  0.00     0.105 A 
HETATM   35  O   UNL     1      28.902  39.259  50.046  1.00  0.00    -0.320 OA
HETATM   36  C   UNL     1      28.678  38.063  49.445  1.00  0.00     0.142 A 
HETATM   37  C   UNL     1      27.338  37.894  49.191  1.00  0.00     0.027 A 
HETATM   38  C   UNL     1      26.699  39.066  49.668  1.00  0.00     0.041 A 
ENDBRANCH   4  34
TORSDOF 6
ENDMDL
MODEL 9
REMARK VINA RESULT:      -9.3      3.380      7.005
REMARK  6 active torsions:
REMARK  status: ('A' for Active; 'I' for Inactive)
REMARK    1  A    between atoms: C_4  and  C_5 
REMARK    2  A    between atoms: C_8  and  C_9 
REMARK    3  A    between atoms: C_9  and  C_10 
REMARK       I    between atoms: C_10  and  N_11 
REMARK    4  A    between atoms: N_11  and  C_12 
REMARK    5  A    between atoms: N_13  and  C_14 
REMARK    6  A    between atoms: C_25  and  C_26 
ROOT
HETATM    1  C   UNL     1      24.909  45.499  50.746  1.00  0.00     0.152 A 
HETATM    2  N   UNL     1      25.341  46.528  51.572  1.00  0.00    -0.044 N 
HETATM    3  N   UNL     1      24.961  47.760  51.113  1.00  0.00    -0.148 NA
HETATM    4  C   UNL     1      24.282  47.489  49.991  1.00  0.00     0.115 A 
HETATM    5  C   UNL     1      24.250  46.110  49.704  1.00  0.00     0.087 A 
ENDROOT
BRANCH   1   6
HETATM    6  N   UNL     1      25.130  44.161  51.044  1.00  0.00    -0.311 N 
HETATM    7  C   UNL     1      26.055  43.384  50.368  1.00  0.00     0.227 C 
HETATM    8  O   UNL     1      26.909  43.802  49.588  1.00  0.00    -0.273 OA
HETATM    9  H   UNL     1      24.550  43.740  51.771  1.00  0.00     0.170 HD
BRANCH   7  10
HETATM   10  C   UNL     1      25.892  41.894  50.633  1.00  0.00     0.141 C 
BRANCH  10  11
HETATM   11  C   UNL     1      26.468  41.043  49.524  1.00  0.00    -0.049 A 
HETATM   12  C   UNL     1      27.777  40.551  49.600  1.00  0.00     0.008 A 
HETATM   13  C   UNL     1      28.312  39.776  48.568  1.00  0.00     0.013 A 
HETATM   14  C   UNL     1      27.552  39.442  47.437  1.00  0.00    -0.026 A 
HETATM   15  C   UNL     1      26.227  39.908  47.386  1.00  0.00     0.013 A 
HETATM   16  C   UNL     1      25.690  40.695  48.415  1.00  0.00     0.008 A 
BRANCH  14  17
HETATM   17  C   UNL     1      28.132  38.638  46.343  1.00  0.00    -0.026 A 
HETATM   18  C   UNL     1      28.767  37.409  46.600  1.00  0.00     0.012 A 
HETATM   19  C   UNL     1      29.342  36.659  45.570  1.00  0.00     0.001 A 
HETATM   20  C   UNL     1      29.287  37.121  44.258  1.00  0.00     0.000 A 
HETATM   21  C   UNL     1      28.659  38.331  43.978  1.00  0.00     0.001 A 
HETATM   22  C   UNL     1      28.089  39.081  45.011  1.00  0.00     0.012 A 
ENDBRANCH  14  17
ENDBRANCH  10  11
ENDBRANCH   7  10
ENDBRANCH   1   6
BRANCH   2  23
HETATM   23  C   UNL     1      26.096  46.431  52.757  1.00  0.00     0.732 A 
HETATM   24  N   UNL     1      27.005  45.522  52.956  1.00  0.00    -0.067 NA
HETATM   25  C   UNL     1      27.632  45.621  54.168  1.00  0.00     0.065 A 
HETATM   26  C   UNL     1      27.389  46.539  55.106  1.00  0.00     0.036 A 
HETATM   27  C   UNL     1      28.711  44.685  54.600  1.00  0.00     0.061 C 
HETATM   28  C   UNL     1      28.245  46.402  56.305  1.00  0.00     0.047 C 
HETATM   29  C   UNL     1      26.363  47.552  54.865  1.00  0.00     0.268 A 
HETATM   30  C   UNL     1      29.308  45.412  55.814  1.00  0.00     0.011 C 
HETATM   31  O   UNL     1      26.093  48.425  55.677  1.00  0.00    -0.267 OA
HETATM   32  N   UNL     1      25.749  47.419  53.652  1.00  0.00    -0.152 N 
HETATM   33  H   UNL     1      25.025  48.083  53.395  1.00  0.00     0.188 HD
ENDBRANCH   2  23
BRANCH   4  34
HETATM   34  C   UNL     1      23.621  48.543  49.168  1.00  0.00     0.105 A 
HETATM   35  O   UNL     1      22.266  48.673  49.026  1.00  0.00    -0.320 OA
HETATM   36  C   UNL     1      22.045  49.750  48.229  1.00  0.00     0.142 A 
HETATM   37  C   UNL     1      23.235  50.322  47.850  1.00  0.00     0.027 A 
HETATM   38  C   UNL     1      24.253  49.543  48.453  1.00  0.00     0.041 A 
ENDBRANCH   4  34
TORSDOF 6
ENDMDL
MODEL 10
REMARK VINA RESULT:      -9.3      4.041      9.490
REMARK  6 active torsions:
REMARK  status: ('A' for Active; 'I' for Inactive)
REMARK    1  A    between atoms: C_4  and  C_5 
REMARK    2  A    between atoms: C_8  and  C_9 
REMARK    3  A    between atoms: C_9  and  C_10 
REMARK       I    between atoms: C_10  and  N_11 
REMARK    4  A    between atoms: N_11  and  C_12 
REMARK    5  A    between atoms: N_13  and  C_14 
REMARK    6  A    between atoms: C_25  and  C_26 
ROOT
HETATM    1  C   UNL     1      24.672  45.627  51.088  1.00  0.00     0.152 A 
HETATM    2  N   UNL     1      25.006  46.974  51.070  1.00  0.00    -0.044 N 
HETATM    3  N   UNL     1      25.906  47.303  52.046  1.00  0.00    -0.148 NA
HETATM    4  C   UNL     1      26.134  46.142  52.676  1.00  0.00     0.115 A 
HETATM    5  C   UNL     1      25.371  45.085  52.142  1.00  0.00     0.087 A 
ENDROOT
BRANCH   1   6
HETATM    6  N   UNL     1      23.819  45.057  50.153  1.00  0.00    -0.311 N 
HETATM    7  C   UNL     1      24.234  44.102  49.241  1.00  0.00     0.227 C 
HETATM    8  O   UNL     1      25.311  43.509  49.264  1.00  0.00    -0.273 OA
HETATM    9  H   UNL     1      22.856  45.395  50.128  1.00  0.00     0.170 HD
BRANCH   7  10
HETATM   10  C   UNL     1      23.232  43.871  48.118  1.00  0.00     0.141 C 
BRANCH  10  11
HETATM   11  C   UNL     1      22.200  44.972  48.029  1.00  0.00    -0.049 A 
HETATM   12  C   UNL     1      22.382  46.062  47.168  1.00  0.00     0.008 A 
HETATM   13  C   UNL     1      21.433  47.085  47.097  1.00  0.00     0.013 A 
HETATM   14  C   UNL     1      20.257  47.044  47.862  1.00  0.00    -0.026 A 
HETATM   15  C   UNL     1      20.065  45.929  48.695  1.00  0.00     0.013 A 
HETATM   16  C   UNL     1      21.020  44.906  48.778  1.00  0.00     0.008 A 
BRANCH  14  17
HETATM   17  C   UNL     1      19.270  48.140  47.794  1.00  0.00    -0.026 A 
HETATM   18  C   UNL     1      19.237  49.025  46.701  1.00  0.00     0.012 A 
HETATM   19  C   UNL     1      18.321  50.079  46.646  1.00  0.00     0.001 A 
HETATM   20  C   UNL     1      17.413  50.266  47.683  1.00  0.00     0.000 A 
HETATM   21  C   UNL     1      17.421  49.401  48.773  1.00  0.00     0.001 A 
HETATM   22  C   UNL     1      18.341  48.349  48.827  1.00  0.00     0.012 A 
ENDBRANCH  14  17
ENDBRANCH  10  11
ENDBRANCH   7  10
ENDBRANCH   1   6
BRANCH   2  23
HETATM   23  C   UNL     1      24.528  47.975  50.201  1.00  0.00     0.732 A 
HETATM   24  N   UNL     1      23.303  48.413  50.215  1.00  0.00    -0.067 NA
HETATM   25  C   UNL     1      23.056  49.400  49.302  1.00  0.00     0.065 A 
HETATM   26  C   UNL     1      23.940  49.919  48.447  1.00  0.00     0.036 A 
HETATM   27  C   UNL     1      21.721  50.048  49.151  1.00  0.00     0.061 C 
HETATM   28  C   UNL     1      23.381  50.992  47.595  1.00  0.00     0.047 C 
HETATM   29  C   UNL     1      25.312  49.415  48.445  1.00  0.00     0.268 A 
HETATM   30  C   UNL     1      22.049  51.281  48.298  1.00  0.00     0.011 C 
HETATM   31  O   UNL     1      26.174  49.847  47.694  1.00  0.00    -0.267 OA
HETATM   32  N   UNL     1      25.523  48.423  49.360  1.00  0.00    -0.152 N 
HETATM   33  H   UNL     1      26.450  48.014  49.434  1.00  0.00     0.188 HD
ENDBRANCH   2  23
BRANCH   4  34
HETATM   34  C   UNL     1      27.109  46.004  53.796  1.00  0.00     0.105 A 
HETATM   35  O   UNL     1      27.339  46.967  54.741  1.00  0.00    -0.320 OA
HETATM   36  C   UNL     1      28.267  46.476  55.602  1.00  0.00     0.142 A 
HETATM   37  C   UNL     1      28.645  45.208  55.230  1.00  0.00     0.027 A 
HETATM   38  C   UNL     1      27.901  44.904  54.063  1.00  0.00     0.041 A 
ENDBRANCH   4  34
TORSDOF 6
ENDMDL
