MODEL 1
REMARK VINA RESULT:     -10.3      0.000      0.000
REMARK  5 active torsions:
REMARK  status: ('A' for Active; 'I' for Inactive)
REMARK    1  A    between atoms: C_5  and  C_6 
REMARK    2  A    between atoms: C_10  and  C_11 
REMARK       I    between atoms: C_11  and  N_12 
REMARK    3  A    between atoms: N_12  and  N_13 
REMARK       I    between atoms: N_13  and  C_14 
REMARK       I    between atoms: C_14  and  N_15 
REMARK    4  A    between atoms: N_15  and  C_16 
REMARK    5  A    between atoms: C_16  and  C_17 
ROOT
HETATM    1  C   UNL     1      24.815  45.481  51.642  1.00  0.00     0.288 C 
HETATM    2  N   UNL     1      24.778  46.548  50.773  1.00  0.00    -0.261 N 
HETATM    3  O   UNL     1      24.030  44.538  51.558  1.00  0.00    -0.264 OA
HETATM    4  H   UNL     1      25.388  47.359  50.838  1.00  0.00     0.190 HD
ENDROOT
BRANCH   2   5
HETATM    5  N   UNL     1      23.805  46.590  49.762  1.00  0.00    -0.249 N 
HETATM    6  C   UNL     1      23.314  47.838  49.446  1.00  0.00     0.334 C 
HETATM    7  N   UNL     1      22.294  47.785  48.534  1.00  0.00    -0.341 N 
HETATM    8  O   UNL     1      23.774  48.872  49.922  1.00  0.00    -0.246 OA
HETATM    9  H   UNL     1      22.199  46.930  48.007  1.00  0.00     0.164 HD
HETATM   10  H   UNL     1      23.187  45.785  49.720  1.00  0.00     0.192 HD
BRANCH   7  11
HETATM   11  C   UNL     1      21.746  48.999  47.957  1.00  0.00     0.129 C 
BRANCH  11  12
HETATM   12  C   UNL     1      20.226  49.123  48.173  1.00  0.00     0.004 C 
HETATM   13  C   UNL     1      19.806  49.269  49.650  1.00  0.00     0.010 C 
HETATM   14  C   UNL     1      19.925  50.677  50.260  1.00  0.00    -0.018 C 
HETATM   15  C   UNL     1      19.352  51.748  49.324  1.00  0.00     0.004 C 
HETATM   16  C   UNL     1      21.343  51.022  50.715  1.00  0.00     0.010 C 
HETATM   17  C   UNL     1      19.881  51.638  47.898  1.00  0.00     0.001 C 
HETATM   18  C   UNL     1      19.628  50.250  47.319  1.00  0.00     0.006 C 
ENDBRANCH  11  12
ENDBRANCH   7  11
ENDBRANCH   2   5
BRANCH   1  19
HETATM   19  C   UNL     1      25.832  45.558  52.655  1.00  0.00     0.121 A 
HETATM   20  N   UNL     1      25.966  46.650  53.465  1.00  0.00    -0.272 N 
HETATM   21  N   UNL     1      26.979  46.565  54.339  1.00  0.00    -0.174 NA
HETATM   22  H   UNL     1      25.392  47.487  53.460  1.00  0.00     0.189 HD
HETATM   23  C   UNL     1      27.536  45.366  54.104  1.00  0.00     0.089 A 
HETATM   24  C   UNL     1      26.838  44.701  53.056  1.00  0.00     0.071 A 
BRANCH  23  25
HETATM   25  C   UNL     1      28.711  44.894  54.848  1.00  0.00    -0.006 A 
HETATM   26  C   UNL     1      29.274  45.661  55.877  1.00  0.00     0.014 A 
HETATM   27  C   UNL     1      30.377  45.190  56.601  1.00  0.00     0.007 A 
HETATM   28  C   UNL     1      30.945  43.948  56.303  1.00  0.00    -0.062 A 
HETATM   29  C   UNL     1      32.097  43.420  57.102  1.00  0.00     0.048 C 
HETATM   30  C   UNL     1      30.385  43.178  55.278  1.00  0.00     0.007 A 
HETATM   31  C   UNL     1      29.284  43.650  54.555  1.00  0.00     0.014 A 
ENDBRANCH  23  25
ENDBRANCH   1  19
TORSDOF 5
ENDMDL
MODEL 2
REMARK VINA RESULT:      -9.9      0.687      1.538
REMARK  5 active torsions:
REMARK  status: ('A' for Active; 'I' for Inactive)
REMARK    1  A    between atoms: C_5  and  C_6 
REMARK    2  A    between atoms: C_10  and  C_11 
REMARK       I    between atoms: C_11  and  N_12 
REMARK    3  A    between atoms: N_12  and  N_13 
REMARK       I    between atoms: N_13  and  C_14 
REMARK       I    between atoms: C_14  and  N_15 
REMARK    4  A    between atoms: N_15  and  C_16 
REMARK    5  A    between atoms: C_16  and  C_17 
ROOT
HETATM    1  C   UNL     1      24.814  45.619  51.688  1.00  0.00     0.288 C 
HETATM    2  N   UNL     1      24.757  46.686  50.820  1.00  0.00    -0.261 N 
HETATM    3  O   UNL     1      24.016  44.685  51.632  1.00  0.00    -0.264 OA
HETATM    4  H   UNL     1      25.378  47.490  50.863  1.00  0.00     0.190 HD
ENDROOT
BRANCH   2   5
HETATM    5  N   UNL     1      23.750  46.739  49.845  1.00  0.00    -0.249 N 
HETATM    6  C   UNL     1      23.323  47.998  49.482  1.00  0.00     0.334 C 
HETATM    7  N   UNL     1      22.266  47.964  48.612  1.00  0.00    -0.341 N 
HETATM    8  O   UNL     1      23.862  49.024  49.887  1.00  0.00    -0.246 OA
HETATM    9  H   UNL     1      22.099  47.091  48.134  1.00  0.00     0.164 HD
HETATM   10  H   UNL     1      23.083  45.973  49.866  1.00  0.00     0.192 HD
BRANCH   7  11
HETATM   11  C   UNL     1      21.770  49.179  47.993  1.00  0.00     0.129 C 
BRANCH  11  12
HETATM   12  C   UNL     1      20.987  50.068  48.979  1.00  0.00     0.004 C 
HETATM   13  C   UNL     1      20.345  51.314  48.336  1.00  0.00     0.010 C 
HETATM   14  C   UNL     1      19.011  51.096  47.601  1.00  0.00    -0.018 C 
HETATM   15  C   UNL     1      18.047  50.234  48.425  1.00  0.00     0.004 C 
HETATM   16  C   UNL     1      19.183  50.554  46.182  1.00  0.00     0.010 C 
HETATM   17  C   UNL     1      18.690  48.953  48.947  1.00  0.00     0.001 C 
HETATM   18  C   UNL     1      19.945  49.256  49.760  1.00  0.00     0.006 C 
ENDBRANCH  11  12
ENDBRANCH   7  11
ENDBRANCH   2   5
BRANCH   1  19
HETATM   19  C   UNL     1      25.867  45.685  52.664  1.00  0.00     0.121 A 
HETATM   20  N   UNL     1      26.122  46.821  53.378  1.00  0.00    -0.272 N 
HETATM   21  N   UNL     1      27.153  46.716  54.229  1.00  0.00    -0.174 NA
HETATM   22  H   UNL     1      25.623  47.703  53.320  1.00  0.00     0.189 HD
HETATM   23  C   UNL     1      27.596  45.457  54.078  1.00  0.00     0.089 A 
HETATM   24  C   UNL     1      26.808  44.776  53.106  1.00  0.00     0.071 A 
BRANCH  23  25
HETATM   25  C   UNL     1      28.749  44.943  54.827  1.00  0.00    -0.006 A 
HETATM   26  C   UNL     1      29.317  45.675  55.879  1.00  0.00     0.014 A 
HETATM   27  C   UNL     1      30.398  45.164  56.607  1.00  0.00     0.007 A 
HETATM   28  C   UNL     1      30.942  43.916  56.289  1.00  0.00    -0.062 A 
HETATM   29  C   UNL     1      32.072  43.344  57.092  1.00  0.00     0.048 C 
HETATM   30  C   UNL     1      30.379  43.180  55.241  1.00  0.00     0.007 A 
HETATM   31  C   UNL     1      29.298  43.692  54.515  1.00  0.00     0.014 A 
ENDBRANCH  23  25
ENDBRANCH   1  19
TORSDOF 5
ENDMDL
MODEL 3
REMARK VINA RESULT:      -9.9      1.735      2.210
REMARK  5 active torsions:
REMARK  status: ('A' for Active; 'I' for Inactive)
REMARK    1  A    between atoms: C_5  and  C_6 
REMARK    2  A    between atoms: C_10  and  C_11 
REMARK       I    between atoms: C_11  and  N_12 
REMARK    3  A    between atoms: N_12  and  N_13 
REMARK       I    between atoms: N_13  and  C_14 
REMARK       I    between atoms: C_14  and  N_15 
REMARK    4  A    between atoms: N_15  and  C_16 
REMARK    5  A    between atoms: C_16  and  C_17 
ROOT
HETATM    1  C   UNL     1      24.303  45.257  49.961  1.00  0.00     0.288 C 
HETATM    2  N   UNL     1      24.211  46.615  49.752  1.00  0.00    -0.261 N 
HETATM    3  O   UNL     1      23.385  44.487  49.684  1.00  0.00    -0.264 OA
HETATM    4  H   UNL     1      24.937  47.281  50.005  1.00  0.00     0.190 HD
ENDROOT
BRANCH   2   5
HETATM    5  N   UNL     1      23.032  47.161  49.224  1.00  0.00    -0.249 N 
HETATM    6  C   UNL     1      22.867  48.519  49.388  1.00  0.00     0.334 C 
HETATM    7  N   UNL     1      21.647  48.958  48.947  1.00  0.00    -0.341 N 
HETATM    8  O   UNL     1      23.742  49.243  49.855  1.00  0.00    -0.246 OA
HETATM    9  H   UNL     1      21.138  48.341  48.331  1.00  0.00     0.164 HD
HETATM   10  H   UNL     1      22.219  46.553  49.256  1.00  0.00     0.192 HD
BRANCH   7  11
HETATM   11  C   UNL     1      21.338  50.374  48.890  1.00  0.00     0.129 C 
BRANCH  11  12
HETATM   12  C   UNL     1      20.051  50.668  48.096  1.00  0.00     0.004 C 
HETATM   13  C   UNL     1      18.949  49.603  48.259  1.00  0.00     0.010 C 
HETATM   14  C   UNL     1      18.088  49.696  49.531  1.00  0.00    -0.018 C 
HETATM   15  C   UNL     1      17.630  51.135  49.798  1.00  0.00     0.004 C 
HETATM   16  C   UNL     1      18.753  49.077  50.760  1.00  0.00     0.010 C 
HETATM   17  C   UNL     1      18.771  52.145  49.740  1.00  0.00     0.001 C 
HETATM   18  C   UNL     1      19.509  52.070  48.407  1.00  0.00     0.006 C 
ENDBRANCH  11  12
ENDBRANCH   7  11
ENDBRANCH   2   5
BRANCH   1  19
HETATM   19  C   UNL     1      25.544  44.813  50.534  1.00  0.00     0.121 A 
HETATM   20  N   UNL     1      26.478  44.137  49.803  1.00  0.00    -0.272 N 
HETATM   21  N   UNL     1      27.567  43.777  50.498  1.00  0.00    -0.174 NA
HETATM   22  H   UNL     1      26.421  43.888  48.820  1.00  0.00     0.189 HD
HETATM   23  C   UNL     1      27.348  44.240  51.741  1.00  0.00     0.089 A 
HETATM   24  C   UNL     1      26.089  44.901  51.800  1.00  0.00     0.071 A 
BRANCH  23  25
HETATM   25  C   UNL     1      28.310  44.027  52.829  1.00  0.00    -0.006 A 
HETATM   26  C   UNL     1      28.193  44.713  54.046  1.00  0.00     0.014 A 
HETATM   27  C   UNL     1      29.099  44.482  55.089  1.00  0.00     0.007 A 
HETATM   28  C   UNL     1      30.146  43.570  54.932  1.00  0.00    -0.062 A 
HETATM   29  C   UNL     1      31.093  43.287  56.059  1.00  0.00     0.048 C 
HETATM   30  C   UNL     1      30.267  42.882  53.720  1.00  0.00     0.007 A 
HETATM   31  C   UNL     1      29.362  43.114  52.679  1.00  0.00     0.014 A 
ENDBRANCH  23  25
ENDBRANCH   1  19
TORSDOF 5
ENDMDL
MODEL 4
REMARK VINA RESULT:      -9.4      1.730      2.250
REMARK  5 active torsions:
REMARK  status: ('A' for Active; 'I' for Inactive)
REMARK    1  A    between atoms: C_5  and  C_6 
REMARK    2  A    between atoms: C_10  and  C_11 
REMARK       I    between atoms: C_11  and  N_12 
REMARK    3  A    between atoms: N_12  and  N_13 
REMARK       I    between atoms: N_13  and  C_14 
REMARK       I    between atoms: C_14  and  N_15 
REMARK    4  A    between atoms: N_15  and  C_16 
REMARK    5  A    between atoms: C_16  and  C_17 
ROOT
HETATM    1  C   UNL     1      23.708  44.413  50.299  1.00  0.00     0.288 C 
HETATM    2  N   UNL     1      23.452  45.570  49.598  1.00  0.00    -0.261 N 
HETATM    3  O   UNL     1      22.843  43.563  50.500  1.00  0.00    -0.264 OA
HETATM    4  H   UNL     1      24.134  46.309  49.447  1.00  0.00     0.190 HD
ENDROOT
BRANCH   2   5
HETATM    5  N   UNL     1      22.162  45.815  49.104  1.00  0.00    -0.249 N 
HETATM    6  C   UNL     1      21.891  47.114  48.733  1.00  0.00     0.334 C 
HETATM    7  N   UNL     1      20.584  47.295  48.369  1.00  0.00    -0.341 N 
HETATM    8  O   UNL     1      22.750  47.991  48.714  1.00  0.00    -0.246 OA
HETATM    9  H   UNL     1      20.054  46.465  48.149  1.00  0.00     0.164 HD
HETATM   10  H   UNL     1      21.424  45.250  49.515  1.00  0.00     0.192 HD
BRANCH   7  11
HETATM   11  C   UNL     1      20.135  48.553  47.800  1.00  0.00     0.129 C 
BRANCH  11  12
HETATM   12  C   UNL     1      18.908  49.129  48.534  1.00  0.00     0.004 C 
HETATM   13  C   UNL     1      19.189  49.577  49.982  1.00  0.00     0.010 C 
HETATM   14  C   UNL     1      19.841  50.960  50.158  1.00  0.00    -0.018 C 
HETATM   15  C   UNL     1      19.162  52.019  49.282  1.00  0.00     0.004 C 
HETATM   16  C   UNL     1      21.357  50.945  49.956  1.00  0.00     0.010 C 
HETATM   17  C   UNL     1      19.007  51.582  47.829  1.00  0.00     0.001 C 
HETATM   18  C   UNL     1      18.253  50.259  47.727  1.00  0.00     0.006 C 
ENDBRANCH  11  12
ENDBRANCH   7  11
ENDBRANCH   2   5
BRANCH   1  19
HETATM   19  C   UNL     1      25.054  44.282  50.784  1.00  0.00     0.121 A 
HETATM   20  N   UNL     1      26.125  44.206  49.939  1.00  0.00    -0.272 N 
HETATM   21  N   UNL     1      27.305  44.064  50.557  1.00  0.00    -0.174 NA
HETATM   22  H   UNL     1      26.104  44.242  48.924  1.00  0.00     0.189 HD
HETATM   23  C   UNL     1      27.008  44.051  51.867  1.00  0.00     0.089 A 
HETATM   24  C   UNL     1      25.602  44.191  52.048  1.00  0.00     0.071 A 
BRANCH  23  25
HETATM   25  C   UNL     1      28.040  43.885  52.897  1.00  0.00    -0.006 A 
HETATM   26  C   UNL     1      29.138  43.037  52.696  1.00  0.00     0.014 A 
HETATM   27  C   UNL     1      30.133  42.907  53.673  1.00  0.00     0.007 A 
HETATM   28  C   UNL     1      30.044  43.615  54.875  1.00  0.00    -0.062 A 
HETATM   29  C   UNL     1      31.127  43.513  55.907  1.00  0.00     0.048 C 
HETATM   30  C   UNL     1      28.952  44.464  55.081  1.00  0.00     0.007 A 
HETATM   31  C   UNL     1      27.958  44.592  54.104  1.00  0.00     0.014 A 
ENDBRANCH  23  25
ENDBRANCH   1  19
TORSDOF 5
ENDMDL
MODEL 5
REMARK VINA RESULT:      -9.2      1.956      3.479
REMARK  5 active torsions:
REMARK  status: ('A' for Active; 'I' for Inactive)
REMARK    1  A    between atoms: C_5  and  C_6 
REMARK    2  A    between atoms: C_10  and  C_11 
REMARK       I    between atoms: C_11  and  N_12 
REMARK    3  A    between atoms: N_12  and  N_13 
REMARK       I    between atoms: N_13  and  C_14 
REMARK       I    between atoms: C_14  and  N_15 
REMARK    4  A    between atoms: N_15  and  C_16 
REMARK    5  A    between atoms: C_16  and  C_17 
ROOT
HETATM    1  C   UNL     1      24.425  48.117  49.671  1.00  0.00     0.288 C 
HETATM    2  N   UNL     1      23.056  48.249  49.694  1.00  0.00    -0.261 N 
HETATM    3  O   UNL     1      25.145  48.851  48.997  1.00  0.00    -0.264 OA
HETATM    4  H   UNL     1      22.431  47.636  50.211  1.00  0.00     0.190 HD
ENDROOT
BRANCH   2   5
HETATM    5  N   UNL     1      22.437  49.236  48.911  1.00  0.00    -0.249 N 
HETATM    6  C   UNL     1      21.082  49.090  48.711  1.00  0.00     0.334 C 
HETATM    7  N   UNL     1      20.574  50.025  47.849  1.00  0.00    -0.341 N 
HETATM    8  O   UNL     1      20.417  48.225  49.275  1.00  0.00    -0.246 OA
HETATM    9  H   UNL     1      21.140  50.843  47.681  1.00  0.00     0.164 HD
HETATM   10  H   UNL     1      23.012  49.626  48.169  1.00  0.00     0.192 HD
BRANCH   7  11
HETATM   11  C   UNL     1      19.144  50.137  47.628  1.00  0.00     0.129 C 
BRANCH  11  12
HETATM   12  C   UNL     1      18.693  51.592  47.397  1.00  0.00     0.004 C 
HETATM   13  C   UNL     1      17.240  51.733  46.900  1.00  0.00     0.010 C 
HETATM   14  C   UNL     1      16.137  51.647  47.970  1.00  0.00    -0.018 C 
HETATM   15  C   UNL     1      16.477  52.497  49.199  1.00  0.00     0.004 C 
HETATM   16  C   UNL     1      15.778  50.212  48.355  1.00  0.00     0.010 C 
HETATM   17  C   UNL     1      17.884  52.244  49.730  1.00  0.00     0.001 C 
HETATM   18  C   UNL     1      18.932  52.456  48.643  1.00  0.00     0.006 C 
ENDBRANCH  11  12
ENDBRANCH   7  11
ENDBRANCH   2   5
BRANCH   1  19
HETATM   19  C   UNL     1      24.947  47.055  50.487  1.00  0.00     0.121 A 
HETATM   20  N   UNL     1      24.187  45.978  50.846  1.00  0.00    -0.272 N 
HETATM   21  N   UNL     1      24.822  45.092  51.627  1.00  0.00    -0.174 NA
HETATM   22  H   UNL     1      23.221  45.799  50.589  1.00  0.00     0.189 HD
HETATM   23  C   UNL     1      26.056  45.598  51.787  1.00  0.00     0.089 A 
HETATM   24  C   UNL     1      26.173  46.829  51.080  1.00  0.00     0.071 A 
BRANCH  23  25
HETATM   25  C   UNL     1      27.071  44.928  52.610  1.00  0.00    -0.006 A 
HETATM   26  C   UNL     1      27.911  43.945  52.070  1.00  0.00     0.014 A 
HETATM   27  C   UNL     1      28.895  43.332  52.856  1.00  0.00     0.007 A 
HETATM   28  C   UNL     1      29.050  43.683  54.200  1.00  0.00    -0.062 A 
HETATM   29  C   UNL     1      30.130  43.062  55.034  1.00  0.00     0.048 C 
HETATM   30  C   UNL     1      28.216  44.665  54.744  1.00  0.00     0.007 A 
HETATM   31  C   UNL     1      27.233  45.275  53.958  1.00  0.00     0.014 A 
ENDBRANCH  23  25
ENDBRANCH   1  19
TORSDOF 5
ENDMDL
MODEL 6
REMARK VINA RESULT:      -9.1      1.569     11.430
REMARK  5 active torsions:
REMARK  status: ('A' for Active; 'I' for Inactive)
REMARK    1  A    between atoms: C_5  and  C_6 
REMARK    2  A    between atoms: C_10  and  C_11 
REMARK       I    between atoms: C_11  and  N_12 
REMARK    3  A    between atoms: N_12  and  N_13 
REMARK       I    between atoms: N_13  and  C_14 
REMARK       I    between atoms: C_14  and  N_15 
REMARK    4  A    between atoms: N_15  and  C_16 
REMARK    5  A    between atoms: C_16  and  C_17 
ROOT
HETATM    1  C   UNL     1      23.911  48.520  49.610  1.00  0.00     0.288 C 
HETATM    2  N   UNL     1      23.968  47.496  50.527  1.00  0.00    -0.261 N 
HETATM    3  O   UNL     1      24.917  49.113  49.225  1.00  0.00    -0.264 OA
HETATM    4  H   UNL     1      23.153  47.011  50.893  1.00  0.00     0.190 HD
ENDROOT
BRANCH   2   5
HETATM    5  N   UNL     1      25.205  47.113  51.069  1.00  0.00    -0.249 N 
HETATM    6  C   UNL     1      25.353  45.773  51.353  1.00  0.00     0.334 C 
HETATM    7  N   UNL     1      26.539  45.497  51.979  1.00  0.00    -0.341 N 
HETATM    8  O   UNL     1      24.514  44.932  51.044  1.00  0.00    -0.246 OA
HETATM    9  H   UNL     1      27.259  46.202  51.921  1.00  0.00     0.164 HD
HETATM   10  H   UNL     1      25.648  47.802  51.670  1.00  0.00     0.192 HD
BRANCH   7  11
HETATM   11  C   UNL     1      26.953  44.127  52.224  1.00  0.00     0.129 C 
BRANCH  11  12
HETATM   12  C   UNL     1      26.916  43.756  53.719  1.00  0.00     0.004 C 
HETATM   13  C   UNL     1      27.803  42.553  54.095  1.00  0.00     0.010 C 
HETATM   14  C   UNL     1      29.303  42.840  54.288  1.00  0.00    -0.018 C 
HETATM   15  C   UNL     1      29.532  44.093  55.140  1.00  0.00     0.004 C 
HETATM   16  C   UNL     1      30.082  42.898  52.974  1.00  0.00     0.010 C 
HETATM   17  C   UNL     1      28.722  45.295  54.665  1.00  0.00     0.001 C 
HETATM   18  C   UNL     1      27.233  44.969  54.605  1.00  0.00     0.006 C 
ENDBRANCH  11  12
ENDBRANCH   7  11
ENDBRANCH   2   5
BRANCH   1  19
HETATM   19  C   UNL     1      22.591  48.847  49.146  1.00  0.00     0.121 A 
HETATM   20  N   UNL     1      21.514  48.046  49.400  1.00  0.00    -0.272 N 
HETATM   21  N   UNL     1      20.363  48.489  48.875  1.00  0.00    -0.174 NA
HETATM   22  H   UNL     1      21.511  47.178  49.927  1.00  0.00     0.189 HD
HETATM   23  C   UNL     1      20.687  49.633  48.252  1.00  0.00     0.089 A 
HETATM   24  C   UNL     1      22.079  49.894  48.405  1.00  0.00     0.071 A 
BRANCH  23  25
HETATM   25  C   UNL     1      19.694  50.428  47.519  1.00  0.00    -0.006 A 
HETATM   26  C   UNL     1      19.259  50.048  46.241  1.00  0.00     0.014 A 
HETATM   27  C   UNL     1      18.290  50.796  45.562  1.00  0.00     0.007 A 
HETATM   28  C   UNL     1      17.744  51.946  46.142  1.00  0.00    -0.062 A 
HETATM   29  C   UNL     1      16.675  52.726  45.438  1.00  0.00     0.048 C 
HETATM   30  C   UNL     1      18.173  52.329  47.416  1.00  0.00     0.007 A 
HETATM   31  C   UNL     1      19.142  51.580  48.094  1.00  0.00     0.014 A 
ENDBRANCH  23  25
ENDBRANCH   1  19
TORSDOF 5
ENDMDL
MODEL 7
REMARK VINA RESULT:      -9.0      1.950      2.312
REMARK  5 active torsions:
REMARK  status: ('A' for Active; 'I' for Inactive)
REMARK    1  A    between atoms: C_5  and  C_6 
REMARK    2  A    between atoms: C_10  and  C_11 
REMARK       I    between atoms: C_11  and  N_12 
REMARK    3  A    between atoms: N_12  and  N_13 
REMARK       I    between atoms: N_13  and  C_14 
REMARK       I    between atoms: C_14  and  N_15 
REMARK    4  A    between atoms: N_15  and  C_16 
REMARK    5  A    between atoms: C_16  and  C_17 
ROOT
HETATM    1  C   UNL     1      26.134  44.047  50.421  1.00  0.00     0.288 C 
HETATM    2  N   UNL     1      24.869  44.523  50.684  1.00  0.00    -0.261 N 
HETATM    3  O   UNL     1      26.561  43.917  49.275  1.00  0.00    -0.264 OA
HETATM    4  H   UNL     1      24.474  44.607  51.617  1.00  0.00     0.190 HD
ENDROOT
BRANCH   2   5
HETATM    5  N   UNL     1      24.015  44.857  49.622  1.00  0.00    -0.249 N 
HETATM    6  C   UNL     1      23.718  46.195  49.482  1.00  0.00     0.334 C 
HETATM    7  N   UNL     1      22.794  46.428  48.498  1.00  0.00    -0.341 N 
HETATM    8  O   UNL     1      24.253  47.069  50.158  1.00  0.00    -0.246 OA
HETATM    9  H   UNL     1      22.646  45.686  47.829  1.00  0.00     0.164 HD
HETATM   10  H   UNL     1      23.308  44.163  49.398  1.00  0.00     0.192 HD
BRANCH   7  11
HETATM   11  C   UNL     1      22.462  47.781  48.091  1.00  0.00     0.129 C 
BRANCH  11  12
HETATM   12  C   UNL     1      21.362  48.409  48.967  1.00  0.00     0.004 C 
HETATM   13  C   UNL     1      21.822  49.638  49.777  1.00  0.00     0.010 C 
HETATM   14  C   UNL     1      21.871  50.978  49.022  1.00  0.00    -0.018 C 
HETATM   15  C   UNL     1      20.605  51.201  48.186  1.00  0.00     0.004 C 
HETATM   16  C   UNL     1      23.139  51.157  48.187  1.00  0.00     0.010 C 
HETATM   17  C   UNL     1      20.248  50.003  47.312  1.00  0.00     0.001 C 
HETATM   18  C   UNL     1      20.107  48.733  48.145  1.00  0.00     0.006 C 
ENDBRANCH  11  12
ENDBRANCH   7  11
ENDBRANCH   2   5
BRANCH   1  19
HETATM   19  C   UNL     1      26.909  43.708  51.583  1.00  0.00     0.121 A 
HETATM   20  N   UNL     1      26.929  42.442  52.096  1.00  0.00    -0.272 N 
HETATM   21  N   UNL     1      27.686  42.306  53.194  1.00  0.00    -0.174 NA
HETATM   22  H   UNL     1      26.437  41.630  51.736  1.00  0.00     0.189 HD
HETATM   23  C   UNL     1      28.194  43.529  53.416  1.00  0.00     0.089 A 
HETATM   24  C   UNL     1      27.732  44.436  52.419  1.00  0.00     0.071 A 
BRANCH  23  25
HETATM   25  C   UNL     1      29.071  43.812  54.559  1.00  0.00    -0.006 A 
HETATM   26  C   UNL     1      30.036  42.888  54.980  1.00  0.00     0.014 A 
HETATM   27  C   UNL     1      30.888  43.179  56.053  1.00  0.00     0.007 A 
HETATM   28  C   UNL     1      30.782  44.395  56.734  1.00  0.00    -0.062 A 
HETATM   29  C   UNL     1      31.719  44.729  57.855  1.00  0.00     0.048 C 
HETATM   30  C   UNL     1      29.822  45.322  56.317  1.00  0.00     0.007 A 
HETATM   31  C   UNL     1      28.971  45.030  55.245  1.00  0.00     0.014 A 
ENDBRANCH  23  25
ENDBRANCH   1  19
TORSDOF 5
ENDMDL
MODEL 8
REMARK VINA RESULT:      -8.9      1.669     10.985
REMARK  5 active torsions:
REMARK  status: ('A' for Active; 'I' for Inactive)
REMARK    1  A    between atoms: C_5  and  C_6 
REMARK    2  A    between atoms: C_10  and  C_11 
REMARK       I    between atoms: C_11  and  N_12 
REMARK    3  A    between atoms: N_12  and  N_13 
REMARK       I    between atoms: N_13  and  C_14 
REMARK       I    between atoms: C_14  and  N_15 
REMARK    4  A    between atoms: N_15  and  C_16 
REMARK    5  A    between atoms: C_16  and  C_17 
ROOT
HETATM    1  C   UNL     1      24.446  47.913  49.687  1.00  0.00     0.288 C 
HETATM    2  N   UNL     1      24.114  47.112  50.755  1.00  0.00    -0.261 N 
HETATM    3  O   UNL     1      25.539  47.841  49.127  1.00  0.00    -0.264 OA
HETATM    4  H   UNL     1      23.235  47.172  51.263  1.00  0.00     0.190 HD
ENDROOT
BRANCH   2   5
HETATM    5  N   UNL     1      25.047  46.188  51.251  1.00  0.00    -0.249 N 
HETATM    6  C   UNL     1      25.848  46.630  52.281  1.00  0.00     0.334 C 
HETATM    7  N   UNL     1      26.804  45.714  52.634  1.00  0.00    -0.341 N 
HETATM    8  O   UNL     1      25.688  47.718  52.827  1.00  0.00    -0.246 OA
HETATM    9  H   UNL     1      26.659  44.764  52.325  1.00  0.00     0.164 HD
HETATM   10  H   UNL     1      25.428  45.544  50.564  1.00  0.00     0.192 HD
BRANCH   7  11
HETATM   11  C   UNL     1      27.646  45.925  53.797  1.00  0.00     0.129 C 
BRANCH  11  12
HETATM   12  C   UNL     1      27.523  44.790  54.831  1.00  0.00     0.004 C 
HETATM   13  C   UNL     1      27.563  43.372  54.224  1.00  0.00     0.010 C 
HETATM   14  C   UNL     1      28.956  42.808  53.892  1.00  0.00    -0.018 C 
HETATM   15  C   UNL     1      29.946  43.040  55.039  1.00  0.00     0.004 C 
HETATM   16  C   UNL     1      29.510  43.306  52.557  1.00  0.00     0.010 C 
HETATM   17  C   UNL     1      29.958  44.483  55.535  1.00  0.00     0.001 C 
HETATM   18  C   UNL     1      28.562  44.936  55.951  1.00  0.00     0.006 C 
ENDBRANCH  11  12
ENDBRANCH   7  11
ENDBRANCH   2   5
BRANCH   1  19
HETATM   19  C   UNL     1      23.426  48.842  49.284  1.00  0.00     0.121 A 
HETATM   20  N   UNL     1      23.587  49.675  48.214  1.00  0.00    -0.272 N 
HETATM   21  N   UNL     1      22.548  50.492  47.991  1.00  0.00    -0.174 NA
HETATM   22  H   UNL     1      24.394  49.731  47.600  1.00  0.00     0.189 HD
HETATM   23  C   UNL     1      21.658  50.184  48.949  1.00  0.00     0.089 A 
HETATM   24  C   UNL     1      22.173  49.147  49.778  1.00  0.00     0.071 A 
BRANCH  23  25
HETATM   25  C   UNL     1      20.373  50.884  49.070  1.00  0.00    -0.006 A 
HETATM   26  C   UNL     1      20.060  51.976  48.250  1.00  0.00     0.014 A 
HETATM   27  C   UNL     1      18.820  52.619  48.354  1.00  0.00     0.007 A 
HETATM   28  C   UNL     1      17.872  52.188  49.286  1.00  0.00    -0.062 A 
HETATM   29  C   UNL     1      16.527  52.844  49.372  1.00  0.00     0.048 C 
HETATM   30  C   UNL     1      18.178  51.097  50.106  1.00  0.00     0.007 A 
HETATM   31  C   UNL     1      19.418  50.457  50.002  1.00  0.00     0.014 A 
ENDBRANCH  23  25
ENDBRANCH   1  19
TORSDOF 5
ENDMDL
MODEL 9
REMARK VINA RESULT:      -8.5      2.385     10.763
REMARK  5 active torsions:
REMARK  status: ('A' for Active; 'I' for Inactive)
REMARK    1  A    between atoms: C_5  and  C_6 
REMARK    2  A    between atoms: C_10  and  C_11 
REMARK       I    between atoms: C_11  and  N_12 
REMARK    3  A    between atoms: N_12  and  N_13 
REMARK       I    between atoms: N_13  and  C_14 
REMARK       I    between atoms: C_14  and  N_15 
REMARK    4  A    between atoms: N_15  and  C_16 
REMARK    5  A    between atoms: C_16  and  C_17 
ROOT
HETATM    1  C   UNL     1      23.885  47.288  49.311  1.00  0.00     0.288 C 
HETATM    2  N   UNL     1      23.258  46.070  49.444  1.00  0.00    -0.261 N 
HETATM    3  O   UNL     1      25.099  47.386  49.137  1.00  0.00    -0.264 OA
HETATM    4  H   UNL     1      22.263  45.957  49.626  1.00  0.00     0.190 HD
ENDROOT
BRANCH   2   5
HETATM    5  N   UNL     1      24.013  44.888  49.403  1.00  0.00    -0.249 N 
HETATM    6  C   UNL     1      24.642  44.530  50.575  1.00  0.00     0.334 C 
HETATM    7  N   UNL     1      25.446  43.431  50.425  1.00  0.00    -0.341 N 
HETATM    8  O   UNL     1      24.466  45.128  51.632  1.00  0.00    -0.246 OA
HETATM    9  H   UNL     1      25.290  42.862  49.606  1.00  0.00     0.164 HD
HETATM   10  H   UNL     1      24.464  44.692  48.514  1.00  0.00     0.192 HD
BRANCH   7  11
HETATM   11  C   UNL     1      26.075  42.804  51.573  1.00  0.00     0.129 C 
BRANCH  11  12
HETATM   12  C   UNL     1      27.612  42.808  51.480  1.00  0.00     0.004 C 
HETATM   13  C   UNL     1      28.292  43.949  52.264  1.00  0.00     0.010 C 
HETATM   14  C   UNL     1      28.466  43.733  53.777  1.00  0.00    -0.018 C 
HETATM   15  C   UNL     1      29.008  42.333  54.089  1.00  0.00     0.004 C 
HETATM   16  C   UNL     1      27.204  44.044  54.582  1.00  0.00     0.010 C 
HETATM   17  C   UNL     1      28.235  41.223  53.384  1.00  0.00     0.001 C 
HETATM   18  C   UNL     1      28.200  41.446  51.875  1.00  0.00     0.006 C 
ENDBRANCH  11  12
ENDBRANCH   7  11
ENDBRANCH   2   5
BRANCH   1  19
HETATM   19  C   UNL     1      23.019  48.431  49.401  1.00  0.00     0.121 A 
HETATM   20  N   UNL     1      23.461  49.642  49.852  1.00  0.00    -0.272 N 
HETATM   21  N   UNL     1      22.516  50.593  49.892  1.00  0.00    -0.174 NA
HETATM   22  H   UNL     1      24.402  49.875  50.152  1.00  0.00     0.189 HD
HETATM   23  C   UNL     1      21.403  49.990  49.443  1.00  0.00     0.089 A 
HETATM   24  C   UNL     1      21.682  48.631  49.119  1.00  0.00     0.071 A 
BRANCH  23  25
HETATM   25  C   UNL     1      20.119  50.695  49.354  1.00  0.00    -0.006 A 
HETATM   26  C   UNL     1      18.997  50.255  50.070  1.00  0.00     0.014 A 
HETATM   27  C   UNL     1      17.784  50.952  50.002  1.00  0.00     0.007 A 
HETATM   28  C   UNL     1      17.665  52.095  49.207  1.00  0.00    -0.062 A 
HETATM   29  C   UNL     1      16.382  52.869  49.164  1.00  0.00     0.048 C 
HETATM   30  C   UNL     1      18.781  52.540  48.491  1.00  0.00     0.007 A 
HETATM   31  C   UNL     1      19.992  51.843  48.560  1.00  0.00     0.014 A 
ENDBRANCH  23  25
ENDBRANCH   1  19
TORSDOF 5
ENDMDL
MODEL 10
REMARK VINA RESULT:      -8.3     18.344     20.349
REMARK  5 active torsions:
REMARK  status: ('A' for Active; 'I' for Inactive)
REMARK    1  A    between atoms: C_5  and  C_6 
REMARK    2  A    between atoms: C_10  and  C_11 
REMARK       I    between atoms: C_11  and  N_12 
REMARK    3  A    between atoms: N_12  and  N_13 
REMARK       I    between atoms: N_13  and  C_14 
REMARK       I    between atoms: C_14  and  N_15 
REMARK    4  A    between atoms: N_15  and  C_16 
REMARK    5  A    between atoms: C_16  and  C_17 
ROOT
HETATM    1  C   UNL     1      39.429  43.437  63.179  1.00  0.00     0.288 C 
HETATM    2  N   UNL     1      38.112  43.838  63.183  1.00  0.00    -0.261 N 
HETATM    3  O   UNL     1      40.357  44.234  63.060  1.00  0.00    -0.264 OA
HETATM    4  H   UNL     1      37.322  43.201  63.242  1.00  0.00     0.190 HD
ENDROOT
BRANCH   2   5
HETATM    5  N   UNL     1      37.796  45.196  63.026  1.00  0.00    -0.249 N 
HETATM    6  C   UNL     1      37.476  45.880  64.179  1.00  0.00     0.334 C 
HETATM    7  N   UNL     1      37.073  47.166  63.932  1.00  0.00    -0.341 N 
HETATM    8  O   UNL     1      37.573  45.381  65.296  1.00  0.00    -0.246 OA
HETATM    9  H   UNL     1      37.305  47.549  63.027  1.00  0.00     0.164 HD
HETATM   10  H   UNL     1      37.328  45.436  62.157  1.00  0.00     0.192 HD
BRANCH   7  11
HETATM   11  C   UNL     1      36.839  48.097  65.020  1.00  0.00     0.129 C 
BRANCH  11  12
HETATM   12  C   UNL     1      37.748  49.338  64.942  1.00  0.00     0.004 C 
HETATM   13  C   UNL     1      37.697  50.240  66.192  1.00  0.00     0.010 C 
HETATM   14  C   UNL     1      38.548  49.794  67.394  1.00  0.00    -0.018 C 
HETATM   15  C   UNL     1      39.959  49.378  66.964  1.00  0.00     0.004 C 
HETATM   16  C   UNL     1      37.875  48.717  68.246  1.00  0.00     0.010 C 
HETATM   17  C   UNL     1      39.962  48.395  65.798  1.00  0.00     0.001 C 
HETATM   18  C   UNL     1      39.195  48.953  64.603  1.00  0.00     0.006 C 
ENDBRANCH  11  12
ENDBRANCH   7  11
ENDBRANCH   2   5
BRANCH   1  19
HETATM   19  C   UNL     1      39.633  42.021  63.315  1.00  0.00     0.121 A 
HETATM   20  N   UNL     1      39.232  41.135  62.356  1.00  0.00    -0.272 N 
HETATM   21  N   UNL     1      39.480  39.852  62.654  1.00  0.00    -0.174 NA
HETATM   22  H   UNL     1      38.777  41.355  61.475  1.00  0.00     0.189 HD
HETATM   23  C   UNL     1      40.075  39.887  63.857  1.00  0.00     0.089 A 
HETATM   24  C   UNL     1      40.194  41.235  64.303  1.00  0.00     0.071 A 
BRANCH  23  25
HETATM   25  C   UNL     1      40.489  38.664  64.556  1.00  0.00    -0.006 A 
HETATM   26  C   UNL     1      39.732  38.138  65.611  1.00  0.00     0.014 A 
HETATM   27  C   UNL     1      40.120  36.955  66.252  1.00  0.00     0.007 A 
HETATM   28  C   UNL     1      41.279  36.281  65.858  1.00  0.00    -0.062 A 
HETATM   29  C   UNL     1      41.676  34.992  66.512  1.00  0.00     0.048 C 
HETATM   30  C   UNL     1      42.039  36.800  64.805  1.00  0.00     0.007 A 
HETATM   31  C   UNL     1      41.650  37.983  64.166  1.00  0.00     0.014 A 
ENDBRANCH  23  25
ENDBRANCH   1  19
TORSDOF 5
ENDMDL
