MODEL 1
REMARK VINA RESULT:      -9.9      0.000      0.000
REMARK  9 active torsions:
REMARK  status: ('A' for Active; 'I' for Inactive)
REMARK    1  A    between atoms: C_2  and  C_3 
REMARK    2  A    between atoms: C_3  and  N_4 
REMARK    3  A    between atoms: N_4  and  C_7 
REMARK    4  A    between atoms: C_12  and  N_13 
REMARK       I    between atoms: N_13  and  C_14 
REMARK    5  A    between atoms: C_14  and  C_16 
REMARK    6  A    between atoms: C_20  and  C_22 
REMARK    7  A    between atoms: C_22  and  N_24 
REMARK       I    between atoms: N_24  and  C_25 
REMARK    8  A    between atoms: C_25  and  C_27 
REMARK    9  A    between atoms: C_30  and  O_31 
ROOT
HETATM    1  C   UNL     1      24.063  48.206  49.070  1.00  0.00     0.033 A 
HETATM    2  C   UNL     1      25.149  49.070  48.880  1.00  0.00     0.017 A 
HETATM    3  C   UNL     1      26.429  48.696  49.284  1.00  0.00     0.002 A 
HETATM    4  C   UNL     1      26.640  47.448  49.872  1.00  0.00     0.009 A 
HETATM    5  C   UNL     1      25.576  46.549  50.043  1.00  0.00    -0.035 A 
HETATM    6  C   UNL     1      24.284  46.947  49.645  1.00  0.00     0.026 A 
ENDROOT
BRANCH   1   7
HETATM    7  C   UNL     1      22.718  48.666  48.612  1.00  0.00     0.257 C 
HETATM    8  N   UNL     1      21.901  49.219  49.578  1.00  0.00    -0.301 N 
HETATM    9  H   UNL     1      22.218  49.355  50.526  1.00  0.00     0.171 HD
HETATM   10  O   UNL     1      22.448  48.539  47.422  1.00  0.00    -0.267 OA
BRANCH   8  11
HETATM   11  C   UNL     1      20.648  49.673  49.268  1.00  0.00     0.174 A 
HETATM   12  N   UNL     1      19.526  49.002  49.178  1.00  0.00    -0.228 NA
HETATM   13  C   UNL     1      18.507  49.846  48.833  1.00  0.00     0.050 A 
HETATM   14  C   UNL     1      17.121  49.335  48.663  1.00  0.00     0.062 C 
HETATM   15  C   UNL     1      18.860  51.172  48.699  1.00  0.00     0.013 A 
HETATM   16  C   UNL     1      16.237  50.372  47.950  1.00  0.00     0.039 C 
HETATM   17  C   UNL     1      16.455  51.788  48.527  1.00  0.00     0.191 C 
HETATM   18  C   UNL     1      17.923  52.270  48.339  1.00  0.00     0.081 C 
HETATM   19  S   UNL     1      20.535  51.358  48.964  1.00  0.00    -0.055 SA
BRANCH  17  20
HETATM   20  N   UNL     1      15.524  52.770  47.848  1.00  0.00    -0.071 N 
HETATM   21  H   UNL     1      14.869  52.261  47.237  1.00  0.00     0.277 HD
HETATM   22  H   UNL     1      16.080  53.370  47.221  1.00  0.00     0.277 HD
BRANCH  20  23
HETATM   23  C   UNL     1      14.746  53.668  48.765  1.00  0.00     0.232 C 
BRANCH  23  24
HETATM   24  C   UNL     1      14.676  53.028  50.145  1.00  0.00     0.023 C 
HETATM   25  C   UNL     1      14.094  53.993  51.166  1.00  0.00     0.007 C 
ENDBRANCH  23  24
ENDBRANCH  20  23
ENDBRANCH  17  20
ENDBRANCH   8  11
ENDBRANCH   1   7
BRANCH   5  26
HETATM   26  C   UNL     1      25.767  45.187  50.689  1.00  0.00     0.114 C 
HETATM   27  C   UNL     1      26.168  44.092  49.699  1.00  0.00     0.037 C 
BRANCH  26  28
HETATM   28  N   UNL     1      26.745  45.287  51.758  1.00  0.00    -0.349 N 
HETATM   29  C   UNL     1      26.517  44.758  53.009  1.00  0.00     0.252 C 
HETATM   30  O   UNL     1      25.524  44.105  53.310  1.00  0.00    -0.268 OA
HETATM   31  H   UNL     1      27.576  45.835  51.583  1.00  0.00     0.163 HD
BRANCH  29  32
HETATM   32  C   UNL     1      27.587  44.990  54.013  1.00  0.00     0.033 A 
HETATM   33  C   UNL     1      27.595  46.201  54.713  1.00  0.00     0.020 A 
HETATM   34  C   UNL     1      28.576  46.453  55.681  1.00  0.00     0.039 A 
HETATM   35  C   UNL     1      29.566  45.501  55.949  1.00  0.00     0.089 A 
HETATM   36  C   UNL     1      29.561  44.299  55.220  1.00  0.00     0.068 A 
HETATM   37 CL   UNL     1      30.765  43.084  55.482  1.00  0.00    -0.081 Cl
HETATM   38  C   UNL     1      28.581  44.041  54.256  1.00  0.00     0.043 A 
BRANCH  35  39
HETATM   39  O   UNL     1      30.561  45.659  56.875  1.00  0.00    -0.354 OA
HETATM   40  C   UNL     1      30.216  45.546  58.249  1.00  0.00     0.210 C 
ENDBRANCH  35  39
ENDBRANCH  29  32
ENDBRANCH  26  28
ENDBRANCH   5  26
TORSDOF 9
ENDMDL
MODEL 2
REMARK VINA RESULT:      -9.6      1.481      2.040
REMARK  9 active torsions:
REMARK  status: ('A' for Active; 'I' for Inactive)
REMARK    1  A    between atoms: C_2  and  C_3 
REMARK    2  A    between atoms: C_3  and  N_4 
REMARK    3  A    between atoms: N_4  and  C_7 
REMARK    4  A    between atoms: C_12  and  N_13 
REMARK       I    between atoms: N_13  and  C_14 
REMARK    5  A    between atoms: C_14  and  C_16 
REMARK    6  A    between atoms: C_20  and  C_22 
REMARK    7  A    between atoms: C_22  and  N_24 
REMARK       I    between atoms: N_24  and  C_25 
REMARK    8  A    between atoms: C_25  and  C_27 
REMARK    9  A    between atoms: C_30  and  O_31 
ROOT
HETATM    1  C   UNL     1      24.148  47.737  49.397  1.00  0.00     0.033 A 
HETATM    2  C   UNL     1      25.297  48.535  49.321  1.00  0.00     0.017 A 
HETATM    3  C   UNL     1      26.512  48.075  49.824  1.00  0.00     0.002 A 
HETATM    4  C   UNL     1      26.595  46.807  50.399  1.00  0.00     0.009 A 
HETATM    5  C   UNL     1      25.468  45.973  50.458  1.00  0.00    -0.035 A 
HETATM    6  C   UNL     1      24.242  46.456  49.959  1.00  0.00     0.026 A 
ENDROOT
BRANCH   1   7
HETATM    7  C   UNL     1      22.878  48.287  48.836  1.00  0.00     0.257 C 
HETATM    8  N   UNL     1      22.058  48.953  49.724  1.00  0.00    -0.301 N 
HETATM    9  H   UNL     1      22.328  49.108  50.683  1.00  0.00     0.171 HD
HETATM   10  O   UNL     1      22.669  48.126  47.638  1.00  0.00    -0.267 OA
BRANCH   8  11
HETATM   11  C   UNL     1      20.869  49.497  49.317  1.00  0.00     0.174 A 
HETATM   12  N   UNL     1      19.670  48.970  49.339  1.00  0.00    -0.228 NA
HETATM   13  C   UNL     1      18.764  49.857  48.827  1.00  0.00     0.050 A 
HETATM   14  C   UNL     1      17.322  49.504  48.738  1.00  0.00     0.062 C 
HETATM   15  C   UNL     1      19.282  51.077  48.450  1.00  0.00     0.013 A 
HETATM   16  C   UNL     1      16.570  50.492  47.830  1.00  0.00     0.039 C 
HETATM   17  C   UNL     1      16.975  51.951  48.131  1.00  0.00     0.191 C 
HETATM   18  C   UNL     1      18.490  52.198  47.875  1.00  0.00     0.081 C 
HETATM   19  S   UNL     1      20.970  51.095  48.698  1.00  0.00    -0.055 SA
BRANCH  17  20
HETATM   20  N   UNL     1      16.170  52.898  47.266  1.00  0.00    -0.071 N 
HETATM   21  H   UNL     1      16.804  53.441  46.662  1.00  0.00     0.277 HD
HETATM   22  H   UNL     1      15.708  53.588  47.875  1.00  0.00     0.277 HD
BRANCH  20  23
HETATM   23  C   UNL     1      15.109  52.259  46.416  1.00  0.00     0.232 C 
BRANCH  23  24
HETATM   24  C   UNL     1      15.322  52.667  44.965  1.00  0.00     0.023 C 
HETATM   25  C   UNL     1      16.716  53.239  44.758  1.00  0.00     0.007 C 
ENDBRANCH  23  24
ENDBRANCH  20  23
ENDBRANCH  17  20
ENDBRANCH   8  11
ENDBRANCH   1   7
BRANCH   5  26
HETATM   26  C   UNL     1      25.520  44.589  51.086  1.00  0.00     0.114 C 
HETATM   27  C   UNL     1      25.551  43.454  50.062  1.00  0.00     0.037 C 
BRANCH  26  28
HETATM   28  N   UNL     1      26.665  44.501  51.976  1.00  0.00    -0.349 N 
HETATM   29  C   UNL     1      26.523  44.304  53.332  1.00  0.00     0.252 C 
HETATM   30  O   UNL     1      25.448  44.115  53.891  1.00  0.00    -0.268 OA
HETATM   31  H   UNL     1      27.579  44.673  51.582  1.00  0.00     0.163 HD
BRANCH  29  32
HETATM   32  C   UNL     1      27.782  44.293  54.118  1.00  0.00     0.033 A 
HETATM   33  C   UNL     1      28.765  43.353  53.793  1.00  0.00     0.020 A 
HETATM   34  C   UNL     1      29.975  43.320  54.498  1.00  0.00     0.039 A 
HETATM   35  C   UNL     1      30.208  44.218  55.544  1.00  0.00     0.089 A 
HETATM   36  C   UNL     1      29.202  45.142  55.878  1.00  0.00     0.068 A 
HETATM   37 CL   UNL     1      29.411  46.271  57.173  1.00  0.00    -0.081 Cl
HETATM   38  C   UNL     1      27.995  45.182  55.174  1.00  0.00     0.043 A 
BRANCH  35  39
HETATM   39  O   UNL     1      31.358  44.261  56.287  1.00  0.00    -0.354 OA
HETATM   40  C   UNL     1      31.668  43.138  57.100  1.00  0.00     0.210 C 
ENDBRANCH  35  39
ENDBRANCH  29  32
ENDBRANCH  26  28
ENDBRANCH   5  26
TORSDOF 9
ENDMDL
MODEL 3
REMARK VINA RESULT:      -9.0      4.662     13.127
REMARK  9 active torsions:
REMARK  status: ('A' for Active; 'I' for Inactive)
REMARK    1  A    between atoms: C_2  and  C_3 
REMARK    2  A    between atoms: C_3  and  N_4 
REMARK    3  A    between atoms: N_4  and  C_7 
REMARK    4  A    between atoms: C_12  and  N_13 
REMARK       I    between atoms: N_13  and  C_14 
REMARK    5  A    between atoms: C_14  and  C_16 
REMARK    6  A    between atoms: C_20  and  C_22 
REMARK    7  A    between atoms: C_22  and  N_24 
REMARK       I    between atoms: N_24  and  C_25 
REMARK    8  A    between atoms: C_25  and  C_27 
REMARK    9  A    between atoms: C_30  and  O_31 
ROOT
HETATM    1  C   UNL     1      22.962  49.177  49.174  1.00  0.00     0.033 A 
HETATM    2  C   UNL     1      23.249  50.488  48.772  1.00  0.00     0.017 A 
HETATM    3  C   UNL     1      22.226  51.346  48.375  1.00  0.00     0.002 A 
HETATM    4  C   UNL     1      20.902  50.908  48.387  1.00  0.00     0.009 A 
HETATM    5  C   UNL     1      20.581  49.610  48.817  1.00  0.00    -0.035 A 
HETATM    6  C   UNL     1      21.628  48.748  49.201  1.00  0.00     0.026 A 
ENDROOT
BRANCH   1   7
HETATM    7  C   UNL     1      24.104  48.309  49.590  1.00  0.00     0.257 C 
HETATM    8  N   UNL     1      23.772  47.089  50.142  1.00  0.00    -0.301 N 
HETATM    9  H   UNL     1      22.815  46.778  50.207  1.00  0.00     0.171 HD
HETATM   10  O   UNL     1      25.239  48.731  49.395  1.00  0.00    -0.267 OA
BRANCH   8  11
HETATM   11  C   UNL     1      24.740  46.215  50.559  1.00  0.00     0.174 A 
HETATM   12  N   UNL     1      25.281  45.212  49.913  1.00  0.00    -0.228 NA
HETATM   13  C   UNL     1      26.205  44.592  50.707  1.00  0.00     0.050 A 
HETATM   14  C   UNL     1      26.968  43.417  50.211  1.00  0.00     0.062 C 
HETATM   15  C   UNL     1      26.386  45.158  51.951  1.00  0.00     0.013 A 
HETATM   16  C   UNL     1      27.674  42.691  51.368  1.00  0.00     0.039 C 
HETATM   17  C   UNL     1      28.363  43.692  52.322  1.00  0.00     0.191 C 
HETATM   18  C   UNL     1      27.340  44.663  52.981  1.00  0.00     0.081 C 
HETATM   19  S   UNL     1      25.327  46.481  52.150  1.00  0.00    -0.055 SA
BRANCH  17  20
HETATM   20  N   UNL     1      29.100  42.942  53.411  1.00  0.00    -0.071 N 
HETATM   21  H   UNL     1      29.948  42.506  53.020  1.00  0.00     0.277 HD
HETATM   22  H   UNL     1      28.508  42.160  53.730  1.00  0.00     0.277 HD
BRANCH  20  23
HETATM   23  C   UNL     1      29.474  43.752  54.618  1.00  0.00     0.232 C 
BRANCH  23  24
HETATM   24  C   UNL     1      30.800  43.242  55.166  1.00  0.00     0.023 C 
HETATM   25  C   UNL     1      31.066  43.797  56.557  1.00  0.00     0.007 C 
ENDBRANCH  23  24
ENDBRANCH  20  23
ENDBRANCH  17  20
ENDBRANCH   8  11
ENDBRANCH   1   7
BRANCH   5  26
HETATM   26  C   UNL     1      19.151  49.096  48.833  1.00  0.00     0.114 C 
HETATM   27  C   UNL     1      18.848  48.170  50.012  1.00  0.00     0.037 C 
BRANCH  26  28
HETATM   28  N   UNL     1      18.230  50.218  48.820  1.00  0.00    -0.349 N 
HETATM   29  C   UNL     1      16.933  50.094  48.371  1.00  0.00     0.252 C 
HETATM   30  O   UNL     1      16.425  49.035  48.019  1.00  0.00    -0.268 OA
HETATM   31  H   UNL     1      18.593  51.126  49.074  1.00  0.00     0.163 HD
BRANCH  29  32
HETATM   32  C   UNL     1      16.129  51.343  48.365  1.00  0.00     0.033 A 
HETATM   33  C   UNL     1      15.737  51.891  49.591  1.00  0.00     0.020 A 
HETATM   34  C   UNL     1      14.993  53.077  49.631  1.00  0.00     0.039 A 
HETATM   35  C   UNL     1      14.623  53.719  48.445  1.00  0.00     0.089 A 
HETATM   36  C   UNL     1      15.002  53.145  47.219  1.00  0.00     0.068 A 
HETATM   37 CL   UNL     1      14.563  53.871  45.711  1.00  0.00    -0.081 Cl
HETATM   38  C   UNL     1      15.748  51.963  47.174  1.00  0.00     0.043 A 
BRANCH  35  39
HETATM   39  O   UNL     1      13.899  54.880  48.386  1.00  0.00    -0.354 OA
HETATM   40  C   UNL     1      13.046  55.189  49.479  1.00  0.00     0.210 C 
ENDBRANCH  35  39
ENDBRANCH  29  32
ENDBRANCH  26  28
ENDBRANCH   5  26
TORSDOF 9
ENDMDL
MODEL 4
REMARK VINA RESULT:      -9.0      2.564      4.429
REMARK  9 active torsions:
REMARK  status: ('A' for Active; 'I' for Inactive)
REMARK    1  A    between atoms: C_2  and  C_3 
REMARK    2  A    between atoms: C_3  and  N_4 
REMARK    3  A    between atoms: N_4  and  C_7 
REMARK    4  A    between atoms: C_12  and  N_13 
REMARK       I    between atoms: N_13  and  C_14 
REMARK    5  A    between atoms: C_14  and  C_16 
REMARK    6  A    between atoms: C_20  and  C_22 
REMARK    7  A    between atoms: C_22  and  N_24 
REMARK       I    between atoms: N_24  and  C_25 
REMARK    8  A    between atoms: C_25  and  C_27 
REMARK    9  A    between atoms: C_30  and  O_31 
ROOT
HETATM    1  C   UNL     1      24.619  43.363  49.679  1.00  0.00     0.033 A 
HETATM    2  C   UNL     1      23.951  42.551  48.754  1.00  0.00     0.017 A 
HETATM    3  C   UNL     1      24.334  41.223  48.572  1.00  0.00     0.002 A 
HETATM    4  C   UNL     1      25.381  40.690  49.323  1.00  0.00     0.009 A 
HETATM    5  C   UNL     1      26.046  41.471  50.281  1.00  0.00    -0.035 A 
HETATM    6  C   UNL     1      25.658  42.816  50.444  1.00  0.00     0.026 A 
ENDROOT
BRANCH   1   7
HETATM    7  C   UNL     1      24.157  44.776  49.828  1.00  0.00     0.257 C 
HETATM    8  N   UNL     1      23.579  45.348  48.713  1.00  0.00    -0.301 N 
HETATM    9  H   UNL     1      23.426  44.823  47.865  1.00  0.00     0.171 HD
HETATM   10  O   UNL     1      24.305  45.310  50.921  1.00  0.00    -0.267 OA
BRANCH   8  11
HETATM   11  C   UNL     1      23.121  46.638  48.737  1.00  0.00     0.174 A 
HETATM   12  N   UNL     1      23.801  47.754  48.831  1.00  0.00    -0.228 NA
HETATM   13  C   UNL     1      22.946  48.821  48.829  1.00  0.00     0.050 A 
HETATM   14  C   UNL     1      23.465  50.211  48.927  1.00  0.00     0.062 C 
HETATM   15  C   UNL     1      21.611  48.505  48.696  1.00  0.00     0.013 A 
HETATM   16  C   UNL     1      22.332  51.198  49.253  1.00  0.00     0.039 C 
HETATM   17  C   UNL     1      21.078  50.917  48.396  1.00  0.00     0.191 C 
HETATM   18  C   UNL     1      20.501  49.495  48.661  1.00  0.00     0.081 C 
HETATM   19  S   UNL     1      21.418  46.811  48.621  1.00  0.00    -0.055 SA
BRANCH  17  20
HETATM   20  N   UNL     1      20.008  51.945  48.696  1.00  0.00    -0.071 N 
HETATM   21  H   UNL     1      20.201  52.810  48.172  1.00  0.00     0.277 HD
HETATM   22  H   UNL     1      20.070  52.204  49.692  1.00  0.00     0.277 HD
BRANCH  20  23
HETATM   23  C   UNL     1      18.596  51.510  48.427  1.00  0.00     0.232 C 
BRANCH  23  24
HETATM   24  C   UNL     1      17.645  52.619  48.856  1.00  0.00     0.023 C 
HETATM   25  C   UNL     1      16.643  52.112  49.882  1.00  0.00     0.007 C 
ENDBRANCH  23  24
ENDBRANCH  20  23
ENDBRANCH  17  20
ENDBRANCH   8  11
ENDBRANCH   1   7
BRANCH   5  26
HETATM   26  C   UNL     1      27.198  40.925  51.109  1.00  0.00     0.114 C 
HETATM   27  C   UNL     1      28.335  40.345  50.267  1.00  0.00     0.037 C 
BRANCH  26  28
HETATM   28  N   UNL     1      27.699  41.963  51.992  1.00  0.00    -0.349 N 
HETATM   29  C   UNL     1      28.342  41.670  53.174  1.00  0.00     0.252 C 
HETATM   30  O   UNL     1      28.611  40.533  53.548  1.00  0.00    -0.268 OA
HETATM   31  H   UNL     1      27.488  42.922  51.754  1.00  0.00     0.163 HD
BRANCH  29  32
HETATM   32  C   UNL     1      28.746  42.838  53.996  1.00  0.00     0.033 A 
HETATM   33  C   UNL     1      29.953  42.775  54.701  1.00  0.00     0.020 A 
HETATM   34  C   UNL     1      30.380  43.862  55.474  1.00  0.00     0.039 A 
HETATM   35  C   UNL     1      29.598  45.018  55.561  1.00  0.00     0.089 A 
HETATM   36  C   UNL     1      28.375  45.060  54.868  1.00  0.00     0.068 A 
HETATM   37 CL   UNL     1      27.345  46.448  54.945  1.00  0.00    -0.081 Cl
HETATM   38  C   UNL     1      27.947  43.979  54.092  1.00  0.00     0.043 A 
BRANCH  35  39
HETATM   39  O   UNL     1      29.934  46.128  56.289  1.00  0.00    -0.354 OA
HETATM   40  C   UNL     1      30.146  45.969  57.685  1.00  0.00     0.210 C 
ENDBRANCH  35  39
ENDBRANCH  29  32
ENDBRANCH  26  28
ENDBRANCH   5  26
TORSDOF 9
ENDMDL
MODEL 5
REMARK VINA RESULT:      -8.7      4.734     13.307
REMARK  9 active torsions:
REMARK  status: ('A' for Active; 'I' for Inactive)
REMARK    1  A    between atoms: C_2  and  C_3 
REMARK    2  A    between atoms: C_3  and  N_4 
REMARK    3  A    between atoms: N_4  and  C_7 
REMARK    4  A    between atoms: C_12  and  N_13 
REMARK       I    between atoms: N_13  and  C_14 
REMARK    5  A    between atoms: C_14  and  C_16 
REMARK    6  A    between atoms: C_20  and  C_22 
REMARK    7  A    between atoms: C_22  and  N_24 
REMARK       I    between atoms: N_24  and  C_25 
REMARK    8  A    between atoms: C_25  and  C_27 
REMARK    9  A    between atoms: C_30  and  O_31 
ROOT
HETATM    1  C   UNL     1      23.657  48.958  49.110  1.00  0.00     0.033 A 
HETATM    2  C   UNL     1      24.058  50.193  48.585  1.00  0.00     0.017 A 
HETATM    3  C   UNL     1      23.119  51.073  48.051  1.00  0.00     0.002 A 
HETATM    4  C   UNL     1      21.767  50.733  48.046  1.00  0.00     0.009 A 
HETATM    5  C   UNL     1      21.333  49.517  48.596  1.00  0.00    -0.035 A 
HETATM    6  C   UNL     1      22.294  48.629  49.119  1.00  0.00     0.026 A 
ENDROOT
BRANCH   1   7
HETATM    7  C   UNL     1      24.713  48.062  49.670  1.00  0.00     0.257 C 
HETATM    8  N   UNL     1      24.274  47.038  50.485  1.00  0.00    -0.301 N 
HETATM    9  H   UNL     1      23.293  46.871  50.646  1.00  0.00     0.171 HD
HETATM   10  O   UNL     1      25.876  48.287  49.353  1.00  0.00    -0.267 OA
BRANCH   8  11
HETATM   11  C   UNL     1      25.156  46.159  51.053  1.00  0.00     0.174 A 
HETATM   12  N   UNL     1      25.604  45.020  50.585  1.00  0.00    -0.228 NA
HETATM   13  C   UNL     1      26.466  44.455  51.483  1.00  0.00     0.050 A 
HETATM   14  C   UNL     1      27.117  43.150  51.194  1.00  0.00     0.062 C 
HETATM   15  C   UNL     1      26.696  45.195  52.623  1.00  0.00     0.013 A 
HETATM   16  C   UNL     1      27.751  42.560  52.465  1.00  0.00     0.039 C 
HETATM   17  C   UNL     1      28.528  43.634  53.256  1.00  0.00     0.191 C 
HETATM   18  C   UNL     1      27.598  44.788  53.734  1.00  0.00     0.081 C 
HETATM   19  S   UNL     1      25.763  46.623  52.590  1.00  0.00    -0.055 SA
BRANCH  17  20
HETATM   20  N   UNL     1      29.191  43.006  54.464  1.00  0.00    -0.071 N 
HETATM   21  H   UNL     1      29.875  42.300  54.155  1.00  0.00     0.277 HD
HETATM   22  H   UNL     1      28.478  42.487  54.998  1.00  0.00     0.277 HD
BRANCH  20  23
HETATM   23  C   UNL     1      29.861  43.961  55.408  1.00  0.00     0.232 C 
BRANCH  23  24
HETATM   24  C   UNL     1      31.196  43.374  55.845  1.00  0.00     0.023 C 
HETATM   25  C   UNL     1      31.482  43.695  57.304  1.00  0.00     0.007 C 
ENDBRANCH  23  24
ENDBRANCH  20  23
ENDBRANCH  17  20
ENDBRANCH   8  11
ENDBRANCH   1   7
BRANCH   5  26
HETATM   26  C   UNL     1      19.868  49.110  48.599  1.00  0.00     0.114 C 
HETATM   27  C   UNL     1      19.293  48.906  50.001  1.00  0.00     0.037 C 
BRANCH  26  28
HETATM   28  N   UNL     1      19.088  50.093  47.869  1.00  0.00    -0.349 N 
HETATM   29  C   UNL     1      18.159  49.730  46.918  1.00  0.00     0.252 C 
HETATM   30  O   UNL     1      17.858  48.570  46.659  1.00  0.00    -0.268 OA
HETATM   31  H   UNL     1      19.305  51.069  48.018  1.00  0.00     0.163 HD
BRANCH  29  32
HETATM   32  C   UNL     1      17.481  50.850  46.217  1.00  0.00     0.033 A 
HETATM   33  C   UNL     1      17.931  51.210  44.943  1.00  0.00     0.020 A 
HETATM   34  C   UNL     1      17.309  52.249  44.239  1.00  0.00     0.039 A 
HETATM   35  C   UNL     1      16.239  52.947  44.808  1.00  0.00     0.089 A 
HETATM   36  C   UNL     1      15.812  52.592  46.100  1.00  0.00     0.068 A 
HETATM   37 CL   UNL     1      14.508  53.423  46.877  1.00  0.00    -0.081 Cl
HETATM   38  C   UNL     1      16.428  51.553  46.804  1.00  0.00     0.043 A 
BRANCH  35  39
HETATM   39  O   UNL     1      15.570  53.973  44.197  1.00  0.00    -0.354 OA
HETATM   40  C   UNL     1      14.618  53.643  43.194  1.00  0.00     0.210 C 
ENDBRANCH  35  39
ENDBRANCH  29  32
ENDBRANCH  26  28
ENDBRANCH   5  26
TORSDOF 9
ENDMDL
MODEL 6
REMARK VINA RESULT:      -8.6      3.202      4.921
REMARK  9 active torsions:
REMARK  status: ('A' for Active; 'I' for Inactive)
REMARK    1  A    between atoms: C_2  and  C_3 
REMARK    2  A    between atoms: C_3  and  N_4 
REMARK    3  A    between atoms: N_4  and  C_7 
REMARK    4  A    between atoms: C_12  and  N_13 
REMARK       I    between atoms: N_13  and  C_14 
REMARK    5  A    between atoms: C_14  and  C_16 
REMARK    6  A    between atoms: C_20  and  C_22 
REMARK    7  A    between atoms: C_22  and  N_24 
REMARK       I    between atoms: N_24  and  C_25 
REMARK    8  A    between atoms: C_25  and  C_27 
REMARK    9  A    between atoms: C_30  and  O_31 
ROOT
HETATM    1  C   UNL     1      24.358  41.792  49.007  1.00  0.00     0.033 A 
HETATM    2  C   UNL     1      24.093  40.980  47.897  1.00  0.00     0.017 A 
HETATM    3  C   UNL     1      24.932  39.912  47.586  1.00  0.00     0.002 A 
HETATM    4  C   UNL     1      26.039  39.636  48.388  1.00  0.00     0.009 A 
HETATM    5  C   UNL     1      26.310  40.413  49.525  1.00  0.00    -0.035 A 
HETATM    6  C   UNL     1      25.462  41.499  49.819  1.00  0.00     0.026 A 
ENDROOT
BRANCH   1   7
HETATM    7  C   UNL     1      23.418  42.919  49.287  1.00  0.00     0.257 C 
HETATM    8  N   UNL     1      23.044  43.685  48.201  1.00  0.00    -0.301 N 
HETATM    9  H   UNL     1      23.344  43.460  47.265  1.00  0.00     0.171 HD
HETATM   10  O   UNL     1      23.038  43.067  50.443  1.00  0.00    -0.267 OA
BRANCH   8  11
HETATM   11  C   UNL     1      22.188  44.743  48.344  1.00  0.00     0.174 A 
HETATM   12  N   UNL     1      20.879  44.757  48.306  1.00  0.00    -0.228 NA
HETATM   13  C   UNL     1      20.422  46.033  48.485  1.00  0.00     0.050 A 
HETATM   14  C   UNL     1      18.964  46.326  48.483  1.00  0.00     0.062 C 
HETATM   15  C   UNL     1      21.398  46.983  48.698  1.00  0.00     0.013 A 
HETATM   16  C   UNL     1      18.708  47.836  48.354  1.00  0.00     0.039 C 
HETATM   17  C   UNL     1      19.641  48.646  49.281  1.00  0.00     0.191 C 
HETATM   18  C   UNL     1      21.141  48.431  48.925  1.00  0.00     0.081 C 
HETATM   19  S   UNL     1      22.941  46.260  48.620  1.00  0.00    -0.055 SA
BRANCH  17  20
HETATM   20  N   UNL     1      19.318  50.121  49.176  1.00  0.00    -0.071 N 
HETATM   21  H   UNL     1      19.167  50.374  48.188  1.00  0.00     0.277 HD
HETATM   22  H   UNL     1      20.142  50.661  49.477  1.00  0.00     0.277 HD
BRANCH  20  23
HETATM   23  C   UNL     1      18.145  50.589  49.989  1.00  0.00     0.232 C 
BRANCH  23  24
HETATM   24  C   UNL     1      17.924  52.073  49.733  1.00  0.00     0.023 C 
HETATM   25  C   UNL     1      18.751  52.553  48.550  1.00  0.00     0.007 C 
ENDBRANCH  23  24
ENDBRANCH  20  23
ENDBRANCH  17  20
ENDBRANCH   8  11
ENDBRANCH   1   7
BRANCH   5  26
HETATM   26  C   UNL     1      27.513  40.147  50.415  1.00  0.00     0.114 C 
HETATM   27  C   UNL     1      28.764  39.726  49.642  1.00  0.00     0.037 C 
BRANCH  26  28
HETATM   28  N   UNL     1      27.788  41.320  51.225  1.00  0.00    -0.349 N 
HETATM   29  C   UNL     1      28.388  41.230  52.462  1.00  0.00     0.252 C 
HETATM   30  O   UNL     1      28.802  40.184  52.951  1.00  0.00    -0.268 OA
HETATM   31  H   UNL     1      27.450  42.211  50.890  1.00  0.00     0.163 HD
BRANCH  29  32
HETATM   32  C   UNL     1      28.552  42.511  53.195  1.00  0.00     0.033 A 
HETATM   33  C   UNL     1      27.631  43.537  52.962  1.00  0.00     0.020 A 
HETATM   34  C   UNL     1      27.739  44.755  53.645  1.00  0.00     0.039 A 
HETATM   35  C   UNL     1      28.778  44.963  54.560  1.00  0.00     0.089 A 
HETATM   36  C   UNL     1      29.711  43.932  54.767  1.00  0.00     0.068 A 
HETATM   37 CL   UNL     1      31.033  44.124  55.867  1.00  0.00    -0.081 Cl
HETATM   38  C   UNL     1      29.604  42.713  54.090  1.00  0.00     0.043 A 
BRANCH  35  39
HETATM   39  O   UNL     1      28.962  46.116  55.273  1.00  0.00    -0.354 OA
HETATM   40  C   UNL     1      28.379  46.200  56.567  1.00  0.00     0.210 C 
ENDBRANCH  35  39
ENDBRANCH  29  32
ENDBRANCH  26  28
ENDBRANCH   5  26
TORSDOF 9
ENDMDL
MODEL 7
REMARK VINA RESULT:      -8.5      3.774      7.386
REMARK  9 active torsions:
REMARK  status: ('A' for Active; 'I' for Inactive)
REMARK    1  A    between atoms: C_2  and  C_3 
REMARK    2  A    between atoms: C_3  and  N_4 
REMARK    3  A    between atoms: N_4  and  C_7 
REMARK    4  A    between atoms: C_12  and  N_13 
REMARK       I    between atoms: N_13  and  C_14 
REMARK    5  A    between atoms: C_14  and  C_16 
REMARK    6  A    between atoms: C_20  and  C_22 
REMARK    7  A    between atoms: C_22  and  N_24 
REMARK       I    between atoms: N_24  and  C_25 
REMARK    8  A    between atoms: C_25  and  C_27 
REMARK    9  A    between atoms: C_30  and  O_31 
ROOT
HETATM    1  C   UNL     1      27.138  45.240  52.800  1.00  0.00     0.033 A 
HETATM    2  C   UNL     1      27.811  45.580  53.980  1.00  0.00     0.017 A 
HETATM    3  C   UNL     1      28.695  44.681  54.574  1.00  0.00     0.002 A 
HETATM    4  C   UNL     1      28.925  43.438  53.987  1.00  0.00     0.009 A 
HETATM    5  C   UNL     1      28.290  43.083  52.787  1.00  0.00    -0.035 A 
HETATM    6  C   UNL     1      27.387  43.996  52.206  1.00  0.00     0.026 A 
ENDROOT
BRANCH   1   7
HETATM    7  C   UNL     1      26.206  46.249  52.213  1.00  0.00     0.257 C 
HETATM    8  N   UNL     1      26.147  46.295  50.835  1.00  0.00    -0.301 N 
HETATM    9  H   UNL     1      26.660  45.646  50.260  1.00  0.00     0.171 HD
HETATM   10  O   UNL     1      25.556  46.942  52.990  1.00  0.00    -0.267 OA
BRANCH   8  11
HETATM   11  C   UNL     1      25.327  47.183  50.192  1.00  0.00     0.174 A 
HETATM   12  N   UNL     1      25.586  48.401  49.786  1.00  0.00    -0.228 NA
HETATM   13  C   UNL     1      24.476  48.941  49.197  1.00  0.00     0.050 A 
HETATM   14  C   UNL     1      24.502  50.322  48.648  1.00  0.00     0.062 C 
HETATM   15  C   UNL     1      23.382  48.105  49.127  1.00  0.00     0.013 A 
HETATM   16  C   UNL     1      23.078  50.826  48.360  1.00  0.00     0.039 C 
HETATM   17  C   UNL     1      22.233  49.745  47.650  1.00  0.00     0.191 C 
HETATM   18  C   UNL     1      22.070  48.468  48.526  1.00  0.00     0.081 C 
HETATM   19  S   UNL     1      23.741  46.611  49.870  1.00  0.00    -0.055 SA
BRANCH  17  20
HETATM   20  N   UNL     1      20.861  50.296  47.325  1.00  0.00    -0.071 N 
HETATM   21  H   UNL     1      20.367  49.648  46.696  1.00  0.00     0.277 HD
HETATM   22  H   UNL     1      20.975  51.170  46.791  1.00  0.00     0.277 HD
BRANCH  20  23
HETATM   23  C   UNL     1      19.985  50.598  48.507  1.00  0.00     0.232 C 
BRANCH  23  24
HETATM   24  C   UNL     1      19.543  52.053  48.440  1.00  0.00     0.023 C 
HETATM   25  C   UNL     1      18.432  52.333  49.440  1.00  0.00     0.007 C 
ENDBRANCH  23  24
ENDBRANCH  20  23
ENDBRANCH  17  20
ENDBRANCH   8  11
ENDBRANCH   1   7
BRANCH   5  26
HETATM   26  C   UNL     1      28.510  41.732  52.126  1.00  0.00     0.114 C 
HETATM   27  C   UNL     1      28.636  40.578  53.122  1.00  0.00     0.037 C 
BRANCH  26  28
HETATM   28  N   UNL     1      27.439  41.472  51.181  1.00  0.00    -0.349 N 
HETATM   29  C   UNL     1      27.638  40.730  50.037  1.00  0.00     0.252 C 
HETATM   30  O   UNL     1      28.692  40.171  49.754  1.00  0.00    -0.268 OA
HETATM   31  H   UNL     1      26.551  41.925  51.342  1.00  0.00     0.163 HD
BRANCH  29  32
HETATM   32  C   UNL     1      26.462  40.599  49.140  1.00  0.00     0.033 A 
HETATM   33  C   UNL     1      26.498  39.635  48.128  1.00  0.00     0.020 A 
HETATM   34  C   UNL     1      25.403  39.466  47.271  1.00  0.00     0.039 A 
HETATM   35  C   UNL     1      24.266  40.269  47.410  1.00  0.00     0.089 A 
HETATM   36  C   UNL     1      24.252  41.251  48.416  1.00  0.00     0.068 A 
HETATM   37 CL   UNL     1      22.889  42.295  48.636  1.00  0.00    -0.081 Cl
HETATM   38  C   UNL     1      25.341  41.420  49.276  1.00  0.00     0.043 A 
BRANCH  35  39
HETATM   39  O   UNL     1      23.150  40.175  46.622  1.00  0.00    -0.354 OA
HETATM   40  C   UNL     1      22.250  39.103  46.867  1.00  0.00     0.210 C 
ENDBRANCH  35  39
ENDBRANCH  29  32
ENDBRANCH  26  28
ENDBRANCH   5  26
TORSDOF 9
ENDMDL
MODEL 8
REMARK VINA RESULT:      -8.5      4.778     13.360
REMARK  9 active torsions:
REMARK  status: ('A' for Active; 'I' for Inactive)
REMARK    1  A    between atoms: C_2  and  C_3 
REMARK    2  A    between atoms: C_3  and  N_4 
REMARK    3  A    between atoms: N_4  and  C_7 
REMARK    4  A    between atoms: C_12  and  N_13 
REMARK       I    between atoms: N_13  and  C_14 
REMARK    5  A    between atoms: C_14  and  C_16 
REMARK    6  A    between atoms: C_20  and  C_22 
REMARK    7  A    between atoms: C_22  and  N_24 
REMARK       I    between atoms: N_24  and  C_25 
REMARK    8  A    between atoms: C_25  and  C_27 
REMARK    9  A    between atoms: C_30  and  O_31 
ROOT
HETATM    1  C   UNL     1      23.498  47.009  49.176  1.00  0.00     0.033 A 
HETATM    2  C   UNL     1      22.776  46.105  48.388  1.00  0.00     0.017 A 
HETATM    3  C   UNL     1      21.642  46.521  47.694  1.00  0.00     0.002 A 
HETATM    4  C   UNL     1      21.224  47.849  47.771  1.00  0.00     0.009 A 
HETATM    5  C   UNL     1      21.948  48.784  48.526  1.00  0.00    -0.035 A 
HETATM    6  C   UNL     1      23.084  48.347  49.236  1.00  0.00     0.026 A 
ENDROOT
BRANCH   1   7
HETATM    7  C   UNL     1      24.707  46.500  49.892  1.00  0.00     0.257 C 
HETATM    8  N   UNL     1      24.520  46.111  51.203  1.00  0.00    -0.301 N 
HETATM    9  H   UNL     1      23.608  46.118  51.634  1.00  0.00     0.171 HD
HETATM   10  O   UNL     1      25.759  46.447  49.264  1.00  0.00    -0.267 OA
BRANCH   8  11
HETATM   11  C   UNL     1      25.559  45.630  51.953  1.00  0.00     0.174 A 
HETATM   12  N   UNL     1      26.259  44.535  51.789  1.00  0.00    -0.228 NA
HETATM   13  C   UNL     1      27.200  44.432  52.775  1.00  0.00     0.050 A 
HETATM   14  C   UNL     1      28.130  43.274  52.820  1.00  0.00     0.062 C 
HETATM   15  C   UNL     1      27.233  45.481  53.669  1.00  0.00     0.013 A 
HETATM   16  C   UNL     1      28.846  43.196  54.179  1.00  0.00     0.039 C 
HETATM   17  C   UNL     1      29.346  44.586  54.630  1.00  0.00     0.191 C 
HETATM   18  C   UNL     1      28.173  45.592  54.817  1.00  0.00     0.081 C 
HETATM   19  S   UNL     1      26.009  46.608  53.290  1.00  0.00    -0.055 SA
BRANCH  17  20
HETATM   20  N   UNL     1      30.100  44.462  55.937  1.00  0.00    -0.071 N 
HETATM   21  H   UNL     1      29.434  44.467  56.723  1.00  0.00     0.277 HD
HETATM   22  H   UNL     1      30.683  45.303  56.062  1.00  0.00     0.277 HD
BRANCH  20  23
HETATM   23  C   UNL     1      30.998  43.265  56.059  1.00  0.00     0.232 C 
BRANCH  23  24
HETATM   24  C   UNL     1      31.786  43.365  57.357  1.00  0.00     0.023 C 
HETATM   25  C   UNL     1      31.361  44.584  58.161  1.00  0.00     0.007 C 
ENDBRANCH  23  24
ENDBRANCH  20  23
ENDBRANCH  17  20
ENDBRANCH   8  11
ENDBRANCH   1   7
BRANCH   5  26
HETATM   26  C   UNL     1      21.515  50.237  48.641  1.00  0.00     0.114 C 
HETATM   27  C   UNL     1      22.685  51.222  48.678  1.00  0.00     0.037 C 
BRANCH  26  28
HETATM   28  N   UNL     1      20.612  50.564  47.552  1.00  0.00    -0.349 N 
HETATM   29  C   UNL     1      19.300  50.920  47.772  1.00  0.00     0.252 C 
HETATM   30  O   UNL     1      18.803  51.064  48.884  1.00  0.00    -0.268 OA
HETATM   31  H   UNL     1      20.951  50.441  46.608  1.00  0.00     0.163 HD
BRANCH  29  32
HETATM   32  C   UNL     1      18.485  51.170  46.556  1.00  0.00     0.033 A 
HETATM   33  C   UNL     1      18.843  50.525  45.368  1.00  0.00     0.020 A 
HETATM   34  C   UNL     1      18.091  50.718  44.202  1.00  0.00     0.039 A 
HETATM   35  C   UNL     1      16.981  51.570  44.210  1.00  0.00     0.089 A 
HETATM   36  C   UNL     1      16.647  52.232  45.405  1.00  0.00     0.068 A 
HETATM   37 CL   UNL     1      15.300  53.316  45.486  1.00  0.00    -0.081 Cl
HETATM   38  C   UNL     1      17.392  52.038  46.572  1.00  0.00     0.043 A 
BRANCH  35  39
HETATM   39  O   UNL     1      16.187  51.819  43.123  1.00  0.00    -0.354 OA
HETATM   40  C   UNL     1      16.294  50.946  42.007  1.00  0.00     0.210 C 
ENDBRANCH  35  39
ENDBRANCH  29  32
ENDBRANCH  26  28
ENDBRANCH   5  26
TORSDOF 9
ENDMDL
MODEL 9
REMARK VINA RESULT:      -8.3      5.951     11.910
REMARK  9 active torsions:
REMARK  status: ('A' for Active; 'I' for Inactive)
REMARK    1  A    between atoms: C_2  and  C_3 
REMARK    2  A    between atoms: C_3  and  N_4 
REMARK    3  A    between atoms: N_4  and  C_7 
REMARK    4  A    between atoms: C_12  and  N_13 
REMARK       I    between atoms: N_13  and  C_14 
REMARK    5  A    between atoms: C_14  and  C_16 
REMARK    6  A    between atoms: C_20  and  C_22 
REMARK    7  A    between atoms: C_22  and  N_24 
REMARK       I    between atoms: N_24  and  C_25 
REMARK    8  A    between atoms: C_25  and  C_27 
REMARK    9  A    between atoms: C_30  and  O_31 
ROOT
HETATM    1  C   UNL     1      29.054  42.671  53.810  1.00  0.00     0.033 A 
HETATM    2  C   UNL     1      30.198  42.638  54.617  1.00  0.00     0.017 A 
HETATM    3  C   UNL     1      30.513  43.716  55.442  1.00  0.00     0.002 A 
HETATM    4  C   UNL     1      29.681  44.834  55.477  1.00  0.00     0.009 A 
HETATM    5  C   UNL     1      28.510  44.881  54.705  1.00  0.00    -0.035 A 
HETATM    6  C   UNL     1      28.212  43.790  53.863  1.00  0.00     0.026 A 
ENDROOT
BRANCH   1   7
HETATM    7  C   UNL     1      28.772  41.482  52.951  1.00  0.00     0.257 C 
HETATM    8  N   UNL     1      28.593  41.730  51.605  1.00  0.00    -0.301 N 
HETATM    9  H   UNL     1      28.703  42.655  51.217  1.00  0.00     0.171 HD
HETATM   10  O   UNL     1      28.740  40.383  53.495  1.00  0.00    -0.267 OA
BRANCH   8  11
HETATM   11  C   UNL     1      28.328  40.714  50.728  1.00  0.00     0.174 A 
HETATM   12  N   UNL     1      29.159  39.874  50.162  1.00  0.00    -0.228 NA
HETATM   13  C   UNL     1      28.473  39.022  49.342  1.00  0.00     0.050 A 
HETATM   14  C   UNL     1      29.184  37.965  48.576  1.00  0.00     0.062 C 
HETATM   15  C   UNL     1      27.106  39.200  49.320  1.00  0.00     0.013 A 
HETATM   16  C   UNL     1      28.278  37.374  47.483  1.00  0.00     0.039 C 
HETATM   17  C   UNL     1      26.859  37.091  48.023  1.00  0.00     0.191 C 
HETATM   18  C   UNL     1      26.155  38.390  48.511  1.00  0.00     0.081 C 
HETATM   19  S   UNL     1      26.673  40.512  50.321  1.00  0.00    -0.055 SA
BRANCH  17  20
HETATM   20  N   UNL     1      26.015  36.452  46.941  1.00  0.00    -0.071 N 
HETATM   21  H   UNL     1      25.776  35.487  47.211  1.00  0.00     0.277 HD
HETATM   22  H   UNL     1      26.584  36.368  46.086  1.00  0.00     0.277 HD
BRANCH  20  23
HETATM   23  C   UNL     1      24.757  37.187  46.579  1.00  0.00     0.232 C 
BRANCH  23  24
HETATM   24  C   UNL     1      23.622  36.184  46.427  1.00  0.00     0.023 C 
HETATM   25  C   UNL     1      23.532  35.274  47.642  1.00  0.00     0.007 C 
ENDBRANCH  23  24
ENDBRANCH  20  23
ENDBRANCH  17  20
ENDBRANCH   8  11
ENDBRANCH   1   7
BRANCH   5  26
HETATM   26  C   UNL     1      27.586  46.088  54.711  1.00  0.00     0.114 C 
HETATM   27  C   UNL     1      28.314  47.413  54.938  1.00  0.00     0.037 C 
BRANCH  26  28
HETATM   28  N   UNL     1      26.830  46.130  53.473  1.00  0.00    -0.349 N 
HETATM   29  C   UNL     1      25.555  45.616  53.376  1.00  0.00     0.252 C 
HETATM   30  O   UNL     1      24.927  45.154  54.322  1.00  0.00    -0.268 OA
HETATM   31  H   UNL     1      27.300  46.476  52.648  1.00  0.00     0.163 HD
BRANCH  29  32
HETATM   32  C   UNL     1      24.933  45.681  52.030  1.00  0.00     0.033 A 
HETATM   33  C   UNL     1      25.000  46.884  51.320  1.00  0.00     0.020 A 
HETATM   34  C   UNL     1      24.441  46.984  50.040  1.00  0.00     0.039 A 
HETATM   35  C   UNL     1      23.798  45.884  49.462  1.00  0.00     0.089 A 
HETATM   36  C   UNL     1      23.715  44.688  50.196  1.00  0.00     0.068 A 
HETATM   37 CL   UNL     1      22.917  43.292  49.555  1.00  0.00    -0.081 Cl
HETATM   38  C   UNL     1      24.275  44.583  51.472  1.00  0.00     0.043 A 
BRANCH  35  39
HETATM   39  O   UNL     1      23.225  45.887  48.218  1.00  0.00    -0.354 OA
HETATM   40  C   UNL     1      22.271  46.900  47.926  1.00  0.00     0.210 C 
ENDBRANCH  35  39
ENDBRANCH  29  32
ENDBRANCH  26  28
ENDBRANCH   5  26
TORSDOF 9
ENDMDL
MODEL 10
REMARK VINA RESULT:      -8.3      4.438     11.569
REMARK  9 active torsions:
REMARK  status: ('A' for Active; 'I' for Inactive)
REMARK    1  A    between atoms: C_2  and  C_3 
REMARK    2  A    between atoms: C_3  and  N_4 
REMARK    3  A    between atoms: N_4  and  C_7 
REMARK    4  A    between atoms: C_12  and  N_13 
REMARK       I    between atoms: N_13  and  C_14 
REMARK    5  A    between atoms: C_14  and  C_16 
REMARK    6  A    between atoms: C_20  and  C_22 
REMARK    7  A    between atoms: C_22  and  N_24 
REMARK       I    between atoms: N_24  and  C_25 
REMARK    8  A    between atoms: C_25  and  C_27 
REMARK    9  A    between atoms: C_30  and  O_31 
ROOT
HETATM    1  C   UNL     1      23.220  43.473  48.817  1.00  0.00     0.033 A 
HETATM    2  C   UNL     1      23.737  42.344  48.169  1.00  0.00     0.017 A 
HETATM    3  C   UNL     1      23.201  41.919  46.955  1.00  0.00     0.002 A 
HETATM    4  C   UNL     1      22.151  42.625  46.369  1.00  0.00     0.009 A 
HETATM    5  C   UNL     1      21.637  43.780  46.980  1.00  0.00    -0.035 A 
HETATM    6  C   UNL     1      22.177  44.189  48.215  1.00  0.00     0.026 A 
ENDROOT
BRANCH   1   7
HETATM    7  C   UNL     1      23.841  43.877  50.114  1.00  0.00     0.257 C 
HETATM    8  N   UNL     1      25.095  44.449  50.038  1.00  0.00    -0.301 N 
HETATM    9  H   UNL     1      25.541  44.634  49.153  1.00  0.00     0.171 HD
HETATM   10  O   UNL     1      23.191  43.691  51.138  1.00  0.00    -0.267 OA
BRANCH   8  11
HETATM   11  C   UNL     1      25.756  44.855  51.166  1.00  0.00     0.174 A 
HETATM   12  N   UNL     1      25.564  45.925  51.896  1.00  0.00    -0.228 NA
HETATM   13  C   UNL     1      26.457  45.949  52.931  1.00  0.00     0.050 A 
HETATM   14  C   UNL     1      26.453  47.064  53.913  1.00  0.00     0.062 C 
HETATM   15  C   UNL     1      27.305  44.865  53.001  1.00  0.00     0.013 A 
HETATM   16  C   UNL     1      27.737  47.057  54.758  1.00  0.00     0.039 C 
HETATM   17  C   UNL     1      28.087  45.630  55.236  1.00  0.00     0.191 C 
HETATM   18  C   UNL     1      28.351  44.668  54.041  1.00  0.00     0.081 C 
HETATM   19  S   UNL     1      27.007  43.806  51.696  1.00  0.00    -0.055 SA
BRANCH  17  20
HETATM   20  N   UNL     1      29.318  45.669  56.116  1.00  0.00    -0.071 N 
HETATM   21  H   UNL     1      30.011  46.317  55.715  1.00  0.00     0.277 HD
HETATM   22  H   UNL     1      29.764  44.740  56.100  1.00  0.00     0.277 HD
BRANCH  20  23
HETATM   23  C   UNL     1      29.078  46.034  57.553  1.00  0.00     0.232 C 
BRANCH  23  24
HETATM   24  C   UNL     1      30.253  45.549  58.391  1.00  0.00     0.023 C 
HETATM   25  C   UNL     1      31.045  44.481  57.655  1.00  0.00     0.007 C 
ENDBRANCH  23  24
ENDBRANCH  20  23
ENDBRANCH  17  20
ENDBRANCH   8  11
ENDBRANCH   1   7
BRANCH   5  26
HETATM   26  C   UNL     1      20.486  44.568  46.374  1.00  0.00     0.114 C 
HETATM   27  C   UNL     1      19.203  43.750  46.214  1.00  0.00     0.037 C 
BRANCH  26  28
HETATM   28  N   UNL     1      20.235  45.754  47.173  1.00  0.00    -0.349 N 
HETATM   29  C   UNL     1      19.862  46.952  46.604  1.00  0.00     0.252 C 
HETATM   30  O   UNL     1      19.640  47.107  45.408  1.00  0.00    -0.268 OA
HETATM   31  H   UNL     1      20.424  45.701  48.164  1.00  0.00     0.163 HD
BRANCH  29  32
HETATM   32  C   UNL     1      19.697  48.090  47.544  1.00  0.00     0.033 A 
HETATM   33  C   UNL     1      19.968  49.382  47.084  1.00  0.00     0.020 A 
HETATM   34  C   UNL     1      19.808  50.485  47.932  1.00  0.00     0.039 A 
HETATM   35  C   UNL     1      19.388  50.304  49.255  1.00  0.00     0.089 A 
HETATM   36  C   UNL     1      19.143  48.998  49.713  1.00  0.00     0.068 A 
HETATM   37 CL   UNL     1      18.640  48.694  51.341  1.00  0.00    -0.081 Cl
HETATM   38  C   UNL     1      19.297  47.895  48.867  1.00  0.00     0.043 A 
BRANCH  35  39
HETATM   39  O   UNL     1      19.203  51.319  50.155  1.00  0.00    -0.354 OA
HETATM   40  C   UNL     1      18.110  52.203  49.946  1.00  0.00     0.210 C 
ENDBRANCH  35  39
ENDBRANCH  29  32
ENDBRANCH  26  28
ENDBRANCH   5  26
TORSDOF 9
ENDMDL
