MODEL 1
REMARK VINA RESULT:      -9.1      0.000      0.000
REMARK  10 active torsions:
REMARK  status: ('A' for Active; 'I' for Inactive)
REMARK    1  A    between atoms: C_2  and  C_3 
REMARK    2  A    between atoms: C_3  and  C_4 
REMARK    3  A    between atoms: C_4  and  O_5 
REMARK    4  A    between atoms: O_5  and  C_6 
REMARK    5  A    between atoms: C_10  and  C_11 
REMARK       I    between atoms: C_11  and  N_12 
REMARK    6  A    between atoms: N_12  and  C_13 
REMARK    7  A    between atoms: C_13  and  N_14 
REMARK    8  A    between atoms: N_14  and  C_15 
REMARK    9  A    between atoms: N_18  and  C_20 
REMARK   10  A    between atoms: C_20  and  C_21 
ROOT
HETATM    1  C   UNL     1      25.785  41.778  50.496  1.00  0.00     0.174 C 
HETATM    2  S   UNL     1      25.772  40.734  49.188  1.00  0.00    -0.041 SA
ENDROOT
BRANCH   1   3
HETATM    3  N   UNL     1      25.243  43.015  50.324  1.00  0.00    -0.300 N 
HETATM    4  C   UNL     1      24.732  44.015  51.156  1.00  0.00     0.257 C 
HETATM    5  O   UNL     1      24.519  43.925  52.359  1.00  0.00    -0.267 OA
HETATM    6  H   UNL     1      25.100  43.190  49.335  1.00  0.00     0.171 HD
BRANCH   4   7
HETATM    7  C   UNL     1      24.318  45.268  50.470  1.00  0.00     0.033 A 
HETATM    8  C   UNL     1      23.366  45.282  49.448  1.00  0.00     0.039 A 
HETATM    9  C   UNL     1      23.027  46.497  48.837  1.00  0.00     0.045 A 
HETATM   10  C   UNL     1      23.635  47.702  49.227  1.00  0.00     0.086 A 
HETATM   11 BR   UNL     1      21.728  46.447  47.449  1.00  0.00    -0.048 Br
HETATM   12  C   UNL     1      24.598  47.670  50.239  1.00  0.00     0.039 A 
HETATM   13  C   UNL     1      24.941  46.462  50.852  1.00  0.00     0.020 A 
BRANCH  10  14
HETATM   14  O   UNL     1      23.229  48.843  48.586  1.00  0.00    -0.350 OA
BRANCH  14  15
HETATM   15  C   UNL     1      22.543  49.832  49.359  1.00  0.00     0.176 C 
BRANCH  15  16
HETATM   16  C   UNL     1      21.245  50.186  48.635  1.00  0.00     0.030 C 
BRANCH  16  17
HETATM   17  C   UNL     1      20.368  51.183  49.411  1.00  0.00    -0.021 C 
HETATM   18  C   UNL     1      19.336  50.429  50.251  1.00  0.00     0.009 C 
HETATM   19  C   UNL     1      19.656  52.168  48.482  1.00  0.00     0.009 C 
ENDBRANCH  16  17
ENDBRANCH  15  16
ENDBRANCH  14  15
ENDBRANCH  10  14
ENDBRANCH   4   7
ENDBRANCH   1   3
BRANCH   1  20
HETATM   20  N   UNL     1      26.360  41.322  51.624  1.00  0.00    -0.362 N 
HETATM   21  H   UNL     1      25.681  40.823  52.192  1.00  0.00     0.162 HD
BRANCH  20  22
HETATM   22  C   UNL     1      27.758  41.290  52.049  1.00  0.00     0.087 C 
HETATM   23  C   UNL     1      27.877  41.213  53.578  1.00  0.00     0.053 C 
HETATM   24  C   UNL     1      27.713  42.551  54.282  1.00  0.00     0.237 C 
HETATM   25  N   UNL     1      28.666  43.547  53.675  1.00  0.00    -0.067 N 
HETATM   26  H   UNL     1      29.609  43.140  53.728  1.00  0.00     0.280 HD
HETATM   27  C   UNL     1      28.348  43.772  52.225  1.00  0.00     0.237 C 
HETATM   28  C   UNL     1      28.544  42.473  51.469  1.00  0.00     0.053 C 
BRANCH  25  29
HETATM   29  C   UNL     1      28.754  44.845  54.451  1.00  0.00     0.273 C 
BRANCH  29  30
HETATM   30  C   UNL     1      29.679  44.747  55.635  1.00  0.00    -0.033 A 
HETATM   31  C   UNL     1      30.658  43.741  55.697  1.00  0.00     0.009 A 
HETATM   32  C   UNL     1      31.479  43.621  56.819  1.00  0.00     0.001 A 
HETATM   33  C   UNL     1      31.340  44.509  57.882  1.00  0.00     0.000 A 
HETATM   34  C   UNL     1      30.387  45.523  57.824  1.00  0.00     0.001 A 
HETATM   35  C   UNL     1      29.559  45.643  56.707  1.00  0.00     0.009 A 
ENDBRANCH  29  30
ENDBRANCH  25  29
ENDBRANCH  20  22
ENDBRANCH   1  20
TORSDOF 10
ENDMDL
MODEL 2
REMARK VINA RESULT:      -8.8      2.113      3.412
REMARK  10 active torsions:
REMARK  status: ('A' for Active; 'I' for Inactive)
REMARK    1  A    between atoms: C_2  and  C_3 
REMARK    2  A    between atoms: C_3  and  C_4 
REMARK    3  A    between atoms: C_4  and  O_5 
REMARK    4  A    between atoms: O_5  and  C_6 
REMARK    5  A    between atoms: C_10  and  C_11 
REMARK       I    between atoms: C_11  and  N_12 
REMARK    6  A    between atoms: N_12  and  C_13 
REMARK    7  A    between atoms: C_13  and  N_14 
REMARK    8  A    between atoms: N_14  and  C_15 
REMARK    9  A    between atoms: N_18  and  C_20 
REMARK   10  A    between atoms: C_20  and  C_21 
ROOT
HETATM    1  C   UNL     1      24.545  45.225  50.606  1.00  0.00     0.174 C 
HETATM    2  S   UNL     1      25.428  44.337  49.497  1.00  0.00    -0.041 SA
ENDROOT
BRANCH   1   3
HETATM    3  N   UNL     1      23.904  46.339  50.158  1.00  0.00    -0.300 N 
HETATM    4  C   UNL     1      24.266  47.652  49.843  1.00  0.00     0.257 C 
HETATM    5  O   UNL     1      25.351  48.179  50.053  1.00  0.00    -0.267 OA
HETATM    6  H   UNL     1      22.903  46.175  50.148  1.00  0.00     0.171 HD
BRANCH   4   7
HETATM    7  C   UNL     1      23.177  48.502  49.292  1.00  0.00     0.033 A 
HETATM    8  C   UNL     1      21.991  47.964  48.788  1.00  0.00     0.039 A 
HETATM    9  C   UNL     1      21.007  48.820  48.275  1.00  0.00     0.045 A 
HETATM   10  C   UNL     1      21.196  50.213  48.250  1.00  0.00     0.086 A 
HETATM   11 BR   UNL     1      19.417  48.025  47.600  1.00  0.00    -0.048 Br
HETATM   12  C   UNL     1      22.395  50.735  48.741  1.00  0.00     0.039 A 
HETATM   13  C   UNL     1      23.380  49.885  49.253  1.00  0.00     0.020 A 
BRANCH  10  14
HETATM   14  O   UNL     1      20.174  50.973  47.746  1.00  0.00    -0.350 OA
BRANCH  14  15
HETATM   15  C   UNL     1      19.788  52.138  48.479  1.00  0.00     0.176 C 
BRANCH  15  16
HETATM   16  C   UNL     1      18.299  52.381  48.238  1.00  0.00     0.030 C 
BRANCH  16  17
HETATM   17  C   UNL     1      17.395  51.698  49.279  1.00  0.00    -0.021 C 
HETATM   18  C   UNL     1      16.639  50.536  48.633  1.00  0.00     0.009 C 
HETATM   19  C   UNL     1      16.400  52.676  49.906  1.00  0.00     0.009 C 
ENDBRANCH  16  17
ENDBRANCH  15  16
ENDBRANCH  14  15
ENDBRANCH  10  14
ENDBRANCH   4   7
ENDBRANCH   1   3
BRANCH   1  20
HETATM   20  N   UNL     1      24.555  44.782  51.878  1.00  0.00    -0.362 N 
HETATM   21  H   UNL     1      24.222  43.824  51.922  1.00  0.00     0.162 HD
BRANCH  20  22
HETATM   22  C   UNL     1      25.096  45.372  53.100  1.00  0.00     0.087 C 
HETATM   23  C   UNL     1      26.347  46.214  52.810  1.00  0.00     0.053 C 
HETATM   24  C   UNL     1      27.623  45.399  52.660  1.00  0.00     0.237 C 
HETATM   25  N   UNL     1      27.786  44.515  53.868  1.00  0.00    -0.067 N 
HETATM   26  H   UNL     1      27.751  45.120  54.699  1.00  0.00     0.280 HD
HETATM   27  C   UNL     1      26.651  43.538  53.969  1.00  0.00     0.237 C 
HETATM   28  C   UNL     1      25.357  44.301  54.168  1.00  0.00     0.053 C 
BRANCH  25  29
HETATM   29  C   UNL     1      29.138  43.834  53.936  1.00  0.00     0.273 C 
BRANCH  29  30
HETATM   30  C   UNL     1      29.835  44.066  55.250  1.00  0.00    -0.033 A 
HETATM   31  C   UNL     1      29.556  45.212  56.014  1.00  0.00     0.009 A 
HETATM   32  C   UNL     1      30.241  45.450  57.207  1.00  0.00     0.001 A 
HETATM   33  C   UNL     1      31.199  44.544  57.653  1.00  0.00     0.000 A 
HETATM   34  C   UNL     1      31.470  43.394  56.915  1.00  0.00     0.001 A 
HETATM   35  C   UNL     1      30.792  43.154  55.719  1.00  0.00     0.009 A 
ENDBRANCH  29  30
ENDBRANCH  25  29
ENDBRANCH  20  22
ENDBRANCH   1  20
TORSDOF 10
ENDMDL
MODEL 3
REMARK VINA RESULT:      -8.7      2.639      4.331
REMARK  10 active torsions:
REMARK  status: ('A' for Active; 'I' for Inactive)
REMARK    1  A    between atoms: C_2  and  C_3 
REMARK    2  A    between atoms: C_3  and  C_4 
REMARK    3  A    between atoms: C_4  and  O_5 
REMARK    4  A    between atoms: O_5  and  C_6 
REMARK    5  A    between atoms: C_10  and  C_11 
REMARK       I    between atoms: C_11  and  N_12 
REMARK    6  A    between atoms: N_12  and  C_13 
REMARK    7  A    between atoms: C_13  and  N_14 
REMARK    8  A    between atoms: N_14  and  C_15 
REMARK    9  A    between atoms: N_18  and  C_20 
REMARK   10  A    between atoms: C_20  and  C_21 
ROOT
HETATM    1  C   UNL     1      23.349  45.154  49.357  1.00  0.00     0.174 C 
HETATM    2  S   UNL     1      22.796  43.672  49.902  1.00  0.00    -0.041 SA
ENDROOT
BRANCH   1   3
HETATM    3  N   UNL     1      22.421  46.100  49.044  1.00  0.00    -0.300 N 
HETATM    4  C   UNL     1      22.434  47.468  48.758  1.00  0.00     0.257 C 
HETATM    5  O   UNL     1      23.388  48.228  48.871  1.00  0.00    -0.267 OA
HETATM    6  H   UNL     1      21.490  45.709  49.140  1.00  0.00     0.171 HD
BRANCH   4   7
HETATM    7  C   UNL     1      21.121  48.056  48.382  1.00  0.00     0.033 A 
HETATM    8  C   UNL     1      19.912  47.399  48.620  1.00  0.00     0.039 A 
HETATM    9  C   UNL     1      18.709  48.004  48.232  1.00  0.00     0.045 A 
HETATM   10  C   UNL     1      18.696  49.258  47.598  1.00  0.00     0.086 A 
HETATM   11 BR   UNL     1      17.098  47.056  48.582  1.00  0.00    -0.048 Br
HETATM   12  C   UNL     1      19.915  49.895  47.349  1.00  0.00     0.039 A 
HETATM   13  C   UNL     1      21.118  49.296  47.734  1.00  0.00     0.020 A 
BRANCH  10  14
HETATM   14  O   UNL     1      17.473  49.780  47.269  1.00  0.00    -0.350 OA
BRANCH  14  15
HETATM   15  C   UNL     1      17.300  51.195  47.391  1.00  0.00     0.176 C 
BRANCH  15  16
HETATM   16  C   UNL     1      16.191  51.452  48.412  1.00  0.00     0.030 C 
BRANCH  16  17
HETATM   17  C   UNL     1      16.717  51.963  49.764  1.00  0.00    -0.021 C 
HETATM   18  C   UNL     1      15.930  53.202  50.196  1.00  0.00     0.009 C 
HETATM   19  C   UNL     1      18.210  52.291  49.714  1.00  0.00     0.009 C 
ENDBRANCH  16  17
ENDBRANCH  15  16
ENDBRANCH  14  15
ENDBRANCH  10  14
ENDBRANCH   4   7
ENDBRANCH   1   3
BRANCH   1  20
HETATM   20  N   UNL     1      24.683  45.294  49.243  1.00  0.00    -0.362 N 
HETATM   21  H   UNL     1      25.004  44.925  48.353  1.00  0.00     0.162 HD
BRANCH  20  22
HETATM   22  C   UNL     1      25.653  46.003  50.075  1.00  0.00     0.087 C 
HETATM   23  C   UNL     1      27.066  45.430  49.899  1.00  0.00     0.053 C 
HETATM   24  C   UNL     1      27.328  44.165  50.703  1.00  0.00     0.237 C 
HETATM   25  N   UNL     1      26.981  44.419  52.146  1.00  0.00    -0.067 N 
HETATM   26  H   UNL     1      27.512  45.245  52.449  1.00  0.00     0.280 HD
HETATM   27  C   UNL     1      25.521  44.738  52.293  1.00  0.00     0.237 C 
HETATM   28  C   UNL     1      25.218  46.022  51.546  1.00  0.00     0.053 C 
BRANCH  25  29
HETATM   29  C   UNL     1      27.421  43.307  53.076  1.00  0.00     0.273 C 
BRANCH  29  30
HETATM   30  C   UNL     1      28.495  43.748  54.034  1.00  0.00    -0.033 A 
HETATM   31  C   UNL     1      29.592  42.915  54.311  1.00  0.00     0.009 A 
HETATM   32  C   UNL     1      30.560  43.304  55.238  1.00  0.00     0.001 A 
HETATM   33  C   UNL     1      30.448  44.530  55.889  1.00  0.00     0.000 A 
HETATM   34  C   UNL     1      29.374  45.373  55.609  1.00  0.00     0.001 A 
HETATM   35  C   UNL     1      28.401  44.986  54.686  1.00  0.00     0.009 A 
ENDBRANCH  29  30
ENDBRANCH  25  29
ENDBRANCH  20  22
ENDBRANCH   1  20
TORSDOF 10
ENDMDL
MODEL 4
REMARK VINA RESULT:      -8.7      2.876      4.697
REMARK  10 active torsions:
REMARK  status: ('A' for Active; 'I' for Inactive)
REMARK    1  A    between atoms: C_2  and  C_3 
REMARK    2  A    between atoms: C_3  and  C_4 
REMARK    3  A    between atoms: C_4  and  O_5 
REMARK    4  A    between atoms: O_5  and  C_6 
REMARK    5  A    between atoms: C_10  and  C_11 
REMARK       I    between atoms: C_11  and  N_12 
REMARK    6  A    between atoms: N_12  and  C_13 
REMARK    7  A    between atoms: C_13  and  N_14 
REMARK    8  A    between atoms: N_14  and  C_15 
REMARK    9  A    between atoms: N_18  and  C_20 
REMARK   10  A    between atoms: C_20  and  C_21 
ROOT
HETATM    1  C   UNL     1      26.285  48.242  49.561  1.00  0.00     0.174 C 
HETATM    2  S   UNL     1      27.659  49.072  49.090  1.00  0.00    -0.041 SA
ENDROOT
BRANCH   1   3
HETATM    3  N   UNL     1      25.078  48.773  49.222  1.00  0.00    -0.300 N 
HETATM    4  C   UNL     1      24.580  49.561  48.180  1.00  0.00     0.257 C 
HETATM    5  O   UNL     1      25.237  50.119  47.310  1.00  0.00    -0.267 OA
HETATM    6  H   UNL     1      24.416  48.623  49.976  1.00  0.00     0.171 HD
BRANCH   4   7
HETATM    7  C   UNL     1      23.116  49.817  48.214  1.00  0.00     0.033 A 
HETATM    8  C   UNL     1      22.178  48.839  47.877  1.00  0.00     0.039 A 
HETATM    9  C   UNL     1      20.811  49.148  47.921  1.00  0.00     0.045 A 
HETATM   10  C   UNL     1      20.367  50.429  48.291  1.00  0.00     0.086 A 
HETATM   11 BR   UNL     1      19.586  47.774  47.446  1.00  0.00    -0.048 Br
HETATM   12  C   UNL     1      21.317  51.402  48.608  1.00  0.00     0.039 A 
HETATM   13  C   UNL     1      22.682  51.100  48.565  1.00  0.00     0.020 A 
BRANCH  10  14
HETATM   14  O   UNL     1      19.013  50.636  48.322  1.00  0.00    -0.350 OA
BRANCH  14  15
HETATM   15  C   UNL     1      18.387  50.747  49.603  1.00  0.00     0.176 C 
BRANCH  15  16
HETATM   16  C   UNL     1      17.860  52.174  49.753  1.00  0.00     0.030 C 
BRANCH  16  17
HETATM   17  C   UNL     1      16.330  52.246  49.889  1.00  0.00    -0.021 C 
HETATM   18  C   UNL     1      15.666  51.606  48.669  1.00  0.00     0.009 C 
HETATM   19  C   UNL     1      15.833  53.683  50.053  1.00  0.00     0.009 C 
ENDBRANCH  16  17
ENDBRANCH  15  16
ENDBRANCH  14  15
ENDBRANCH  10  14
ENDBRANCH   4   7
ENDBRANCH   1   3
BRANCH   1  20
HETATM   20  N   UNL     1      26.476  47.113  50.269  1.00  0.00    -0.362 N 
HETATM   21  H   UNL     1      26.901  47.325  51.167  1.00  0.00     0.162 HD
BRANCH  20  22
HETATM   22  C   UNL     1      26.039  45.739  50.030  1.00  0.00     0.087 C 
HETATM   23  C   UNL     1      24.838  45.372  50.913  1.00  0.00     0.053 C 
HETATM   24  C   UNL     1      25.209  44.987  52.337  1.00  0.00     0.237 C 
HETATM   25  N   UNL     1      26.253  43.903  52.298  1.00  0.00    -0.067 N 
HETATM   26  H   UNL     1      25.878  43.137  51.724  1.00  0.00     0.280 HD
HETATM   27  C   UNL     1      27.507  44.397  51.637  1.00  0.00     0.237 C 
HETATM   28  C   UNL     1      27.200  44.749  50.195  1.00  0.00     0.053 C 
BRANCH  25  29
HETATM   29  C   UNL     1      26.525  43.281  53.652  1.00  0.00     0.273 C 
BRANCH  29  30
HETATM   30  C   UNL     1      27.722  43.887  54.335  1.00  0.00    -0.033 A 
HETATM   31  C   UNL     1      27.657  45.182  54.876  1.00  0.00     0.009 A 
HETATM   32  C   UNL     1      28.783  45.761  55.463  1.00  0.00     0.001 A 
HETATM   33  C   UNL     1      29.979  45.050  55.525  1.00  0.00     0.000 A 
HETATM   34  C   UNL     1      30.051  43.758  55.010  1.00  0.00     0.001 A 
HETATM   35  C   UNL     1      28.929  43.177  54.417  1.00  0.00     0.009 A 
ENDBRANCH  29  30
ENDBRANCH  25  29
ENDBRANCH  20  22
ENDBRANCH   1  20
TORSDOF 10
ENDMDL
MODEL 5
REMARK VINA RESULT:      -8.7      2.222      3.041
REMARK  10 active torsions:
REMARK  status: ('A' for Active; 'I' for Inactive)
REMARK    1  A    between atoms: C_2  and  C_3 
REMARK    2  A    between atoms: C_3  and  C_4 
REMARK    3  A    between atoms: C_4  and  O_5 
REMARK    4  A    between atoms: O_5  and  C_6 
REMARK    5  A    between atoms: C_10  and  C_11 
REMARK       I    between atoms: C_11  and  N_12 
REMARK    6  A    between atoms: N_12  and  C_13 
REMARK    7  A    between atoms: C_13  and  N_14 
REMARK    8  A    between atoms: N_14  and  C_15 
REMARK    9  A    between atoms: N_18  and  C_20 
REMARK   10  A    between atoms: C_20  and  C_21 
ROOT
HETATM    1  C   UNL     1      25.686  44.428  51.520  1.00  0.00     0.174 C 
HETATM    2  S   UNL     1      27.172  43.982  50.894  1.00  0.00    -0.041 SA
ENDROOT
BRANCH   1   3
HETATM    3  N   UNL     1      24.969  45.365  50.840  1.00  0.00    -0.300 N 
HETATM    4  C   UNL     1      25.206  46.649  50.343  1.00  0.00     0.257 C 
HETATM    5  O   UNL     1      26.194  47.342  50.552  1.00  0.00    -0.267 OA
HETATM    6  H   UNL     1      24.000  45.070  50.774  1.00  0.00     0.171 HD
BRANCH   4   7
HETATM    7  C   UNL     1      24.088  47.253  49.569  1.00  0.00     0.033 A 
HETATM    8  C   UNL     1      23.937  48.634  49.428  1.00  0.00     0.039 A 
HETATM    9  C   UNL     1      22.855  49.138  48.693  1.00  0.00     0.045 A 
HETATM   10  C   UNL     1      21.913  48.279  48.103  1.00  0.00     0.086 A 
HETATM   11 BR   UNL     1      22.703  51.027  48.542  1.00  0.00    -0.048 Br
HETATM   12  C   UNL     1      22.067  46.900  48.268  1.00  0.00     0.039 A 
HETATM   13  C   UNL     1      23.144  46.391  49.000  1.00  0.00     0.020 A 
BRANCH  10  14
HETATM   14  O   UNL     1      20.898  48.860  47.389  1.00  0.00    -0.350 OA
BRANCH  14  15
HETATM   15  C   UNL     1      19.581  48.807  47.942  1.00  0.00     0.176 C 
BRANCH  15  16
HETATM   16  C   UNL     1      18.854  50.098  47.566  1.00  0.00     0.030 C 
BRANCH  16  17
HETATM   17  C   UNL     1      18.605  51.027  48.766  1.00  0.00    -0.021 C 
HETATM   18  C   UNL     1      19.194  52.411  48.487  1.00  0.00     0.009 C 
HETATM   19  C   UNL     1      19.196  50.466  50.060  1.00  0.00     0.009 C 
ENDBRANCH  16  17
ENDBRANCH  15  16
ENDBRANCH  14  15
ENDBRANCH  10  14
ENDBRANCH   4   7
ENDBRANCH   1   3
BRANCH   1  20
HETATM   20  N   UNL     1      25.317  43.840  52.674  1.00  0.00    -0.362 N 
HETATM   21  H   UNL     1      25.160  42.847  52.532  1.00  0.00     0.162 HD
BRANCH  20  22
HETATM   22  C   UNL     1      25.276  44.347  54.044  1.00  0.00     0.087 C 
HETATM   23  C   UNL     1      25.439  45.873  54.081  1.00  0.00     0.053 C 
HETATM   24  C   UNL     1      26.879  46.348  53.969  1.00  0.00     0.237 C 
HETATM   25  N   UNL     1      27.710  45.651  55.013  1.00  0.00    -0.067 N 
HETATM   26  H   UNL     1      27.266  45.822  55.924  1.00  0.00     0.280 HD
HETATM   27  C   UNL     1      27.718  44.167  54.782  1.00  0.00     0.237 C 
HETATM   28  C   UNL     1      26.306  43.636  54.932  1.00  0.00     0.053 C 
BRANCH  25  29
HETATM   29  C   UNL     1      29.109  46.217  55.146  1.00  0.00     0.273 C 
BRANCH  29  30
HETATM   30  C   UNL     1      29.956  45.439  56.117  1.00  0.00    -0.033 A 
HETATM   31  C   UNL     1      30.008  45.804  57.473  1.00  0.00     0.009 A 
HETATM   32  C   UNL     1      30.833  45.112  58.361  1.00  0.00     0.001 A 
HETATM   33  C   UNL     1      31.605  44.045  57.907  1.00  0.00     0.000 A 
HETATM   34  C   UNL     1      31.548  43.662  56.569  1.00  0.00     0.001 A 
HETATM   35  C   UNL     1      30.727  44.354  55.677  1.00  0.00     0.009 A 
ENDBRANCH  29  30
ENDBRANCH  25  29
ENDBRANCH  20  22
ENDBRANCH   1  20
TORSDOF 10
ENDMDL
MODEL 6
REMARK VINA RESULT:      -8.7      3.179     11.013
REMARK  10 active torsions:
REMARK  status: ('A' for Active; 'I' for Inactive)
REMARK    1  A    between atoms: C_2  and  C_3 
REMARK    2  A    between atoms: C_3  and  C_4 
REMARK    3  A    between atoms: C_4  and  O_5 
REMARK    4  A    between atoms: O_5  and  C_6 
REMARK    5  A    between atoms: C_10  and  C_11 
REMARK       I    between atoms: C_11  and  N_12 
REMARK    6  A    between atoms: N_12  and  C_13 
REMARK    7  A    between atoms: C_13  and  N_14 
REMARK    8  A    between atoms: N_14  and  C_15 
REMARK    9  A    between atoms: N_18  and  C_20 
REMARK   10  A    between atoms: C_20  and  C_21 
ROOT
HETATM    1  C   UNL     1      23.501  45.678  49.475  1.00  0.00     0.174 C 
HETATM    2  S   UNL     1      23.717  44.409  48.406  1.00  0.00    -0.041 SA
ENDROOT
BRANCH   1   3
HETATM    3  N   UNL     1      24.361  45.773  50.526  1.00  0.00    -0.300 N 
HETATM    4  C   UNL     1      25.090  46.794  51.142  1.00  0.00     0.257 C 
HETATM    5  O   UNL     1      25.227  47.941  50.735  1.00  0.00    -0.267 OA
HETATM    6  H   UNL     1      24.583  44.845  50.871  1.00  0.00     0.171 HD
BRANCH   4   7
HETATM    7  C   UNL     1      25.850  46.396  52.357  1.00  0.00     0.033 A 
HETATM    8  C   UNL     1      26.528  45.178  52.448  1.00  0.00     0.039 A 
HETATM    9  C   UNL     1      27.219  44.859  53.626  1.00  0.00     0.045 A 
HETATM   10  C   UNL     1      27.233  45.738  54.722  1.00  0.00     0.086 A 
HETATM   11 BR   UNL     1      28.118  43.185  53.688  1.00  0.00    -0.048 Br
HETATM   12  C   UNL     1      26.535  46.944  54.623  1.00  0.00     0.039 A 
HETATM   13  C   UNL     1      25.844  47.268  53.451  1.00  0.00     0.020 A 
BRANCH  10  14
HETATM   14  O   UNL     1      27.948  45.351  55.824  1.00  0.00    -0.350 OA
BRANCH  14  15
HETATM   15  C   UNL     1      28.874  46.288  56.380  1.00  0.00     0.176 C 
BRANCH  15  16
HETATM   16  C   UNL     1      30.285  45.736  56.185  1.00  0.00     0.030 C 
BRANCH  16  17
HETATM   17  C   UNL     1      30.535  44.423  56.946  1.00  0.00    -0.021 C 
HETATM   18  C   UNL     1      31.424  44.684  58.163  1.00  0.00     0.009 C 
HETATM   19  C   UNL     1      31.177  43.356  56.058  1.00  0.00     0.009 C 
ENDBRANCH  16  17
ENDBRANCH  15  16
ENDBRANCH  14  15
ENDBRANCH  10  14
ENDBRANCH   4   7
ENDBRANCH   1   3
BRANCH   1  20
HETATM   20  N   UNL     1      22.468  46.504  49.228  1.00  0.00    -0.362 N 
HETATM   21  H   UNL     1      21.845  46.542  50.030  1.00  0.00     0.162 HD
BRANCH  20  22
HETATM   22  C   UNL     1      22.211  47.424  48.122  1.00  0.00     0.087 C 
HETATM   23  C   UNL     1      23.068  48.693  48.239  1.00  0.00     0.053 C 
HETATM   24  C   UNL     1      22.515  49.729  49.205  1.00  0.00     0.237 C 
HETATM   25  N   UNL     1      21.085  50.027  48.842  1.00  0.00    -0.067 N 
HETATM   26  H   UNL     1      21.071  50.304  47.852  1.00  0.00     0.280 HD
HETATM   27  C   UNL     1      20.234  48.798  48.982  1.00  0.00     0.237 C 
HETATM   28  C   UNL     1      20.716  47.748  48.002  1.00  0.00     0.053 C 
BRANCH  25  29
HETATM   29  C   UNL     1      20.508  51.212  49.589  1.00  0.00     0.273 C 
BRANCH  29  30
HETATM   30  C   UNL     1      19.123  51.571  49.120  1.00  0.00    -0.033 A 
HETATM   31  C   UNL     1      18.845  51.708  47.750  1.00  0.00     0.009 A 
HETATM   32  C   UNL     1      17.573  52.090  47.321  1.00  0.00     0.001 A 
HETATM   33  C   UNL     1      16.566  52.327  48.252  1.00  0.00     0.000 A 
HETATM   34  C   UNL     1      16.824  52.175  49.613  1.00  0.00     0.001 A 
HETATM   35  C   UNL     1      18.096  51.799  50.047  1.00  0.00     0.009 A 
ENDBRANCH  29  30
ENDBRANCH  25  29
ENDBRANCH  20  22
ENDBRANCH   1  20
TORSDOF 10
ENDMDL
MODEL 7
REMARK VINA RESULT:      -8.5      3.752      6.012
REMARK  10 active torsions:
REMARK  status: ('A' for Active; 'I' for Inactive)
REMARK    1  A    between atoms: C_2  and  C_3 
REMARK    2  A    between atoms: C_3  and  C_4 
REMARK    3  A    between atoms: C_4  and  O_5 
REMARK    4  A    between atoms: O_5  and  C_6 
REMARK    5  A    between atoms: C_10  and  C_11 
REMARK       I    between atoms: C_11  and  N_12 
REMARK    6  A    between atoms: N_12  and  C_13 
REMARK    7  A    between atoms: C_13  and  N_14 
REMARK    8  A    between atoms: N_14  and  C_15 
REMARK    9  A    between atoms: N_18  and  C_20 
REMARK   10  A    between atoms: C_20  and  C_21 
ROOT
HETATM    1  C   UNL     1      23.878  49.033  49.079  1.00  0.00     0.174 C 
HETATM    2  S   UNL     1      25.148  49.771  48.278  1.00  0.00    -0.041 SA
ENDROOT
BRANCH   1   3
HETATM    3  N   UNL     1      22.633  49.558  48.909  1.00  0.00    -0.300 N 
HETATM    4  C   UNL     1      21.851  50.524  49.549  1.00  0.00     0.257 C 
HETATM    5  O   UNL     1      22.104  51.081  50.610  1.00  0.00    -0.267 OA
HETATM    6  H   UNL     1      22.138  49.037  48.194  1.00  0.00     0.171 HD
BRANCH   4   7
HETATM    7  C   UNL     1      20.539  50.812  48.910  1.00  0.00     0.033 A 
HETATM    8  C   UNL     1      19.526  51.515  49.566  1.00  0.00     0.039 A 
HETATM    9  C   UNL     1      18.309  51.745  48.911  1.00  0.00     0.045 A 
HETATM   10  C   UNL     1      18.084  51.271  47.607  1.00  0.00     0.086 A 
HETATM   11 BR   UNL     1      16.970  52.704  49.860  1.00  0.00    -0.048 Br
HETATM   12  C   UNL     1      19.100  50.554  46.970  1.00  0.00     0.039 A 
HETATM   13  C   UNL     1      20.317  50.321  47.619  1.00  0.00     0.020 A 
BRANCH  10  14
HETATM   14  O   UNL     1      16.871  51.557  47.038  1.00  0.00    -0.350 OA
BRANCH  14  15
HETATM   15  C   UNL     1      16.069  50.460  46.595  1.00  0.00     0.176 C 
BRANCH  15  16
HETATM   16  C   UNL     1      15.631  49.663  47.823  1.00  0.00     0.030 C 
BRANCH  16  17
HETATM   17  C   UNL     1      16.025  48.177  47.756  1.00  0.00    -0.021 C 
HETATM   18  C   UNL     1      17.063  47.863  48.835  1.00  0.00     0.009 C 
HETATM   19  C   UNL     1      16.575  47.790  46.383  1.00  0.00     0.009 C 
ENDBRANCH  16  17
ENDBRANCH  15  16
ENDBRANCH  14  15
ENDBRANCH  10  14
ENDBRANCH   4   7
ENDBRANCH   1   3
BRANCH   1  20
HETATM   20  N   UNL     1      24.187  47.981  49.860  1.00  0.00    -0.362 N 
HETATM   21  H   UNL     1      23.416  47.764  50.484  1.00  0.00     0.162 HD
BRANCH  20  22
HETATM   22  C   UNL     1      25.321  47.060  49.832  1.00  0.00     0.087 C 
HETATM   23  C   UNL     1      24.877  45.617  50.109  1.00  0.00     0.053 C 
HETATM   24  C   UNL     1      24.679  45.300  51.583  1.00  0.00     0.237 C 
HETATM   25  N   UNL     1      25.925  45.678  52.340  1.00  0.00    -0.067 N 
HETATM   26  H   UNL     1      26.715  45.194  51.892  1.00  0.00     0.280 HD
HETATM   27  C   UNL     1      26.180  47.154  52.238  1.00  0.00     0.237 C 
HETATM   28  C   UNL     1      26.432  47.515  50.788  1.00  0.00     0.053 C 
BRANCH  25  29
HETATM   29  C   UNL     1      25.930  45.193  53.774  1.00  0.00     0.273 C 
BRANCH  29  30
HETATM   30  C   UNL     1      27.311  44.847  54.262  1.00  0.00    -0.033 A 
HETATM   31  C   UNL     1      27.915  43.632  53.897  1.00  0.00     0.009 A 
HETATM   32  C   UNL     1      29.175  43.292  54.392  1.00  0.00     0.001 A 
HETATM   33  C   UNL     1      29.848  44.164  55.244  1.00  0.00     0.000 A 
HETATM   34  C   UNL     1      29.268  45.380  55.598  1.00  0.00     0.001 A 
HETATM   35  C   UNL     1      28.006  45.722  55.110  1.00  0.00     0.009 A 
ENDBRANCH  29  30
ENDBRANCH  25  29
ENDBRANCH  20  22
ENDBRANCH   1  20
TORSDOF 10
ENDMDL
MODEL 8
REMARK VINA RESULT:      -8.5      4.002      6.103
REMARK  10 active torsions:
REMARK  status: ('A' for Active; 'I' for Inactive)
REMARK    1  A    between atoms: C_2  and  C_3 
REMARK    2  A    between atoms: C_3  and  C_4 
REMARK    3  A    between atoms: C_4  and  O_5 
REMARK    4  A    between atoms: O_5  and  C_6 
REMARK    5  A    between atoms: C_10  and  C_11 
REMARK       I    between atoms: C_11  and  N_12 
REMARK    6  A    between atoms: N_12  and  C_13 
REMARK    7  A    between atoms: C_13  and  N_14 
REMARK    8  A    between atoms: N_14  and  C_15 
REMARK    9  A    between atoms: N_18  and  C_20 
REMARK   10  A    between atoms: C_20  and  C_21 
ROOT
HETATM    1  C   UNL     1      23.271  48.782  49.387  1.00  0.00     0.174 C 
HETATM    2  S   UNL     1      24.411  49.689  48.565  1.00  0.00    -0.041 SA
ENDROOT
BRANCH   1   3
HETATM    3  N   UNL     1      21.965  49.150  49.269  1.00  0.00    -0.300 N 
HETATM    4  C   UNL     1      20.739  48.489  49.157  1.00  0.00     0.257 C 
HETATM    5  O   UNL     1      20.570  47.287  48.989  1.00  0.00    -0.267 OA
HETATM    6  H   UNL     1      21.904  50.154  49.140  1.00  0.00     0.171 HD
BRANCH   4   7
HETATM    7  C   UNL     1      19.538  49.366  49.138  1.00  0.00     0.033 A 
HETATM    8  C   UNL     1      18.336  48.975  48.544  1.00  0.00     0.039 A 
HETATM    9  C   UNL     1      17.243  49.854  48.554  1.00  0.00     0.045 A 
HETATM   10  C   UNL     1      17.338  51.126  49.142  1.00  0.00     0.086 A 
HETATM   11 BR   UNL     1      15.637  49.264  47.725  1.00  0.00    -0.048 Br
HETATM   12  C   UNL     1      18.553  51.510  49.716  1.00  0.00     0.039 A 
HETATM   13  C   UNL     1      19.646  50.639  49.709  1.00  0.00     0.020 A 
BRANCH  10  14
HETATM   14  O   UNL     1      16.216  51.911  49.119  1.00  0.00    -0.350 OA
BRANCH  14  15
HETATM   15  C   UNL     1      16.084  52.914  50.130  1.00  0.00     0.176 C 
BRANCH  15  16
HETATM   16  C   UNL     1      14.634  52.915  50.613  1.00  0.00     0.030 C 
BRANCH  16  17
HETATM   17  C   UNL     1      14.017  54.322  50.680  1.00  0.00    -0.021 C 
HETATM   18  C   UNL     1      12.585  54.291  50.143  1.00  0.00     0.009 C 
HETATM   19  C   UNL     1      14.839  55.348  49.898  1.00  0.00     0.009 C 
ENDBRANCH  16  17
ENDBRANCH  15  16
ENDBRANCH  14  15
ENDBRANCH  10  14
ENDBRANCH   4   7
ENDBRANCH   1   3
BRANCH   1  20
HETATM   20  N   UNL     1      23.736  47.763  50.133  1.00  0.00    -0.362 N 
HETATM   21  H   UNL     1      23.032  47.462  50.801  1.00  0.00     0.162 HD
BRANCH  20  22
HETATM   22  C   UNL     1      24.954  46.963  50.022  1.00  0.00     0.087 C 
HETATM   23  C   UNL     1      24.659  45.467  50.193  1.00  0.00     0.053 C 
HETATM   24  C   UNL     1      24.522  45.022  51.641  1.00  0.00     0.237 C 
HETATM   25  N   UNL     1      25.739  45.465  52.409  1.00  0.00    -0.067 N 
HETATM   26  H   UNL     1      26.563  45.096  51.917  1.00  0.00     0.280 HD
HETATM   27  C   UNL     1      25.845  46.962  52.418  1.00  0.00     0.237 C 
HETATM   28  C   UNL     1      26.033  47.453  50.996  1.00  0.00     0.053 C 
BRANCH  25  29
HETATM   29  C   UNL     1      25.818  44.876  53.802  1.00  0.00     0.273 C 
BRANCH  29  30
HETATM   30  C   UNL     1      27.208  44.419  54.157  1.00  0.00    -0.033 A 
HETATM   31  C   UNL     1      27.655  43.138  53.791  1.00  0.00     0.009 A 
HETATM   32  C   UNL     1      28.925  42.698  54.165  1.00  0.00     0.001 A 
HETATM   33  C   UNL     1      29.765  43.535  54.896  1.00  0.00     0.000 A 
HETATM   34  C   UNL     1      29.341  44.814  55.248  1.00  0.00     0.001 A 
HETATM   35  C   UNL     1      28.069  45.256  54.881  1.00  0.00     0.009 A 
ENDBRANCH  29  30
ENDBRANCH  25  29
ENDBRANCH  20  22
ENDBRANCH   1  20
TORSDOF 10
ENDMDL
MODEL 9
REMARK VINA RESULT:      -8.4      2.842      4.522
REMARK  10 active torsions:
REMARK  status: ('A' for Active; 'I' for Inactive)
REMARK    1  A    between atoms: C_2  and  C_3 
REMARK    2  A    between atoms: C_3  and  C_4 
REMARK    3  A    between atoms: C_4  and  O_5 
REMARK    4  A    between atoms: O_5  and  C_6 
REMARK    5  A    between atoms: C_10  and  C_11 
REMARK       I    between atoms: C_11  and  N_12 
REMARK    6  A    between atoms: N_12  and  C_13 
REMARK    7  A    between atoms: C_13  and  N_14 
REMARK    8  A    between atoms: N_14  and  C_15 
REMARK    9  A    between atoms: N_18  and  C_20 
REMARK   10  A    between atoms: C_20  and  C_21 
ROOT
HETATM    1  C   UNL     1      23.552  45.221  49.451  1.00  0.00     0.174 C 
HETATM    2  S   UNL     1      23.015  43.737  50.008  1.00  0.00    -0.041 SA
ENDROOT
BRANCH   1   3
HETATM    3  N   UNL     1      22.621  46.193  49.244  1.00  0.00    -0.300 N 
HETATM    4  C   UNL     1      22.635  47.531  48.839  1.00  0.00     0.257 C 
HETATM    5  O   UNL     1      23.624  48.238  48.692  1.00  0.00    -0.267 OA
HETATM    6  H   UNL     1      21.713  45.868  49.557  1.00  0.00     0.171 HD
BRANCH   4   7
HETATM    7  C   UNL     1      21.300  48.165  48.678  1.00  0.00     0.033 A 
HETATM    8  C   UNL     1      21.116  49.548  48.740  1.00  0.00     0.039 A 
HETATM    9  C   UNL     1      19.829  50.081  48.589  1.00  0.00     0.045 A 
HETATM   10  C   UNL     1      18.715  49.248  48.386  1.00  0.00     0.086 A 
HETATM   11 BR   UNL     1      19.646  51.971  48.688  1.00  0.00    -0.048 Br
HETATM   12  C   UNL     1      18.912  47.866  48.345  1.00  0.00     0.039 A 
HETATM   13  C   UNL     1      20.194  47.328  48.495  1.00  0.00     0.020 A 
BRANCH  10  14
HETATM   14  O   UNL     1      17.498  49.858  48.232  1.00  0.00    -0.350 OA
BRANCH  14  15
HETATM   15  C   UNL     1      16.806  49.659  46.996  1.00  0.00     0.176 C 
BRANCH  15  16
HETATM   16  C   UNL     1      16.421  51.030  46.441  1.00  0.00     0.030 C 
BRANCH  16  17
HETATM   17  C   UNL     1      17.575  51.735  45.707  1.00  0.00    -0.021 C 
HETATM   18  C   UNL     1      17.022  52.835  44.800  1.00  0.00     0.009 C 
HETATM   19  C   UNL     1      18.414  50.758  44.882  1.00  0.00     0.009 C 
ENDBRANCH  16  17
ENDBRANCH  15  16
ENDBRANCH  14  15
ENDBRANCH  10  14
ENDBRANCH   4   7
ENDBRANCH   1   3
BRANCH   1  20
HETATM   20  N   UNL     1      24.873  45.336  49.222  1.00  0.00    -0.362 N 
HETATM   21  H   UNL     1      25.108  44.969  48.305  1.00  0.00     0.162 HD
BRANCH  20  22
HETATM   22  C   UNL     1      25.926  46.019  49.972  1.00  0.00     0.087 C 
HETATM   23  C   UNL     1      27.200  45.166  50.049  1.00  0.00     0.053 C 
HETATM   24  C   UNL     1      27.162  44.088  51.121  1.00  0.00     0.237 C 
HETATM   25  N   UNL     1      26.804  44.718  52.441  1.00  0.00    -0.067 N 
HETATM   26  H   UNL     1      27.477  45.476  52.611  1.00  0.00     0.280 HD
HETATM   27  C   UNL     1      25.434  45.328  52.384  1.00  0.00     0.237 C 
HETATM   28  C   UNL     1      25.433  46.446  51.360  1.00  0.00     0.053 C 
BRANCH  25  29
HETATM   29  C   UNL     1      26.965  43.779  53.619  1.00  0.00     0.273 C 
BRANCH  29  30
HETATM   30  C   UNL     1      28.261  43.994  54.355  1.00  0.00    -0.033 A 
HETATM   31  C   UNL     1      29.279  43.027  54.306  1.00  0.00     0.009 A 
HETATM   32  C   UNL     1      30.459  43.204  55.030  1.00  0.00     0.001 A 
HETATM   33  C   UNL     1      30.639  44.352  55.798  1.00  0.00     0.000 A 
HETATM   34  C   UNL     1      29.645  45.327  55.839  1.00  0.00     0.001 A 
HETATM   35  C   UNL     1      28.461  45.151  55.121  1.00  0.00     0.009 A 
ENDBRANCH  29  30
ENDBRANCH  25  29
ENDBRANCH  20  22
ENDBRANCH   1  20
TORSDOF 10
ENDMDL
MODEL 10
REMARK VINA RESULT:      -8.3      1.563      2.045
REMARK  10 active torsions:
REMARK  status: ('A' for Active; 'I' for Inactive)
REMARK    1  A    between atoms: C_2  and  C_3 
REMARK    2  A    between atoms: C_3  and  C_4 
REMARK    3  A    between atoms: C_4  and  O_5 
REMARK    4  A    between atoms: O_5  and  C_6 
REMARK    5  A    between atoms: C_10  and  C_11 
REMARK       I    between atoms: C_11  and  N_12 
REMARK    6  A    between atoms: N_12  and  C_13 
REMARK    7  A    between atoms: C_13  and  N_14 
REMARK    8  A    between atoms: N_14  and  C_15 
REMARK    9  A    between atoms: N_18  and  C_20 
REMARK   10  A    between atoms: C_20  and  C_21 
ROOT
HETATM    1  C   UNL     1      25.421  42.350  50.514  1.00  0.00     0.174 C 
HETATM    2  S   UNL     1      25.517  41.068  49.443  1.00  0.00    -0.041 SA
ENDROOT
BRANCH   1   3
HETATM    3  N   UNL     1      24.745  43.461  50.111  1.00  0.00    -0.300 N 
HETATM    4  C   UNL     1      24.552  44.756  50.601  1.00  0.00     0.257 C 
HETATM    5  O   UNL     1      24.887  45.177  51.701  1.00  0.00    -0.267 OA
HETATM    6  H   UNL     1      24.175  43.239  49.301  1.00  0.00     0.171 HD
BRANCH   4   7
HETATM    7  C   UNL     1      23.769  45.664  49.721  1.00  0.00     0.033 A 
HETATM    8  C   UNL     1      23.978  47.044  49.695  1.00  0.00     0.039 A 
HETATM    9  C   UNL     1      23.200  47.845  48.848  1.00  0.00     0.045 A 
HETATM   10  C   UNL     1      22.204  47.285  48.030  1.00  0.00     0.086 A 
HETATM   11 BR   UNL     1      23.530  49.717  48.864  1.00  0.00    -0.048 Br
HETATM   12  C   UNL     1      21.994  45.904  48.080  1.00  0.00     0.039 A 
HETATM   13  C   UNL     1      22.768  45.101  48.922  1.00  0.00     0.020 A 
BRANCH  10  14
HETATM   14  O   UNL     1      21.504  48.141  47.222  1.00  0.00    -0.350 OA
BRANCH  14  15
HETATM   15  C   UNL     1      20.110  47.884  47.029  1.00  0.00     0.176 C 
BRANCH  15  16
HETATM   16  C   UNL     1      19.328  48.708  48.051  1.00  0.00     0.030 C 
BRANCH  16  17
HETATM   17  C   UNL     1      18.643  47.850  49.128  1.00  0.00    -0.021 C 
HETATM   18  C   UNL     1      17.158  47.686  48.801  1.00  0.00     0.009 C 
HETATM   19  C   UNL     1      18.800  48.449  50.527  1.00  0.00     0.009 C 
ENDBRANCH  16  17
ENDBRANCH  15  16
ENDBRANCH  14  15
ENDBRANCH  10  14
ENDBRANCH   4   7
ENDBRANCH   1   3
BRANCH   1  20
HETATM   20  N   UNL     1      26.047  42.196  51.695  1.00  0.00    -0.362 N 
HETATM   21  H   UNL     1      25.372  42.027  52.435  1.00  0.00     0.162 HD
BRANCH  20  22
HETATM   22  C   UNL     1      27.465  42.076  52.027  1.00  0.00     0.087 C 
HETATM   23  C   UNL     1      27.668  41.784  53.520  1.00  0.00     0.053 C 
HETATM   24  C   UNL     1      27.583  43.013  54.411  1.00  0.00     0.237 C 
HETATM   25  N   UNL     1      28.529  44.063  53.892  1.00  0.00    -0.067 N 
HETATM   26  H   UNL     1      29.462  43.634  53.832  1.00  0.00     0.280 HD
HETATM   27  C   UNL     1      28.136  44.495  52.509  1.00  0.00     0.237 C 
HETATM   28  C   UNL     1      28.251  43.311  51.570  1.00  0.00     0.053 C 
BRANCH  25  29
HETATM   29  C   UNL     1      28.700  45.238  54.833  1.00  0.00     0.273 C 
BRANCH  29  30
HETATM   30  C   UNL     1      29.709  44.967  55.917  1.00  0.00    -0.033 A 
HETATM   31  C   UNL     1      30.643  43.926  55.780  1.00  0.00     0.009 A 
HETATM   32  C   UNL     1      31.544  43.644  56.808  1.00  0.00     0.001 A 
HETATM   33  C   UNL     1      31.530  44.404  57.975  1.00  0.00     0.000 A 
HETATM   34  C   UNL     1      30.622  45.451  58.114  1.00  0.00     0.001 A 
HETATM   35  C   UNL     1      29.715  45.733  57.091  1.00  0.00     0.009 A 
ENDBRANCH  29  30
ENDBRANCH  25  29
ENDBRANCH  20  22
ENDBRANCH   1  20
TORSDOF 10
ENDMDL
