MODEL 1
REMARK VINA RESULT:      -7.7      0.000      0.000
REMARK  2 active torsions:
REMARK  status: ('A' for Active; 'I' for Inactive)
REMARK    1  A    between atoms: C_2  and  C_3 
REMARK       I    between atoms: C_3  and  N_4 
REMARK    2  A    between atoms: N_4  and  C_5 
ROOT
HETATM    1  C   UNL     1      25.023  46.860  51.378  1.00  0.00     0.174 A 
HETATM    2  S   UNL     1      25.661  45.300  51.168  1.00  0.00    -0.050 SA
HETATM    3  C   UNL     1      26.627  45.494  52.580  1.00  0.00     0.040 A 
HETATM    4  C   UNL     1      26.376  46.765  53.122  1.00  0.00     0.079 A 
HETATM    5  N   UNL     1      25.454  47.527  52.422  1.00  0.00    -0.223 NA
HETATM    6  C   UNL     1      27.538  44.590  53.159  1.00  0.00     0.061 A 
HETATM    7  C   UNL     1      28.178  45.032  54.300  1.00  0.00     0.106 A 
HETATM    8  C   UNL     1      27.947  46.269  54.846  1.00  0.00     0.107 A 
HETATM    9  O   UNL     1      28.690  46.491  55.965  1.00  0.00    -0.323 OA
HETATM   10  C   UNL     1      29.422  45.252  56.057  1.00  0.00     0.352 A 
HETATM   11  O   UNL     1      29.097  44.318  55.007  1.00  0.00    -0.323 OA
HETATM   12  C   UNL     1      27.054  47.167  54.294  1.00  0.00     0.073 A 
ENDROOT
BRANCH   1  13
HETATM   13  N   UNL     1      24.117  47.425  50.522  1.00  0.00    -0.301 N 
HETATM   14  C   UNL     1      24.357  48.301  49.488  1.00  0.00     0.264 C 
HETATM   15  O   UNL     1      25.465  48.702  49.147  1.00  0.00    -0.267 OA
HETATM   16  H   UNL     1      23.162  47.155  50.714  1.00  0.00     0.171 HD
BRANCH  14  17
HETATM   17  C   UNL     1      23.154  48.753  48.785  1.00  0.00     0.074 A 
HETATM   18  C   UNL     1      22.915  50.028  48.295  1.00  0.00     0.027 A 
HETATM   19  C   UNL     1      21.640  50.150  47.667  1.00  0.00     0.033 A 
HETATM   20  C   UNL     1      20.963  48.960  47.704  1.00  0.00     0.075 A 
HETATM   21  S   UNL     1      21.818  47.718  48.467  1.00  0.00    -0.072 SA
HETATM   22 CL   UNL     1      19.398  48.652  47.070  1.00  0.00    -0.076 Cl
ENDBRANCH  14  17
ENDBRANCH   1  13
TORSDOF 2
ENDMDL
MODEL 2
REMARK VINA RESULT:      -7.7      6.922      7.946
REMARK  2 active torsions:
REMARK  status: ('A' for Active; 'I' for Inactive)
REMARK    1  A    between atoms: C_2  and  C_3 
REMARK       I    between atoms: C_3  and  N_4 
REMARK    2  A    between atoms: N_4  and  C_5 
ROOT
HETATM    1  C   UNL     1      29.154  42.395  52.492  1.00  0.00     0.174 A 
HETATM    2  S   UNL     1      28.106  43.723  52.649  1.00  0.00    -0.050 SA
HETATM    3  C   UNL     1      28.886  44.178  54.115  1.00  0.00     0.040 A 
HETATM    4  C   UNL     1      29.918  43.262  54.374  1.00  0.00     0.079 A 
HETATM    5  N   UNL     1      30.056  42.255  53.433  1.00  0.00    -0.223 NA
HETATM    6  C   UNL     1      28.601  45.261  54.968  1.00  0.00     0.061 A 
HETATM    7  C   UNL     1      29.403  45.368  56.088  1.00  0.00     0.106 A 
HETATM    8  C   UNL     1      30.417  44.485  56.360  1.00  0.00     0.107 A 
HETATM    9  O   UNL     1      31.070  44.785  57.516  1.00  0.00    -0.323 OA
HETATM   10  C   UNL     1      30.346  45.955  57.945  1.00  0.00     0.352 A 
HETATM   11  O   UNL     1      29.290  46.336  57.040  1.00  0.00    -0.323 OA
HETATM   12  C   UNL     1      30.712  43.420  55.532  1.00  0.00     0.073 A 
ENDROOT
BRANCH   1  13
HETATM   13  N   UNL     1      29.083  41.498  51.461  1.00  0.00    -0.301 N 
HETATM   14  C   UNL     1      27.990  40.781  51.033  1.00  0.00     0.264 C 
HETATM   15  O   UNL     1      26.863  40.862  51.510  1.00  0.00    -0.267 OA
HETATM   16  H   UNL     1      29.967  41.359  50.990  1.00  0.00     0.171 HD
BRANCH  14  17
HETATM   17  C   UNL     1      28.261  39.868  49.919  1.00  0.00     0.074 A 
HETATM   18  C   UNL     1      29.039  38.721  49.964  1.00  0.00     0.027 A 
HETATM   19  C   UNL     1      29.115  38.055  48.706  1.00  0.00     0.033 A 
HETATM   20  C   UNL     1      28.390  38.722  47.755  1.00  0.00     0.075 A 
HETATM   21  S   UNL     1      27.630  40.115  48.339  1.00  0.00    -0.072 SA
HETATM   22 CL   UNL     1      28.205  38.279  46.107  1.00  0.00    -0.076 Cl
ENDBRANCH  14  17
ENDBRANCH   1  13
TORSDOF 2
ENDMDL
MODEL 3
REMARK VINA RESULT:      -7.7      1.121      1.326
REMARK  2 active torsions:
REMARK  status: ('A' for Active; 'I' for Inactive)
REMARK    1  A    between atoms: C_2  and  C_3 
REMARK       I    between atoms: C_3  and  N_4 
REMARK    2  A    between atoms: N_4  and  C_5 
ROOT
HETATM    1  C   UNL     1      24.730  46.894  50.706  1.00  0.00     0.174 A 
HETATM    2  S   UNL     1      25.441  45.548  49.953  1.00  0.00    -0.050 SA
HETATM    3  C   UNL     1      26.362  45.227  51.371  1.00  0.00     0.040 A 
HETATM    4  C   UNL     1      26.042  46.193  52.339  1.00  0.00     0.079 A 
HETATM    5  N   UNL     1      25.105  47.132  51.940  1.00  0.00    -0.223 NA
HETATM    6  C   UNL     1      27.297  44.201  51.605  1.00  0.00     0.061 A 
HETATM    7  C   UNL     1      27.889  44.202  52.853  1.00  0.00     0.106 A 
HETATM    8  C   UNL     1      27.590  45.135  53.813  1.00  0.00     0.107 A 
HETATM    9  O   UNL     1      28.295  44.943  54.962  1.00  0.00    -0.323 OA
HETATM   10  C   UNL     1      29.078  43.784  54.612  1.00  0.00     0.352 A 
HETATM   11  O   UNL     1      28.821  43.304  53.277  1.00  0.00    -0.323 OA
HETATM   12  C   UNL     1      26.672  46.146  53.602  1.00  0.00     0.073 A 
ENDROOT
BRANCH   1  13
HETATM   13  N   UNL     1      23.821  47.710  50.088  1.00  0.00    -0.301 N 
HETATM   14  C   UNL     1      24.064  48.846  49.351  1.00  0.00     0.264 C 
HETATM   15  O   UNL     1      25.176  49.300  49.101  1.00  0.00    -0.267 OA
HETATM   16  H   UNL     1      22.863  47.420  50.227  1.00  0.00     0.171 HD
BRANCH  14  17
HETATM   17  C   UNL     1      22.859  49.517  48.857  1.00  0.00     0.074 A 
HETATM   18  C   UNL     1      22.502  50.839  49.076  1.00  0.00     0.027 A 
HETATM   19  C   UNL     1      21.260  51.185  48.467  1.00  0.00     0.033 A 
HETATM   20  C   UNL     1      20.724  50.112  47.807  1.00  0.00     0.075 A 
HETATM   21  S   UNL     1      21.673  48.715  47.904  1.00  0.00    -0.072 SA
HETATM   22 CL   UNL     1      19.245  50.077  46.938  1.00  0.00    -0.076 Cl
ENDBRANCH  14  17
ENDBRANCH   1  13
TORSDOF 2
ENDMDL
MODEL 4
REMARK VINA RESULT:      -7.7      1.929      2.934
REMARK  2 active torsions:
REMARK  status: ('A' for Active; 'I' for Inactive)
REMARK    1  A    between atoms: C_2  and  C_3 
REMARK       I    between atoms: C_3  and  N_4 
REMARK    2  A    between atoms: N_4  and  C_5 
ROOT
HETATM    1  C   UNL     1      26.467  45.917  52.812  1.00  0.00     0.174 A 
HETATM    2  S   UNL     1      26.642  46.995  54.113  1.00  0.00    -0.050 SA
HETATM    3  C   UNL     1      27.911  46.026  54.758  1.00  0.00     0.040 A 
HETATM    4  C   UNL     1      28.114  44.931  53.904  1.00  0.00     0.079 A 
HETATM    5  N   UNL     1      27.281  44.890  52.797  1.00  0.00    -0.223 NA
HETATM    6  C   UNL     1      28.664  46.224  55.931  1.00  0.00     0.061 A 
HETATM    7  C   UNL     1      29.621  45.264  56.196  1.00  0.00     0.106 A 
HETATM    8  C   UNL     1      29.837  44.186  55.375  1.00  0.00     0.107 A 
HETATM    9  O   UNL     1      30.826  43.371  55.835  1.00  0.00    -0.323 OA
HETATM   10  C   UNL     1      31.204  44.058  57.046  1.00  0.00     0.352 A 
HETATM   11  O   UNL     1      30.449  45.264  57.278  1.00  0.00    -0.323 OA
HETATM   12  C   UNL     1      29.109  43.980  54.219  1.00  0.00     0.073 A 
ENDROOT
BRANCH   1  13
HETATM   13  N   UNL     1      25.534  46.075  51.823  1.00  0.00    -0.301 N 
HETATM   14  C   UNL     1      25.476  47.056  50.859  1.00  0.00     0.264 C 
HETATM   15  O   UNL     1      26.299  47.954  50.717  1.00  0.00    -0.267 OA
HETATM   16  H   UNL     1      24.803  45.377  51.846  1.00  0.00     0.171 HD
BRANCH  14  17
HETATM   17  C   UNL     1      24.316  46.963  49.969  1.00  0.00     0.074 A 
HETATM   18  C   UNL     1      23.726  45.799  49.500  1.00  0.00     0.027 A 
HETATM   19  C   UNL     1      22.616  46.049  48.640  1.00  0.00     0.033 A 
HETATM   20  C   UNL     1      22.407  47.394  48.492  1.00  0.00     0.075 A 
HETATM   21  S   UNL     1      23.503  48.349  49.355  1.00  0.00    -0.072 SA
HETATM   22 CL   UNL     1      21.185  48.143  47.547  1.00  0.00    -0.076 Cl
ENDBRANCH  14  17
ENDBRANCH   1  13
TORSDOF 2
ENDMDL
MODEL 5
REMARK VINA RESULT:      -7.5      2.521      3.340
REMARK  2 active torsions:
REMARK  status: ('A' for Active; 'I' for Inactive)
REMARK    1  A    between atoms: C_2  and  C_3 
REMARK       I    between atoms: C_3  and  N_4 
REMARK    2  A    between atoms: N_4  and  C_5 
ROOT
HETATM    1  C   UNL     1      27.058  44.672  52.519  1.00  0.00     0.174 A 
HETATM    2  S   UNL     1      28.029  43.288  52.358  1.00  0.00    -0.050 SA
HETATM    3  C   UNL     1      28.890  43.713  53.788  1.00  0.00     0.040 A 
HETATM    4  C   UNL     1      28.350  44.905  54.295  1.00  0.00     0.079 A 
HETATM    5  N   UNL     1      27.303  45.434  53.558  1.00  0.00    -0.223 NA
HETATM    6  C   UNL     1      29.961  43.042  54.407  1.00  0.00     0.061 A 
HETATM    7  C   UNL     1      30.456  43.633  55.553  1.00  0.00     0.106 A 
HETATM    8  C   UNL     1      29.943  44.798  56.066  1.00  0.00     0.107 A 
HETATM    9  O   UNL     1      30.588  45.196  57.197  1.00  0.00    -0.323 OA
HETATM   10  C   UNL     1      31.572  44.151  57.334  1.00  0.00     0.352 A 
HETATM   11  O   UNL     1      31.490  43.151  56.297  1.00  0.00    -0.323 OA
HETATM   12  C   UNL     1      28.890  45.467  55.473  1.00  0.00     0.073 A 
ENDROOT
BRANCH   1  13
HETATM   13  N   UNL     1      26.074  45.008  51.629  1.00  0.00    -0.301 N 
HETATM   14  C   UNL     1      26.211  45.372  50.309  1.00  0.00     0.264 C 
HETATM   15  O   UNL     1      27.274  45.424  49.699  1.00  0.00    -0.267 OA
HETATM   16  H   UNL     1      25.147  44.992  52.032  1.00  0.00     0.171 HD
BRANCH  14  17
HETATM   17  C   UNL     1      24.953  45.713  49.640  1.00  0.00     0.074 A 
HETATM   18  C   UNL     1      24.172  44.866  48.869  1.00  0.00     0.027 A 
HETATM   19  C   UNL     1      23.009  45.507  48.348  1.00  0.00     0.033 A 
HETATM   20  C   UNL     1      22.953  46.816  48.746  1.00  0.00     0.075 A 
HETATM   21  S   UNL     1      24.254  47.283  49.721  1.00  0.00    -0.072 SA
HETATM   22 CL   UNL     1      21.733  47.956  48.351  1.00  0.00    -0.076 Cl
ENDBRANCH  14  17
ENDBRANCH   1  13
TORSDOF 2
ENDMDL
MODEL 6
REMARK VINA RESULT:      -7.4      4.820      8.933
REMARK  2 active torsions:
REMARK  status: ('A' for Active; 'I' for Inactive)
REMARK    1  A    between atoms: C_2  and  C_3 
REMARK       I    between atoms: C_3  and  N_4 
REMARK    2  A    between atoms: N_4  and  C_5 
ROOT
HETATM    1  C   UNL     1      26.453  44.965  52.445  1.00  0.00     0.174 A 
HETATM    2  S   UNL     1      26.107  46.417  51.634  1.00  0.00    -0.050 SA
HETATM    3  C   UNL     1      24.890  45.622  50.710  1.00  0.00     0.040 A 
HETATM    4  C   UNL     1      24.835  44.277  51.108  1.00  0.00     0.079 A 
HETATM    5  N   UNL     1      25.733  43.924  52.102  1.00  0.00    -0.223 NA
HETATM    6  C   UNL     1      24.053  46.152  49.710  1.00  0.00     0.061 A 
HETATM    7  C   UNL     1      23.169  45.260  49.135  1.00  0.00     0.106 A 
HETATM    8  C   UNL     1      23.098  43.942  49.509  1.00  0.00     0.107 A 
HETATM    9  O   UNL     1      22.157  43.253  48.807  1.00  0.00    -0.323 OA
HETATM   10  C   UNL     1      21.648  44.288  47.942  1.00  0.00     0.352 A 
HETATM   11  O   UNL     1      22.281  45.567  48.149  1.00  0.00    -0.323 OA
HETATM   12  C   UNL     1      23.909  43.407  50.492  1.00  0.00     0.073 A 
ENDROOT
BRANCH   1  13
HETATM   13  N   UNL     1      27.427  44.850  53.400  1.00  0.00    -0.301 N 
HETATM   14  C   UNL     1      28.602  44.136  53.333  1.00  0.00     0.264 C 
HETATM   15  O   UNL     1      28.982  43.494  52.360  1.00  0.00    -0.267 OA
HETATM   16  H   UNL     1      27.215  45.351  54.252  1.00  0.00     0.171 HD
BRANCH  14  17
HETATM   17  C   UNL     1      29.413  44.187  54.552  1.00  0.00     0.074 A 
HETATM   18  C   UNL     1      30.393  43.283  54.929  1.00  0.00     0.027 A 
HETATM   19  C   UNL     1      30.994  43.608  56.181  1.00  0.00     0.033 A 
HETATM   20  C   UNL     1      30.446  44.749  56.704  1.00  0.00     0.075 A 
HETATM   21  S   UNL     1      29.240  45.426  55.732  1.00  0.00    -0.072 SA
HETATM   22 CL   UNL     1      30.865  45.500  58.189  1.00  0.00    -0.076 Cl
ENDBRANCH  14  17
ENDBRANCH   1  13
TORSDOF 2
ENDMDL
MODEL 7
REMARK VINA RESULT:      -7.3      4.208      8.528
REMARK  2 active torsions:
REMARK  status: ('A' for Active; 'I' for Inactive)
REMARK    1  A    between atoms: C_2  and  C_3 
REMARK       I    between atoms: C_3  and  N_4 
REMARK    2  A    between atoms: N_4  and  C_5 
ROOT
HETATM    1  C   UNL     1      25.706  45.527  51.633  1.00  0.00     0.174 A 
HETATM    2  S   UNL     1      24.761  44.222  51.095  1.00  0.00    -0.050 SA
HETATM    3  C   UNL     1      23.912  45.266  50.021  1.00  0.00     0.040 A 
HETATM    4  C   UNL     1      24.435  46.562  50.153  1.00  0.00     0.079 A 
HETATM    5  N   UNL     1      25.461  46.688  51.075  1.00  0.00    -0.223 NA
HETATM    6  C   UNL     1      22.863  44.958  49.134  1.00  0.00     0.061 A 
HETATM    7  C   UNL     1      22.373  46.017  48.396  1.00  0.00     0.106 A 
HETATM    8  C   UNL     1      22.869  47.291  48.508  1.00  0.00     0.107 A 
HETATM    9  O   UNL     1      22.232  48.172  47.688  1.00  0.00    -0.323 OA
HETATM   10  C   UNL     1      21.271  47.306  47.051  1.00  0.00     0.352 A 
HETATM   11  O   UNL     1      21.359  45.935  47.490  1.00  0.00    -0.323 OA
HETATM   12  C   UNL     1      23.900  47.610  49.371  1.00  0.00     0.073 A 
ENDROOT
BRANCH   1  13
HETATM   13  N   UNL     1      26.671  45.411  52.597  1.00  0.00    -0.301 N 
HETATM   14  C   UNL     1      26.607  45.806  53.913  1.00  0.00     0.264 C 
HETATM   15  O   UNL     1      25.629  46.316  54.449  1.00  0.00    -0.267 OA
HETATM   16  H   UNL     1      27.527  44.994  52.259  1.00  0.00     0.171 HD
BRANCH  14  17
HETATM   17  C   UNL     1      27.836  45.575  54.676  1.00  0.00     0.074 A 
HETATM   18  C   UNL     1      28.435  46.457  55.563  1.00  0.00     0.027 A 
HETATM   19  C   UNL     1      29.632  45.936  56.138  1.00  0.00     0.033 A 
HETATM   20  C   UNL     1      29.893  44.677  55.665  1.00  0.00     0.075 A 
HETATM   21  S   UNL     1      28.742  44.118  54.559  1.00  0.00    -0.072 SA
HETATM   22 CL   UNL     1      31.225  43.680  56.085  1.00  0.00    -0.076 Cl
ENDBRANCH  14  17
ENDBRANCH   1  13
TORSDOF 2
ENDMDL
MODEL 8
REMARK VINA RESULT:      -7.2      1.860      2.741
REMARK  2 active torsions:
REMARK  status: ('A' for Active; 'I' for Inactive)
REMARK    1  A    between atoms: C_2  and  C_3 
REMARK       I    between atoms: C_3  and  N_4 
REMARK    2  A    between atoms: N_4  and  C_5 
ROOT
HETATM    1  C   UNL     1      24.963  46.380  50.929  1.00  0.00     0.174 A 
HETATM    2  S   UNL     1      25.699  46.717  52.422  1.00  0.00    -0.050 SA
HETATM    3  C   UNL     1      26.344  45.122  52.476  1.00  0.00     0.040 A 
HETATM    4  C   UNL     1      25.944  44.439  51.316  1.00  0.00     0.079 A 
HETATM    5  N   UNL     1      25.160  45.177  50.445  1.00  0.00    -0.223 NA
HETATM    6  C   UNL     1      27.140  44.524  53.471  1.00  0.00     0.061 A 
HETATM    7  C   UNL     1      27.505  43.212  53.238  1.00  0.00     0.106 A 
HETATM    8  C   UNL     1      27.126  42.527  52.112  1.00  0.00     0.107 A 
HETATM    9  O   UNL     1      27.597  41.250  52.097  1.00  0.00    -0.323 OA
HETATM   10  C   UNL     1      28.312  41.207  53.348  1.00  0.00     0.352 A 
HETATM   11  O   UNL     1      28.263  42.452  54.076  1.00  0.00    -0.323 OA
HETATM   12  C   UNL     1      26.348  43.100  51.124  1.00  0.00     0.073 A 
ENDROOT
BRANCH   1  13
HETATM   13  N   UNL     1      24.194  47.284  50.247  1.00  0.00    -0.301 N 
HETATM   14  C   UNL     1      24.613  48.321  49.446  1.00  0.00     0.264 C 
HETATM   15  O   UNL     1      25.783  48.585  49.189  1.00  0.00    -0.267 OA
HETATM   16  H   UNL     1      23.202  47.152  50.386  1.00  0.00     0.171 HD
BRANCH  14  17
HETATM   17  C   UNL     1      23.529  49.135  48.891  1.00  0.00     0.074 A 
HETATM   18  C   UNL     1      23.532  50.512  48.726  1.00  0.00     0.027 A 
HETATM   19  C   UNL     1      22.316  51.005  48.166  1.00  0.00     0.033 A 
HETATM   20  C   UNL     1      21.439  49.981  47.926  1.00  0.00     0.075 A 
HETATM   21  S   UNL     1      22.040  48.460  48.356  1.00  0.00    -0.072 SA
HETATM   22 CL   UNL     1      19.862  50.117  47.262  1.00  0.00    -0.076 Cl
ENDBRANCH  14  17
ENDBRANCH   1  13
TORSDOF 2
ENDMDL
MODEL 9
REMARK VINA RESULT:      -7.1      3.922      4.738
REMARK  2 active torsions:
REMARK  status: ('A' for Active; 'I' for Inactive)
REMARK    1  A    between atoms: C_2  and  C_3 
REMARK       I    between atoms: C_3  and  N_4 
REMARK    2  A    between atoms: N_4  and  C_5 
ROOT
HETATM    1  C   UNL     1      23.349  46.990  49.345  1.00  0.00     0.174 A 
HETATM    2  S   UNL     1      24.920  47.231  49.943  1.00  0.00    -0.050 SA
HETATM    3  C   UNL     1      25.301  45.580  49.638  1.00  0.00     0.040 A 
HETATM    4  C   UNL     1      24.173  44.958  49.081  1.00  0.00     0.079 A 
HETATM    5  N   UNL     1      23.071  45.781  48.919  1.00  0.00    -0.223 NA
HETATM    6  C   UNL     1      26.506  44.892  49.877  1.00  0.00     0.061 A 
HETATM    7  C   UNL     1      26.511  43.555  49.531  1.00  0.00     0.106 A 
HETATM    8  C   UNL     1      25.420  42.928  48.985  1.00  0.00     0.107 A 
HETATM    9  O   UNL     1      25.653  41.611  48.727  1.00  0.00    -0.323 OA
HETATM   10  C   UNL     1      27.016  41.480  49.180  1.00  0.00     0.352 A 
HETATM   11  O   UNL     1      27.569  42.712  49.686  1.00  0.00    -0.323 OA
HETATM   12  C   UNL     1      24.232  43.588  48.740  1.00  0.00     0.073 A 
ENDROOT
BRANCH   1  13
HETATM   13  N   UNL     1      22.399  47.975  49.304  1.00  0.00    -0.301 N 
HETATM   14  C   UNL     1      22.318  49.040  48.437  1.00  0.00     0.264 C 
HETATM   15  O   UNL     1      23.098  49.261  47.517  1.00  0.00    -0.267 OA
HETATM   16  H   UNL     1      21.696  47.884  50.025  1.00  0.00     0.171 HD
BRANCH  14  17
HETATM   17  C   UNL     1      21.192  49.943  48.690  1.00  0.00     0.074 A 
HETATM   18  C   UNL     1      21.135  51.295  48.389  1.00  0.00     0.027 A 
HETATM   19  C   UNL     1      19.899  51.895  48.771  1.00  0.00     0.033 A 
HETATM   20  C   UNL     1      19.065  50.973  49.346  1.00  0.00     0.075 A 
HETATM   21  S   UNL     1      19.731  49.421  49.433  1.00  0.00    -0.072 SA
HETATM   22 CL   UNL     1      17.485  51.257  49.952  1.00  0.00    -0.076 Cl
ENDBRANCH  14  17
ENDBRANCH   1  13
TORSDOF 2
ENDMDL
MODEL 10
REMARK VINA RESULT:      -7.0      5.013      5.333
REMARK  2 active torsions:
REMARK  status: ('A' for Active; 'I' for Inactive)
REMARK    1  A    between atoms: C_2  and  C_3 
REMARK       I    between atoms: C_3  and  N_4 
REMARK    2  A    between atoms: N_4  and  C_5 
ROOT
HETATM    1  C   UNL     1      26.986  42.914  52.297  1.00  0.00     0.174 A 
HETATM    2  S   UNL     1      28.513  42.215  52.551  1.00  0.00    -0.050 SA
HETATM    3  C   UNL     1      28.828  43.338  53.818  1.00  0.00     0.040 A 
HETATM    4  C   UNL     1      27.711  44.176  53.958  1.00  0.00     0.079 A 
HETATM    5  N   UNL     1      26.669  43.914  53.083  1.00  0.00    -0.223 NA
HETATM    6  C   UNL     1      29.977  43.465  54.620  1.00  0.00     0.061 A 
HETATM    7  C   UNL     1      29.941  44.476  55.561  1.00  0.00     0.106 A 
HETATM    8  C   UNL     1      28.860  45.305  55.716  1.00  0.00     0.107 A 
HETATM    9  O   UNL     1      29.049  46.227  56.700  1.00  0.00    -0.323 OA
HETATM   10  C   UNL     1      30.378  45.886  57.143  1.00  0.00     0.352 A 
HETATM   11  O   UNL     1      30.949  44.771  56.430  1.00  0.00    -0.323 OA
HETATM   12  C   UNL     1      27.723  45.192  54.940  1.00  0.00     0.073 A 
ENDROOT
BRANCH   1  13
HETATM   13  N   UNL     1      26.115  42.488  51.331  1.00  0.00    -0.301 N 
HETATM   14  C   UNL     1      26.118  42.796  49.990  1.00  0.00     0.264 C 
HETATM   15  O   UNL     1      26.950  43.503  49.431  1.00  0.00    -0.267 OA
HETATM   16  H   UNL     1      25.383  41.889  51.687  1.00  0.00     0.171 HD
BRANCH  14  17
HETATM   17  C   UNL     1      25.013  42.205  49.230  1.00  0.00     0.074 A 
HETATM   18  C   UNL     1      23.698  42.643  49.210  1.00  0.00     0.027 A 
HETATM   19  C   UNL     1      22.861  41.845  48.376  1.00  0.00     0.033 A 
HETATM   20  C   UNL     1      23.576  40.832  47.793  1.00  0.00     0.075 A 
HETATM   21  S   UNL     1      25.211  40.825  48.224  1.00  0.00    -0.072 SA
HETATM   22 CL   UNL     1      22.973  39.637  46.719  1.00  0.00    -0.076 Cl
ENDBRANCH  14  17
ENDBRANCH   1  13
TORSDOF 2
ENDMDL
