MODEL 1
REMARK VINA RESULT:      -9.5      0.000      0.000
REMARK  8 active torsions:
REMARK  status: ('A' for Active; 'I' for Inactive)
REMARK    1  A    between atoms: C_5  and  S_6 
REMARK    2  A    between atoms: S_6  and  C_7 
REMARK    3  A    between atoms: C_7  and  C_8 
REMARK       I    between atoms: C_8  and  N_9 
REMARK    4  A    between atoms: N_9  and  N_10 
REMARK       I    between atoms: N_10  and  C_11 
REMARK    5  A    between atoms: C_11  and  C_12 
REMARK    6  A    between atoms: C_15  and  O_16 
REMARK    7  A    between atoms: C_23  and  C_24 
REMARK    8  A    between atoms: C_24  and  C_25 
ROOT
HETATM    1  C   UNL     1      25.302  47.870  49.533  1.00  0.00     0.187 C 
ENDROOT
BRANCH   1   2
HETATM    2  S   UNL     1      24.804  46.163  49.877  1.00  0.00    -0.083 SA
BRANCH   2   3
HETATM    3  C   UNL     1      25.215  46.014  51.546  1.00  0.00     0.167 A 
HETATM    4  N   UNL     1      25.547  47.097  52.303  1.00  0.00    -0.337 N 
HETATM    5  C   UNL     1      25.874  46.647  53.558  1.00  0.00     0.032 A 
HETATM    6  H   UNL     1      25.509  48.061  51.992  1.00  0.00     0.168 HD
HETATM    7  C   UNL     1      26.281  47.552  54.652  1.00  0.00     0.070 C 
HETATM    8  C   UNL     1      25.735  45.268  53.484  1.00  0.00     0.063 A 
HETATM    9  N   UNL     1      25.295  44.899  52.225  1.00  0.00    -0.227 NA
BRANCH   8  10
HETATM   10  C   UNL     1      25.957  44.241  54.541  1.00  0.00     0.100 C 
BRANCH  10  11
HETATM   11  C   UNL     1      27.416  43.860  54.464  1.00  0.00    -0.052 A 
HETATM   12  C   UNL     1      28.391  44.594  55.155  1.00  0.00     0.007 A 
HETATM   13  C   UNL     1      29.738  44.234  55.078  1.00  0.00     0.001 A 
HETATM   14  C   UNL     1      30.125  43.135  54.312  1.00  0.00     0.000 A 
HETATM   15  C   UNL     1      29.168  42.398  53.619  1.00  0.00     0.001 A 
HETATM   16  C   UNL     1      27.822  42.758  53.693  1.00  0.00     0.007 A 
ENDBRANCH  10  11
ENDBRANCH   8  10
ENDBRANCH   2   3
ENDBRANCH   1   2
BRANCH   1  17
HETATM   17  C   UNL     1      24.106  48.676  49.067  1.00  0.00     0.245 C 
HETATM   18  N   UNL     1      23.026  48.666  49.929  1.00  0.00    -0.267 N 
HETATM   19  H   UNL     1      22.888  47.894  50.585  1.00  0.00     0.190 HD
HETATM   20  O   UNL     1      24.079  49.289  47.996  1.00  0.00    -0.271 OA
BRANCH  18  21
HETATM   21  N   UNL     1      21.835  49.247  49.449  1.00  0.00    -0.263 N 
HETATM   22  C   UNL     1      21.503  50.499  49.935  1.00  0.00     0.270 C 
HETATM   23  O   UNL     1      22.273  51.163  50.621  1.00  0.00    -0.266 OA
HETATM   24  H   UNL     1      21.114  48.583  49.173  1.00  0.00     0.190 HD
BRANCH  22  25
HETATM   25  C   UNL     1      20.131  50.984  49.618  1.00  0.00     0.033 A 
HETATM   26  C   UNL     1      19.979  51.960  48.627  1.00  0.00     0.020 A 
HETATM   27  C   UNL     1      18.707  52.444  48.310  1.00  0.00     0.038 A 
HETATM   28  C   UNL     1      17.574  51.959  48.967  1.00  0.00     0.068 A 
HETATM   29  C   UNL     1      17.722  50.975  49.945  1.00  0.00     0.038 A 
HETATM   30  C   UNL     1      18.994  50.485  50.268  1.00  0.00     0.020 A 
BRANCH  28  31
HETATM   31  O   UNL     1      16.395  52.518  48.563  1.00  0.00    -0.356 OA
HETATM   32  C   UNL     1      15.298  52.440  49.467  1.00  0.00     0.210 C 
ENDBRANCH  28  31
ENDBRANCH  22  25
ENDBRANCH  18  21
ENDBRANCH   1  17
TORSDOF 8
ENDMDL
MODEL 2
REMARK VINA RESULT:      -9.1      1.405      1.955
REMARK  8 active torsions:
REMARK  status: ('A' for Active; 'I' for Inactive)
REMARK    1  A    between atoms: C_5  and  S_6 
REMARK    2  A    between atoms: S_6  and  C_7 
REMARK    3  A    between atoms: C_7  and  C_8 
REMARK       I    between atoms: C_8  and  N_9 
REMARK    4  A    between atoms: N_9  and  N_10 
REMARK       I    between atoms: N_10  and  C_11 
REMARK    5  A    between atoms: C_11  and  C_12 
REMARK    6  A    between atoms: C_15  and  O_16 
REMARK    7  A    between atoms: C_23  and  C_24 
REMARK    8  A    between atoms: C_24  and  C_25 
ROOT
HETATM    1  C   UNL     1      24.405  45.673  49.683  1.00  0.00     0.187 C 
ENDROOT
BRANCH   1   2
HETATM    2  S   UNL     1      25.423  46.672  50.799  1.00  0.00    -0.083 SA
BRANCH   2   3
HETATM    3  C   UNL     1      25.979  45.481  51.916  1.00  0.00     0.167 A 
HETATM    4  N   UNL     1      25.263  45.148  53.026  1.00  0.00    -0.337 N 
HETATM    5  C   UNL     1      25.991  44.224  53.734  1.00  0.00     0.032 A 
HETATM    6  H   UNL     1      24.338  45.495  53.250  1.00  0.00     0.168 HD
HETATM    7  C   UNL     1      25.516  43.630  55.000  1.00  0.00     0.070 C 
HETATM    8  C   UNL     1      27.156  44.057  52.998  1.00  0.00     0.063 A 
HETATM    9  N   UNL     1      27.113  44.831  51.852  1.00  0.00    -0.227 NA
BRANCH   8  10
HETATM   10  C   UNL     1      28.327  43.177  53.275  1.00  0.00     0.100 C 
BRANCH  10  11
HETATM   11  C   UNL     1      29.118  43.853  54.369  1.00  0.00    -0.052 A 
HETATM   12  C   UNL     1      28.783  45.142  54.809  1.00  0.00     0.007 A 
HETATM   13  C   UNL     1      29.519  45.760  55.822  1.00  0.00     0.001 A 
HETATM   14  C   UNL     1      30.597  45.096  56.408  1.00  0.00     0.000 A 
HETATM   15  C   UNL     1      30.942  43.817  55.979  1.00  0.00     0.001 A 
HETATM   16  C   UNL     1      30.208  43.199  54.965  1.00  0.00     0.007 A 
ENDBRANCH  10  11
ENDBRANCH   8  10
ENDBRANCH   2   3
ENDBRANCH   1   2
BRANCH   1  17
HETATM   17  C   UNL     1      23.237  46.493  49.173  1.00  0.00     0.245 C 
HETATM   18  N   UNL     1      23.122  47.753  49.730  1.00  0.00    -0.267 N 
HETATM   19  H   UNL     1      23.512  47.953  50.654  1.00  0.00     0.190 HD
HETATM   20  O   UNL     1      22.435  46.078  48.332  1.00  0.00    -0.271 OA
BRANCH  18  21
HETATM   21  N   UNL     1      21.951  48.472  49.420  1.00  0.00    -0.263 N 
HETATM   22  C   UNL     1      22.005  49.849  49.536  1.00  0.00     0.270 C 
HETATM   23  O   UNL     1      23.056  50.450  49.734  1.00  0.00    -0.266 OA
HETATM   24  H   UNL     1      21.081  47.966  49.580  1.00  0.00     0.190 HD
BRANCH  22  25
HETATM   25  C   UNL     1      20.703  50.568  49.453  1.00  0.00     0.033 A 
HETATM   26  C   UNL     1      20.579  51.623  48.544  1.00  0.00     0.020 A 
HETATM   27  C   UNL     1      19.375  52.325  48.446  1.00  0.00     0.038 A 
HETATM   28  C   UNL     1      18.280  51.981  49.243  1.00  0.00     0.068 A 
HETATM   29  C   UNL     1      18.397  50.918  50.139  1.00  0.00     0.038 A 
HETATM   30  C   UNL     1      19.602  50.210  50.243  1.00  0.00     0.020 A 
BRANCH  28  31
HETATM   31  O   UNL     1      17.166  52.748  49.048  1.00  0.00    -0.356 OA
HETATM   32  C   UNL     1      16.068  52.527  49.924  1.00  0.00     0.210 C 
ENDBRANCH  28  31
ENDBRANCH  22  25
ENDBRANCH  18  21
ENDBRANCH   1  17
TORSDOF 8
ENDMDL
MODEL 3
REMARK VINA RESULT:      -9.1      1.336      1.681
REMARK  8 active torsions:
REMARK  status: ('A' for Active; 'I' for Inactive)
REMARK    1  A    between atoms: C_5  and  S_6 
REMARK    2  A    between atoms: S_6  and  C_7 
REMARK    3  A    between atoms: C_7  and  C_8 
REMARK       I    between atoms: C_8  and  N_9 
REMARK    4  A    between atoms: N_9  and  N_10 
REMARK       I    between atoms: N_10  and  C_11 
REMARK    5  A    between atoms: C_11  and  C_12 
REMARK    6  A    between atoms: C_15  and  O_16 
REMARK    7  A    between atoms: C_23  and  C_24 
REMARK    8  A    between atoms: C_24  and  C_25 
ROOT
HETATM    1  C   UNL     1      24.042  45.769  48.971  1.00  0.00     0.187 C 
ENDROOT
BRANCH   1   2
HETATM    2  S   UNL     1      23.758  44.288  49.973  1.00  0.00    -0.083 SA
BRANCH   2   3
HETATM    3  C   UNL     1      24.504  44.733  51.464  1.00  0.00     0.167 A 
HETATM    4  N   UNL     1      24.978  45.991  51.682  1.00  0.00    -0.337 N 
HETATM    5  C   UNL     1      25.559  46.011  52.926  1.00  0.00     0.032 A 
HETATM    6  H   UNL     1      24.872  46.773  51.047  1.00  0.00     0.168 HD
HETATM    7  C   UNL     1      26.177  47.223  53.502  1.00  0.00     0.070 C 
HETATM    8  C   UNL     1      25.415  44.715  53.401  1.00  0.00     0.063 A 
HETATM    9  N   UNL     1      24.728  43.942  52.483  1.00  0.00    -0.227 NA
BRANCH   8  10
HETATM   10  C   UNL     1      25.855  44.134  54.702  1.00  0.00     0.100 C 
BRANCH  10  11
HETATM   11  C   UNL     1      27.315  43.786  54.540  1.00  0.00    -0.052 A 
HETATM   12  C   UNL     1      28.318  44.647  55.007  1.00  0.00     0.007 A 
HETATM   13  C   UNL     1      29.666  44.317  54.853  1.00  0.00     0.001 A 
HETATM   14  C   UNL     1      30.026  43.120  54.233  1.00  0.00     0.000 A 
HETATM   15  C   UNL     1      29.040  42.257  53.763  1.00  0.00     0.001 A 
HETATM   16  C   UNL     1      27.693  42.586  53.914  1.00  0.00     0.007 A 
ENDBRANCH  10  11
ENDBRANCH   8  10
ENDBRANCH   2   3
ENDBRANCH   1   2
BRANCH   1  17
HETATM   17  C   UNL     1      22.761  46.572  48.858  1.00  0.00     0.245 C 
HETATM   18  N   UNL     1      22.802  47.819  49.450  1.00  0.00    -0.267 N 
HETATM   19  H   UNL     1      23.451  48.013  50.216  1.00  0.00     0.190 HD
HETATM   20  O   UNL     1      21.748  46.152  48.292  1.00  0.00    -0.271 OA
BRANCH  18  21
HETATM   21  N   UNL     1      21.580  48.517  49.527  1.00  0.00    -0.263 N 
HETATM   22  C   UNL     1      21.423  49.610  48.694  1.00  0.00     0.270 C 
HETATM   23  O   UNL     1      22.225  49.879  47.805  1.00  0.00    -0.266 OA
HETATM   24  H   UNL     1      21.120  48.479  50.435  1.00  0.00     0.190 HD
BRANCH  22  25
HETATM   25  C   UNL     1      20.244  50.479  48.964  1.00  0.00     0.033 A 
HETATM   26  C   UNL     1      19.273  50.028  49.863  1.00  0.00     0.020 A 
HETATM   27  C   UNL     1      18.150  50.814  50.134  1.00  0.00     0.038 A 
HETATM   28  C   UNL     1      17.984  52.058  49.520  1.00  0.00     0.068 A 
HETATM   29  C   UNL     1      18.959  52.517  48.634  1.00  0.00     0.038 A 
HETATM   30  C   UNL     1      20.088  51.734  48.359  1.00  0.00     0.020 A 
BRANCH  28  31
HETATM   31  O   UNL     1      16.842  52.721  49.871  1.00  0.00    -0.356 OA
HETATM   32  C   UNL     1      15.607  52.143  49.465  1.00  0.00     0.210 C 
ENDBRANCH  28  31
ENDBRANCH  22  25
ENDBRANCH  18  21
ENDBRANCH   1  17
TORSDOF 8
ENDMDL
MODEL 4
REMARK VINA RESULT:      -9.0      3.546     10.852
REMARK  8 active torsions:
REMARK  status: ('A' for Active; 'I' for Inactive)
REMARK    1  A    between atoms: C_5  and  S_6 
REMARK    2  A    between atoms: S_6  and  C_7 
REMARK    3  A    between atoms: C_7  and  C_8 
REMARK       I    between atoms: C_8  and  N_9 
REMARK    4  A    between atoms: N_9  and  N_10 
REMARK       I    between atoms: N_10  and  C_11 
REMARK    5  A    between atoms: C_11  and  C_12 
REMARK    6  A    between atoms: C_15  and  O_16 
REMARK    7  A    between atoms: C_23  and  C_24 
REMARK    8  A    between atoms: C_24  and  C_25 
ROOT
HETATM    1  C   UNL     1      25.152  44.759  49.176  1.00  0.00     0.187 C 
ENDROOT
BRANCH   1   2
HETATM    2  S   UNL     1      24.004  45.866  50.033  1.00  0.00    -0.083 SA
BRANCH   2   3
HETATM    3  C   UNL     1      24.441  47.397  49.367  1.00  0.00     0.167 A 
HETATM    4  N   UNL     1      25.718  47.869  49.429  1.00  0.00    -0.337 N 
HETATM    5  C   UNL     1      25.729  49.122  48.869  1.00  0.00     0.032 A 
HETATM    6  H   UNL     1      26.514  47.354  49.786  1.00  0.00     0.168 HD
HETATM    7  C   UNL     1      26.956  49.939  48.759  1.00  0.00     0.070 C 
HETATM    8  C   UNL     1      24.411  49.356  48.504  1.00  0.00     0.063 A 
HETATM    9  N   UNL     1      23.630  48.252  48.798  1.00  0.00    -0.227 NA
BRANCH   8  10
HETATM   10  C   UNL     1      23.813  50.555  47.850  1.00  0.00     0.100 C 
BRANCH  10  11
HETATM   11  C   UNL     1      22.473  50.775  48.510  1.00  0.00    -0.052 A 
HETATM   12  C   UNL     1      21.292  50.801  47.754  1.00  0.00     0.007 A 
HETATM   13  C   UNL     1      20.057  51.005  48.374  1.00  0.00     0.001 A 
HETATM   14  C   UNL     1      19.989  51.183  49.755  1.00  0.00     0.000 A 
HETATM   15  C   UNL     1      21.154  51.162  50.518  1.00  0.00     0.001 A 
HETATM   16  C   UNL     1      22.389  50.960  49.900  1.00  0.00     0.007 A 
ENDBRANCH  10  11
ENDBRANCH   8  10
ENDBRANCH   2   3
ENDBRANCH   1   2
BRANCH   1  17
HETATM   17  C   UNL     1      26.166  44.204  50.156  1.00  0.00     0.245 C 
HETATM   18  N   UNL     1      25.730  44.127  51.465  1.00  0.00    -0.267 N 
HETATM   19  H   UNL     1      24.985  44.740  51.804  1.00  0.00     0.190 HD
HETATM   20  O   UNL     1      27.303  43.854  49.828  1.00  0.00    -0.271 OA
BRANCH  18  21
HETATM   21  N   UNL     1      26.699  43.791  52.431  1.00  0.00    -0.263 N 
HETATM   22  C   UNL     1      27.173  44.814  53.233  1.00  0.00     0.270 C 
HETATM   23  O   UNL     1      26.669  45.933  53.236  1.00  0.00    -0.266 OA
HETATM   24  H   UNL     1      27.290  42.998  52.190  1.00  0.00     0.190 HD
BRANCH  22  25
HETATM   25  C   UNL     1      28.366  44.498  54.066  1.00  0.00     0.033 A 
HETATM   26  C   UNL     1      28.642  45.307  55.173  1.00  0.00     0.020 A 
HETATM   27  C   UNL     1      29.758  45.045  55.972  1.00  0.00     0.038 A 
HETATM   28  C   UNL     1      30.606  43.972  55.683  1.00  0.00     0.068 A 
HETATM   29  C   UNL     1      30.324  43.155  54.588  1.00  0.00     0.038 A 
HETATM   30  C   UNL     1      29.206  43.413  53.783  1.00  0.00     0.020 A 
BRANCH  28  31
HETATM   31  O   UNL     1      31.660  43.830  56.542  1.00  0.00    -0.356 OA
HETATM   32  C   UNL     1      31.475  44.291  57.875  1.00  0.00     0.210 C 
ENDBRANCH  28  31
ENDBRANCH  22  25
ENDBRANCH  18  21
ENDBRANCH   1  17
TORSDOF 8
ENDMDL
MODEL 5
REMARK VINA RESULT:      -8.9      1.478      2.426
REMARK  8 active torsions:
REMARK  status: ('A' for Active; 'I' for Inactive)
REMARK    1  A    between atoms: C_5  and  S_6 
REMARK    2  A    between atoms: S_6  and  C_7 
REMARK    3  A    between atoms: C_7  and  C_8 
REMARK       I    between atoms: C_8  and  N_9 
REMARK    4  A    between atoms: N_9  and  N_10 
REMARK       I    between atoms: N_10  and  C_11 
REMARK    5  A    between atoms: C_11  and  C_12 
REMARK    6  A    between atoms: C_15  and  O_16 
REMARK    7  A    between atoms: C_23  and  C_24 
REMARK    8  A    between atoms: C_24  and  C_25 
ROOT
HETATM    1  C   UNL     1      24.300  45.592  49.417  1.00  0.00     0.187 C 
ENDROOT
BRANCH   1   2
HETATM    2  S   UNL     1      25.436  46.555  50.448  1.00  0.00    -0.083 SA
BRANCH   2   3
HETATM    3  C   UNL     1      26.205  45.313  51.366  1.00  0.00     0.167 A 
HETATM    4  N   UNL     1      26.946  44.335  50.772  1.00  0.00    -0.337 N 
HETATM    5  C   UNL     1      27.370  43.476  51.755  1.00  0.00     0.032 A 
HETATM    6  H   UNL     1      27.171  44.291  49.786  1.00  0.00     0.168 HD
HETATM    7  C   UNL     1      28.209  42.292  51.475  1.00  0.00     0.070 C 
HETATM    8  C   UNL     1      26.831  43.987  52.926  1.00  0.00     0.063 A 
HETATM    9  N   UNL     1      26.130  45.151  52.663  1.00  0.00    -0.227 NA
BRANCH   8  10
HETATM   10  C   UNL     1      26.950  43.475  54.321  1.00  0.00     0.100 C 
BRANCH  10  11
HETATM   11  C   UNL     1      28.302  43.920  54.824  1.00  0.00    -0.052 A 
HETATM   12  C   UNL     1      29.413  43.066  54.757  1.00  0.00     0.007 A 
HETATM   13  C   UNL     1      30.660  43.486  55.223  1.00  0.00     0.001 A 
HETATM   14  C   UNL     1      30.812  44.765  55.760  1.00  0.00     0.000 A 
HETATM   15  C   UNL     1      29.717  45.622  55.835  1.00  0.00     0.001 A 
HETATM   16  C   UNL     1      28.469  45.203  55.371  1.00  0.00     0.007 A 
ENDBRANCH  10  11
ENDBRANCH   8  10
ENDBRANCH   2   3
ENDBRANCH   1   2
BRANCH   1  17
HETATM   17  C   UNL     1      23.168  46.473  48.930  1.00  0.00     0.245 C 
HETATM   18  N   UNL     1      23.036  47.675  49.599  1.00  0.00    -0.267 N 
HETATM   19  H   UNL     1      23.379  47.780  50.557  1.00  0.00     0.190 HD
HETATM   20  O   UNL     1      22.406  46.151  48.014  1.00  0.00    -0.271 OA
BRANCH  18  21
HETATM   21  N   UNL     1      21.888  48.436  49.301  1.00  0.00    -0.263 N 
HETATM   22  C   UNL     1      21.971  49.804  49.490  1.00  0.00     0.270 C 
HETATM   23  O   UNL     1      23.030  50.370  49.743  1.00  0.00    -0.266 OA
HETATM   24  H   UNL     1      21.004  47.944  49.415  1.00  0.00     0.190 HD
BRANCH  22  25
HETATM   25  C   UNL     1      20.688  50.557  49.416  1.00  0.00     0.033 A 
HETATM   26  C   UNL     1      19.631  50.160  50.241  1.00  0.00     0.020 A 
HETATM   27  C   UNL     1      18.411  50.839  50.191  1.00  0.00     0.038 A 
HETATM   28  C   UNL     1      18.231  51.923  49.328  1.00  0.00     0.068 A 
HETATM   29  C   UNL     1      19.289  52.330  48.514  1.00  0.00     0.038 A 
HETATM   30  C   UNL     1      20.516  51.654  48.560  1.00  0.00     0.020 A 
BRANCH  28  31
HETATM   31  O   UNL     1      16.991  52.494  49.377  1.00  0.00    -0.356 OA
HETATM   32  C   UNL     1      15.905  51.728  48.869  1.00  0.00     0.210 C 
ENDBRANCH  28  31
ENDBRANCH  22  25
ENDBRANCH  18  21
ENDBRANCH   1  17
TORSDOF 8
ENDMDL
MODEL 6
REMARK VINA RESULT:      -8.6      3.260     11.535
REMARK  8 active torsions:
REMARK  status: ('A' for Active; 'I' for Inactive)
REMARK    1  A    between atoms: C_5  and  S_6 
REMARK    2  A    between atoms: S_6  and  C_7 
REMARK    3  A    between atoms: C_7  and  C_8 
REMARK       I    between atoms: C_8  and  N_9 
REMARK    4  A    between atoms: N_9  and  N_10 
REMARK       I    between atoms: N_10  and  C_11 
REMARK    5  A    between atoms: C_11  and  C_12 
REMARK    6  A    between atoms: C_15  and  O_16 
REMARK    7  A    between atoms: C_23  and  C_24 
REMARK    8  A    between atoms: C_24  and  C_25 
ROOT
HETATM    1  C   UNL     1      24.182  47.147  50.020  1.00  0.00     0.187 C 
ENDROOT
BRANCH   1   2
HETATM    2  S   UNL     1      24.110  48.705  49.100  1.00  0.00    -0.083 SA
BRANCH   2   3
HETATM    3  C   UNL     1      22.424  48.821  48.751  1.00  0.00     0.167 A 
HETATM    4  N   UNL     1      21.514  47.982  49.319  1.00  0.00    -0.337 N 
HETATM    5  C   UNL     1      20.280  48.289  48.801  1.00  0.00     0.032 A 
HETATM    6  H   UNL     1      21.721  47.290  50.030  1.00  0.00     0.168 HD
HETATM    7  C   UNL     1      19.047  47.578  49.198  1.00  0.00     0.070 C 
HETATM    8  C   UNL     1      20.522  49.319  47.905  1.00  0.00     0.063 A 
HETATM    9  N   UNL     1      21.864  49.655  47.912  1.00  0.00    -0.227 NA
BRANCH   8  10
HETATM   10  C   UNL     1      19.560  50.061  47.040  1.00  0.00     0.100 C 
BRANCH  10  11
HETATM   11  C   UNL     1      18.629  50.796  47.972  1.00  0.00    -0.052 A 
HETATM   12  C   UNL     1      19.115  51.765  48.862  1.00  0.00     0.007 A 
HETATM   13  C   UNL     1      18.246  52.441  49.721  1.00  0.00     0.001 A 
HETATM   14  C   UNL     1      16.881  52.157  49.699  1.00  0.00     0.000 A 
HETATM   15  C   UNL     1      16.385  51.196  48.823  1.00  0.00     0.001 A 
HETATM   16  C   UNL     1      17.252  50.518  47.965  1.00  0.00     0.007 A 
ENDBRANCH  10  11
ENDBRANCH   8  10
ENDBRANCH   2   3
ENDBRANCH   1   2
BRANCH   1  17
HETATM   17  C   UNL     1      25.498  47.046  50.765  1.00  0.00     0.245 C 
HETATM   18  N   UNL     1      25.679  45.871  51.470  1.00  0.00    -0.267 N 
HETATM   19  H   UNL     1      24.875  45.326  51.791  1.00  0.00     0.190 HD
HETATM   20  O   UNL     1      26.349  47.940  50.760  1.00  0.00    -0.271 OA
BRANCH  18  21
HETATM   21  N   UNL     1      26.802  45.816  52.320  1.00  0.00    -0.263 N 
HETATM   22  C   UNL     1      27.197  44.567  52.765  1.00  0.00     0.270 C 
HETATM   23  O   UNL     1      26.714  43.529  52.322  1.00  0.00    -0.266 OA
HETATM   24  H   UNL     1      26.951  46.647  52.890  1.00  0.00     0.190 HD
BRANCH  22  25
HETATM   25  C   UNL     1      28.215  44.548  53.851  1.00  0.00     0.033 A 
HETATM   26  C   UNL     1      28.200  45.574  54.800  1.00  0.00     0.020 A 
HETATM   27  C   UNL     1      29.146  45.591  55.829  1.00  0.00     0.038 A 
HETATM   28  C   UNL     1      30.111  44.586  55.928  1.00  0.00     0.068 A 
HETATM   29  C   UNL     1      30.119  43.553  54.991  1.00  0.00     0.038 A 
HETATM   30  C   UNL     1      29.173  43.529  53.957  1.00  0.00     0.020 A 
BRANCH  28  31
HETATM   31  O   UNL     1      30.976  44.725  56.977  1.00  0.00    -0.356 OA
HETATM   32  C   UNL     1      30.520  45.476  58.096  1.00  0.00     0.210 C 
ENDBRANCH  28  31
ENDBRANCH  22  25
ENDBRANCH  18  21
ENDBRANCH   1  17
TORSDOF 8
ENDMDL
MODEL 7
REMARK VINA RESULT:      -8.6      2.780     11.135
REMARK  8 active torsions:
REMARK  status: ('A' for Active; 'I' for Inactive)
REMARK    1  A    between atoms: C_5  and  S_6 
REMARK    2  A    between atoms: S_6  and  C_7 
REMARK    3  A    between atoms: C_7  and  C_8 
REMARK       I    between atoms: C_8  and  N_9 
REMARK    4  A    between atoms: N_9  and  N_10 
REMARK       I    between atoms: N_10  and  C_11 
REMARK    5  A    between atoms: C_11  and  C_12 
REMARK    6  A    between atoms: C_15  and  O_16 
REMARK    7  A    between atoms: C_23  and  C_24 
REMARK    8  A    between atoms: C_24  and  C_25 
ROOT
HETATM    1  C   UNL     1      23.142  47.309  48.901  1.00  0.00     0.187 C 
ENDROOT
BRANCH   1   2
HETATM    2  S   UNL     1      22.870  48.917  48.112  1.00  0.00    -0.083 SA
BRANCH   2   3
HETATM    3  C   UNL     1      21.489  49.492  48.971  1.00  0.00     0.167 A 
HETATM    4  N   UNL     1      20.655  48.647  49.640  1.00  0.00    -0.337 N 
HETATM    5  C   UNL     1      19.632  49.397  50.165  1.00  0.00     0.032 A 
HETATM    6  H   UNL     1      20.803  47.652  49.756  1.00  0.00     0.168 HD
HETATM    7  C   UNL     1      18.537  48.808  50.964  1.00  0.00     0.070 C 
HETATM    8  C   UNL     1      19.902  50.695  49.757  1.00  0.00     0.063 A 
HETATM    9  N   UNL     1      21.083  50.735  49.037  1.00  0.00    -0.227 NA
BRANCH   8  10
HETATM   10  C   UNL     1      19.135  51.946  50.025  1.00  0.00     0.100 C 
BRANCH  10  11
HETATM   11  C   UNL     1      17.950  51.927  49.090  1.00  0.00    -0.052 A 
HETATM   12  C   UNL     1      16.643  51.805  49.584  1.00  0.00     0.007 A 
HETATM   13  C   UNL     1      15.553  51.789  48.712  1.00  0.00     0.001 A 
HETATM   14  C   UNL     1      15.757  51.897  47.336  1.00  0.00     0.000 A 
HETATM   15  C   UNL     1      17.049  52.016  46.832  1.00  0.00     0.001 A 
HETATM   16  C   UNL     1      18.140  52.030  47.702  1.00  0.00     0.007 A 
ENDBRANCH  10  11
ENDBRANCH   8  10
ENDBRANCH   2   3
ENDBRANCH   1   2
BRANCH   1  17
HETATM   17  C   UNL     1      24.365  47.370  49.794  1.00  0.00     0.245 C 
HETATM   18  N   UNL     1      24.728  46.166  50.366  1.00  0.00    -0.267 N 
HETATM   19  H   UNL     1      24.037  45.426  50.509  1.00  0.00     0.190 HD
HETATM   20  O   UNL     1      24.993  48.411  50.011  1.00  0.00    -0.271 OA
BRANCH  18  21
HETATM   21  N   UNL     1      25.743  46.217  51.342  1.00  0.00    -0.263 N 
HETATM   22  C   UNL     1      25.542  45.491  52.502  1.00  0.00     0.270 C 
HETATM   23  O   UNL     1      24.612  44.700  52.629  1.00  0.00    -0.266 OA
HETATM   24  H   UNL     1      26.290  47.077  51.350  1.00  0.00     0.190 HD
BRANCH  22  25
HETATM   25  C   UNL     1      26.494  45.754  53.617  1.00  0.00     0.033 A 
HETATM   26  C   UNL     1      27.228  44.683  54.136  1.00  0.00     0.020 A 
HETATM   27  C   UNL     1      28.124  44.892  55.187  1.00  0.00     0.038 A 
HETATM   28  C   UNL     1      28.305  46.167  55.728  1.00  0.00     0.068 A 
HETATM   29  C   UNL     1      27.585  47.240  55.202  1.00  0.00     0.038 A 
HETATM   30  C   UNL     1      26.685  47.037  54.147  1.00  0.00     0.020 A 
BRANCH  28  31
HETATM   31  O   UNL     1      29.208  46.232  56.752  1.00  0.00    -0.356 OA
HETATM   32  C   UNL     1      30.445  45.555  56.567  1.00  0.00     0.210 C 
ENDBRANCH  28  31
ENDBRANCH  22  25
ENDBRANCH  18  21
ENDBRANCH   1  17
TORSDOF 8
ENDMDL
MODEL 8
REMARK VINA RESULT:      -8.3      6.274     10.282
REMARK  8 active torsions:
REMARK  status: ('A' for Active; 'I' for Inactive)
REMARK    1  A    between atoms: C_5  and  S_6 
REMARK    2  A    between atoms: S_6  and  C_7 
REMARK    3  A    between atoms: C_7  and  C_8 
REMARK       I    between atoms: C_8  and  N_9 
REMARK    4  A    between atoms: N_9  and  N_10 
REMARK       I    between atoms: N_10  and  C_11 
REMARK    5  A    between atoms: C_11  and  C_12 
REMARK    6  A    between atoms: C_15  and  O_16 
REMARK    7  A    between atoms: C_23  and  C_24 
REMARK    8  A    between atoms: C_24  and  C_25 
ROOT
HETATM    1  C   UNL     1      26.617  39.472  49.193  1.00  0.00     0.187 C 
ENDROOT
BRANCH   1   2
HETATM    2  S   UNL     1      26.795  40.698  47.872  1.00  0.00    -0.083 SA
BRANCH   2   3
HETATM    3  C   UNL     1      25.413  41.695  48.139  1.00  0.00     0.167 A 
HETATM    4  N   UNL     1      24.639  42.142  47.110  1.00  0.00    -0.337 N 
HETATM    5  C   UNL     1      23.664  42.949  47.639  1.00  0.00     0.032 A 
HETATM    6  H   UNL     1      24.752  41.878  46.138  1.00  0.00     0.168 HD
HETATM    7  C   UNL     1      22.634  43.609  46.809  1.00  0.00     0.070 C 
HETATM    8  C   UNL     1      23.919  42.963  49.002  1.00  0.00     0.063 A 
HETATM    9  N   UNL     1      24.999  42.148  49.295  1.00  0.00    -0.227 NA
BRANCH   8  10
HETATM   10  C   UNL     1      23.188  43.673  50.091  1.00  0.00     0.100 C 
BRANCH  10  11
HETATM   11  C   UNL     1      24.099  44.781  50.561  1.00  0.00    -0.052 A 
HETATM   12  C   UNL     1      24.531  44.842  51.894  1.00  0.00     0.007 A 
HETATM   13  C   UNL     1      25.374  45.871  52.321  1.00  0.00     0.001 A 
HETATM   14  C   UNL     1      25.796  46.848  51.419  1.00  0.00     0.000 A 
HETATM   15  C   UNL     1      25.373  46.800  50.094  1.00  0.00     0.001 A 
HETATM   16  C   UNL     1      24.529  45.774  49.666  1.00  0.00     0.007 A 
ENDBRANCH  10  11
ENDBRANCH   8  10
ENDBRANCH   2   3
ENDBRANCH   1   2
BRANCH   1  17
HETATM   17  C   UNL     1      27.326  39.951  50.444  1.00  0.00     0.245 C 
HETATM   18  N   UNL     1      26.511  40.561  51.378  1.00  0.00    -0.267 N 
HETATM   19  H   UNL     1      25.634  41.004  51.096  1.00  0.00     0.190 HD
HETATM   20  O   UNL     1      28.541  39.823  50.624  1.00  0.00    -0.271 OA
BRANCH  18  21
HETATM   21  N   UNL     1      27.158  41.181  52.466  1.00  0.00    -0.263 N 
HETATM   22  C   UNL     1      27.597  42.480  52.284  1.00  0.00     0.270 C 
HETATM   23  O   UNL     1      27.300  43.140  51.292  1.00  0.00    -0.266 OA
HETATM   24  H   UNL     1      27.648  40.545  53.094  1.00  0.00     0.190 HD
BRANCH  22  25
HETATM   25  C   UNL     1      28.492  43.026  53.340  1.00  0.00     0.033 A 
HETATM   26  C   UNL     1      27.999  44.026  54.184  1.00  0.00     0.020 A 
HETATM   27  C   UNL     1      28.815  44.568  55.181  1.00  0.00     0.038 A 
HETATM   28  C   UNL     1      30.125  44.116  55.354  1.00  0.00     0.068 A 
HETATM   29  C   UNL     1      30.615  43.108  54.524  1.00  0.00     0.038 A 
HETATM   30  C   UNL     1      29.802  42.560  53.522  1.00  0.00     0.020 A 
BRANCH  28  31
HETATM   31  O   UNL     1      30.814  44.730  56.362  1.00  0.00    -0.356 OA
HETATM   32  C   UNL     1      30.240  45.910  56.912  1.00  0.00     0.210 C 
ENDBRANCH  28  31
ENDBRANCH  22  25
ENDBRANCH  18  21
ENDBRANCH   1  17
TORSDOF 8
ENDMDL
MODEL 9
REMARK VINA RESULT:      -8.3      3.417     10.324
REMARK  8 active torsions:
REMARK  status: ('A' for Active; 'I' for Inactive)
REMARK    1  A    between atoms: C_5  and  S_6 
REMARK    2  A    between atoms: S_6  and  C_7 
REMARK    3  A    between atoms: C_7  and  C_8 
REMARK       I    between atoms: C_8  and  N_9 
REMARK    4  A    between atoms: N_9  and  N_10 
REMARK       I    between atoms: N_10  and  C_11 
REMARK    5  A    between atoms: C_11  and  C_12 
REMARK    6  A    between atoms: C_15  and  O_16 
REMARK    7  A    between atoms: C_23  and  C_24 
REMARK    8  A    between atoms: C_24  and  C_25 
ROOT
HETATM    1  C   UNL     1      24.314  42.916  49.152  1.00  0.00     0.187 C 
ENDROOT
BRANCH   1   2
HETATM    2  S   UNL     1      22.720  43.525  49.759  1.00  0.00    -0.083 SA
BRANCH   2   3
HETATM    3  C   UNL     1      22.751  45.164  49.222  1.00  0.00     0.167 A 
HETATM    4  N   UNL     1      23.651  46.063  49.711  1.00  0.00    -0.337 N 
HETATM    5  C   UNL     1      23.382  47.280  49.136  1.00  0.00     0.032 A 
HETATM    6  H   UNL     1      24.405  45.844  50.351  1.00  0.00     0.168 HD
HETATM    7  C   UNL     1      24.169  48.496  49.431  1.00  0.00     0.070 C 
HETATM    8  C   UNL     1      22.287  47.048  48.316  1.00  0.00     0.063 A 
HETATM    9  N   UNL     1      21.928  45.712  48.364  1.00  0.00    -0.227 NA
BRANCH   8  10
HETATM   10  C   UNL     1      21.548  48.000  47.439  1.00  0.00     0.100 C 
BRANCH  10  11
HETATM   11  C   UNL     1      20.908  49.014  48.356  1.00  0.00    -0.052 A 
HETATM   12  C   UNL     1      21.179  50.383  48.218  1.00  0.00     0.007 A 
HETATM   13  C   UNL     1      20.582  51.314  49.070  1.00  0.00     0.001 A 
HETATM   14  C   UNL     1      19.706  50.888  50.068  1.00  0.00     0.000 A 
HETATM   15  C   UNL     1      19.430  49.531  50.217  1.00  0.00     0.001 A 
HETATM   16  C   UNL     1      20.027  48.599  49.368  1.00  0.00     0.007 A 
ENDBRANCH  10  11
ENDBRANCH   8  10
ENDBRANCH   2   3
ENDBRANCH   1   2
BRANCH   1  17
HETATM   17  C   UNL     1      25.344  42.964  50.262  1.00  0.00     0.245 C 
HETATM   18  N   UNL     1      24.826  43.153  51.529  1.00  0.00    -0.267 N 
HETATM   19  H   UNL     1      23.922  43.613  51.661  1.00  0.00     0.190 HD
HETATM   20  O   UNL     1      26.557  42.854  50.064  1.00  0.00    -0.271 OA
BRANCH  18  21
HETATM   21  N   UNL     1      25.758  43.386  52.560  1.00  0.00    -0.263 N 
HETATM   22  C   UNL     1      25.997  44.702  52.910  1.00  0.00     0.270 C 
HETATM   23  O   UNL     1      25.320  45.630  52.478  1.00  0.00    -0.266 OA
HETATM   24  H   UNL     1      26.487  42.679  52.648  1.00  0.00     0.190 HD
BRANCH  22  25
HETATM   25  C   UNL     1      27.157  44.943  53.813  1.00  0.00     0.033 A 
HETATM   26  C   UNL     1      28.081  43.911  54.004  1.00  0.00     0.020 A 
HETATM   27  C   UNL     1      29.176  44.099  54.850  1.00  0.00     0.038 A 
HETATM   28  C   UNL     1      29.369  45.316  55.509  1.00  0.00     0.068 A 
HETATM   29  C   UNL     1      28.457  46.353  55.308  1.00  0.00     0.038 A 
HETATM   30  C   UNL     1      27.356  46.170  54.460  1.00  0.00     0.020 A 
BRANCH  28  31
HETATM   31  O   UNL     1      30.477  45.366  56.307  1.00  0.00    -0.356 OA
HETATM   32  C   UNL     1      31.227  44.165  56.448  1.00  0.00     0.210 C 
ENDBRANCH  28  31
ENDBRANCH  22  25
ENDBRANCH  18  21
ENDBRANCH   1  17
TORSDOF 8
ENDMDL
MODEL 10
REMARK VINA RESULT:      -8.3      3.271     10.253
REMARK  8 active torsions:
REMARK  status: ('A' for Active; 'I' for Inactive)
REMARK    1  A    between atoms: C_5  and  S_6 
REMARK    2  A    between atoms: S_6  and  C_7 
REMARK    3  A    between atoms: C_7  and  C_8 
REMARK       I    between atoms: C_8  and  N_9 
REMARK    4  A    between atoms: N_9  and  N_10 
REMARK       I    between atoms: N_10  and  C_11 
REMARK    5  A    between atoms: C_11  and  C_12 
REMARK    6  A    between atoms: C_15  and  O_16 
REMARK    7  A    between atoms: C_23  and  C_24 
REMARK    8  A    between atoms: C_24  and  C_25 
ROOT
HETATM    1  C   UNL     1      22.096  44.473  47.760  1.00  0.00     0.187 C 
ENDROOT
BRANCH   1   2
HETATM    2  S   UNL     1      20.314  44.797  47.732  1.00  0.00    -0.083 SA
BRANCH   2   3
HETATM    3  C   UNL     1      20.240  46.370  48.437  1.00  0.00     0.167 A 
HETATM    4  N   UNL     1      19.362  46.668  49.436  1.00  0.00    -0.337 N 
HETATM    5  C   UNL     1      19.508  48.000  49.738  1.00  0.00     0.032 A 
HETATM    6  H   UNL     1      18.751  46.003  49.894  1.00  0.00     0.168 HD
HETATM    7  C   UNL     1      18.715  48.674  50.787  1.00  0.00     0.070 C 
HETATM    8  C   UNL     1      20.485  48.453  48.864  1.00  0.00     0.063 A 
HETATM    9  N   UNL     1      20.948  47.411  48.081  1.00  0.00    -0.227 NA
BRANCH   8  10
HETATM   10  C   UNL     1      21.062  49.821  48.722  1.00  0.00     0.100 C 
BRANCH  10  11
HETATM   11  C   UNL     1      19.989  50.671  48.085  1.00  0.00    -0.052 A 
HETATM   12  C   UNL     1      19.532  51.842  48.707  1.00  0.00     0.007 A 
HETATM   13  C   UNL     1      18.539  52.622  48.111  1.00  0.00     0.001 A 
HETATM   14  C   UNL     1      17.994  52.242  46.885  1.00  0.00     0.000 A 
HETATM   15  C   UNL     1      18.436  51.080  46.257  1.00  0.00     0.001 A 
HETATM   16  C   UNL     1      19.427  50.298  46.853  1.00  0.00     0.007 A 
ENDBRANCH  10  11
ENDBRANCH   8  10
ENDBRANCH   2   3
ENDBRANCH   1   2
BRANCH   1  17
HETATM   17  C   UNL     1      22.581  44.366  49.191  1.00  0.00     0.245 C 
HETATM   18  N   UNL     1      23.384  45.408  49.613  1.00  0.00    -0.267 N 
HETATM   19  H   UNL     1      23.920  45.960  48.940  1.00  0.00     0.190 HD
HETATM   20  O   UNL     1      22.299  43.420  49.933  1.00  0.00    -0.271 OA
BRANCH  18  21
HETATM   21  N   UNL     1      24.003  45.255  50.870  1.00  0.00    -0.263 N 
HETATM   22  C   UNL     1      24.740  46.323  51.347  1.00  0.00     0.270 C 
HETATM   23  O   UNL     1      24.733  47.422  50.800  1.00  0.00    -0.266 OA
HETATM   24  H   UNL     1      24.251  44.297  51.113  1.00  0.00     0.190 HD
BRANCH  22  25
HETATM   25  C   UNL     1      25.586  46.058  52.543  1.00  0.00     0.033 A 
HETATM   26  C   UNL     1      26.258  47.130  53.138  1.00  0.00     0.020 A 
HETATM   27  C   UNL     1      27.068  46.916  54.256  1.00  0.00     0.038 A 
HETATM   28  C   UNL     1      27.212  45.636  54.799  1.00  0.00     0.068 A 
HETATM   29  C   UNL     1      26.530  44.567  54.216  1.00  0.00     0.038 A 
HETATM   30  C   UNL     1      25.716  44.776  53.095  1.00  0.00     0.020 A 
BRANCH  28  31
HETATM   31  O   UNL     1      28.033  45.566  55.889  1.00  0.00    -0.356 OA
HETATM   32  C   UNL     1      29.352  46.078  55.740  1.00  0.00     0.210 C 
ENDBRANCH  28  31
ENDBRANCH  22  25
ENDBRANCH  18  21
ENDBRANCH   1  17
TORSDOF 8
ENDMDL
