MODEL 1
REMARK VINA RESULT:      -8.7      0.000      0.000
REMARK  6 active torsions:
REMARK  status: ('A' for Active; 'I' for Inactive)
REMARK    1  A    between atoms: C_2  and  N_3 
REMARK    2  A    between atoms: C_5  and  C_6 
REMARK    3  A    between atoms: C_6  and  N_7 
REMARK       I    between atoms: N_7  and  C_8 
REMARK    4  A    between atoms: C_8  and  C_9 
REMARK    5  A    between atoms: C_9  and  C_10 
REMARK    6  A    between atoms: C_11  and  C_12 
ROOT
HETATM    1  C   UNL     1      27.765  42.820  51.892  1.00  0.00     0.006 C 
HETATM    2  C   UNL     1      28.115  42.684  53.287  1.00  0.00     0.096 C 
HETATM    3  N   UNL     1      27.755  41.462  53.718  1.00  0.00    -0.173 NA
HETATM    4  N   UNL     1      27.368  40.791  52.637  1.00  0.00    -0.282 N 
HETATM    5  H   UNL     1      27.142  39.806  52.741  1.00  0.00     0.189 HD
HETATM    6  C   UNL     1      27.320  41.558  51.513  1.00  0.00     0.033 C 
HETATM    7  C   UNL     1      26.901  40.986  50.211  1.00  0.00     0.070 C 
ENDROOT
BRANCH   1   8
HETATM    8  C   UNL     1      27.860  44.001  50.981  1.00  0.00     0.146 C 
BRANCH   8   9
HETATM    9  C   UNL     1      26.531  44.746  50.933  1.00  0.00     0.222 C 
HETATM   10  N   UNL     1      26.255  45.422  49.766  1.00  0.00    -0.359 N 
HETATM   11  H   UNL     1      26.996  45.506  49.078  1.00  0.00     0.162 HD
HETATM   12  O   UNL     1      25.687  44.701  51.829  1.00  0.00    -0.273 OA
BRANCH  10  13
HETATM   13  C   UNL     1      25.055  46.233  49.590  1.00  0.00     0.155 C 
BRANCH  13  14
HETATM   14  C   UNL     1      25.178  47.733  49.973  1.00  0.00     0.206 C 
HETATM   15  N   UNL     1      24.551  48.645  48.920  1.00  0.00    -0.066 N 
HETATM   16  H   UNL     1      24.345  48.048  48.091  1.00  0.00     0.280 HD
HETATM   17  C   UNL     1      25.604  49.631  48.473  1.00  0.00     0.235 C 
HETATM   18  C   UNL     1      26.910  48.941  48.796  1.00  0.00     0.030 C 
HETATM   19  C   UNL     1      26.619  48.229  50.101  1.00  0.00     0.036 C 
BRANCH  15  20
HETATM   20  C   UNL     1      23.234  49.243  49.318  1.00  0.00     0.231 C 
HETATM   21  C   UNL     1      23.177  50.712  48.945  1.00  0.00     0.034 C 
ENDBRANCH  15  20
ENDBRANCH  13  14
ENDBRANCH  10  13
ENDBRANCH   8   9
ENDBRANCH   1   8
BRANCH   2  22
HETATM   22  C   UNL     1      28.755  43.602  54.258  1.00  0.00    -0.005 A 
HETATM   23  C   UNL     1      28.211  44.835  54.639  1.00  0.00     0.017 A 
HETATM   24  C   UNL     1      28.867  45.663  55.562  1.00  0.00     0.043 A 
HETATM   25  C   UNL     1      30.081  45.270  56.105  1.00  0.00     0.116 A 
HETATM   26  F   UNL     1      30.701  46.066  56.984  1.00  0.00    -0.206 F 
HETATM   27  C   UNL     1      30.654  44.063  55.745  1.00  0.00     0.043 A 
HETATM   28  C   UNL     1      29.994  43.237  54.829  1.00  0.00     0.017 A 
ENDBRANCH   2  22
TORSDOF 6
ENDMDL
MODEL 2
REMARK VINA RESULT:      -8.6      1.618      2.751
REMARK  6 active torsions:
REMARK  status: ('A' for Active; 'I' for Inactive)
REMARK    1  A    between atoms: C_2  and  N_3 
REMARK    2  A    between atoms: C_5  and  C_6 
REMARK    3  A    between atoms: C_6  and  N_7 
REMARK       I    between atoms: N_7  and  C_8 
REMARK    4  A    between atoms: C_8  and  C_9 
REMARK    5  A    between atoms: C_9  and  C_10 
REMARK    6  A    between atoms: C_11  and  C_12 
ROOT
HETATM    1  C   UNL     1      28.004  42.760  53.701  1.00  0.00     0.006 C 
HETATM    2  C   UNL     1      29.326  43.133  54.146  1.00  0.00     0.096 C 
HETATM    3  N   UNL     1      30.241  42.596  53.320  1.00  0.00    -0.173 NA
HETATM    4  N   UNL     1      29.556  42.069  52.309  1.00  0.00    -0.282 N 
HETATM    5  H   UNL     1      30.078  41.690  51.523  1.00  0.00     0.189 HD
HETATM    6  C   UNL     1      28.208  42.105  52.492  1.00  0.00     0.033 C 
HETATM    7  C   UNL     1      27.280  41.553  51.475  1.00  0.00     0.070 C 
ENDROOT
BRANCH   1   8
HETATM    8  C   UNL     1      26.667  43.012  54.321  1.00  0.00     0.146 C 
BRANCH   8   9
HETATM    9  C   UNL     1      25.936  44.125  53.580  1.00  0.00     0.222 C 
HETATM   10  N   UNL     1      26.721  45.140  53.080  1.00  0.00    -0.359 N 
HETATM   11  H   UNL     1      27.698  45.165  53.354  1.00  0.00     0.162 HD
HETATM   12  O   UNL     1      24.728  44.112  53.342  1.00  0.00    -0.273 OA
BRANCH  10  13
HETATM   13  C   UNL     1      26.164  46.306  52.403  1.00  0.00     0.155 C 
BRANCH  13  14
HETATM   14  C   UNL     1      26.277  46.320  50.854  1.00  0.00     0.206 C 
HETATM   15  N   UNL     1      24.920  46.524  50.183  1.00  0.00    -0.066 N 
HETATM   16  H   UNL     1      24.199  46.422  50.929  1.00  0.00     0.280 HD
HETATM   17  C   UNL     1      24.696  45.375  49.228  1.00  0.00     0.235 C 
HETATM   18  C   UNL     1      25.582  44.274  49.767  1.00  0.00     0.030 C 
HETATM   19  C   UNL     1      26.809  45.018  50.254  1.00  0.00     0.036 C 
BRANCH  15  20
HETATM   20  C   UNL     1      24.709  47.892  49.607  1.00  0.00     0.231 C 
HETATM   21  C   UNL     1      26.038  48.580  49.355  1.00  0.00     0.034 C 
ENDBRANCH  15  20
ENDBRANCH  13  14
ENDBRANCH  10  13
ENDBRANCH   8   9
ENDBRANCH   1   8
BRANCH   2  22
HETATM   22  C   UNL     1      29.812  43.946  55.286  1.00  0.00    -0.005 A 
HETATM   23  C   UNL     1      30.823  43.535  56.162  1.00  0.00     0.017 A 
HETATM   24  C   UNL     1      31.238  44.350  57.226  1.00  0.00     0.043 A 
HETATM   25  C   UNL     1      30.636  45.582  57.430  1.00  0.00     0.116 A 
HETATM   26  F   UNL     1      31.036  46.353  58.448  1.00  0.00    -0.206 F 
HETATM   27  C   UNL     1      29.626  46.019  56.590  1.00  0.00     0.043 A 
HETATM   28  C   UNL     1      29.220  45.206  55.527  1.00  0.00     0.017 A 
ENDBRANCH   2  22
TORSDOF 6
ENDMDL
MODEL 3
REMARK VINA RESULT:      -8.5      3.300      5.813
REMARK  6 active torsions:
REMARK  status: ('A' for Active; 'I' for Inactive)
REMARK    1  A    between atoms: C_2  and  N_3 
REMARK    2  A    between atoms: C_5  and  C_6 
REMARK    3  A    between atoms: C_6  and  N_7 
REMARK       I    between atoms: N_7  and  C_8 
REMARK    4  A    between atoms: C_8  and  C_9 
REMARK    5  A    between atoms: C_9  and  C_10 
REMARK    6  A    between atoms: C_11  and  C_12 
ROOT
HETATM    1  C   UNL     1      27.313  45.730  54.532  1.00  0.00     0.006 C 
HETATM    2  C   UNL     1      28.592  46.004  55.145  1.00  0.00     0.096 C 
HETATM    3  N   UNL     1      28.870  47.315  55.025  1.00  0.00    -0.173 NA
HETATM    4  N   UNL     1      27.770  47.879  54.535  1.00  0.00    -0.282 N 
HETATM    5  H   UNL     1      27.746  48.892  54.456  1.00  0.00     0.189 HD
HETATM    6  C   UNL     1      26.809  46.979  54.188  1.00  0.00     0.033 C 
HETATM    7  C   UNL     1      25.515  47.422  53.613  1.00  0.00     0.070 C 
ENDROOT
BRANCH   1   8
HETATM    8  C   UNL     1      26.604  44.433  54.311  1.00  0.00     0.146 C 
BRANCH   8   9
HETATM    9  C   UNL     1      26.602  44.072  52.830  1.00  0.00     0.222 C 
HETATM   10  N   UNL     1      25.498  43.390  52.372  1.00  0.00    -0.359 N 
HETATM   11  H   UNL     1      24.833  43.045  53.057  1.00  0.00     0.162 HD
HETATM   12  O   UNL     1      27.475  44.426  52.036  1.00  0.00    -0.273 OA
BRANCH  10  13
HETATM   13  C   UNL     1      25.376  42.919  50.996  1.00  0.00     0.155 C 
BRANCH  13  14
HETATM   14  C   UNL     1      25.924  41.495  50.707  1.00  0.00     0.206 C 
HETATM   15  N   UNL     1      27.446  41.434  50.818  1.00  0.00    -0.066 N 
HETATM   16  H   UNL     1      27.781  42.419  50.883  1.00  0.00     0.280 HD
HETATM   17  C   UNL     1      27.985  40.896  49.513  1.00  0.00     0.235 C 
HETATM   18  C   UNL     1      26.895  41.207  48.512  1.00  0.00     0.030 C 
HETATM   19  C   UNL     1      25.620  40.982  49.299  1.00  0.00     0.036 C 
BRANCH  15  20
HETATM   20  C   UNL     1      27.955  40.756  52.055  1.00  0.00     0.231 C 
HETATM   21  C   UNL     1      29.188  41.463  52.586  1.00  0.00     0.034 C 
ENDBRANCH  15  20
ENDBRANCH  13  14
ENDBRANCH  10  13
ENDBRANCH   8   9
ENDBRANCH   1   8
BRANCH   2  22
HETATM   22  C   UNL     1      29.584  45.144  55.830  1.00  0.00    -0.005 A 
HETATM   23  C   UNL     1      30.120  45.424  57.093  1.00  0.00     0.017 A 
HETATM   24  C   UNL     1      31.060  44.570  57.688  1.00  0.00     0.043 A 
HETATM   25  C   UNL     1      31.482  43.431  57.020  1.00  0.00     0.116 A 
HETATM   26  F   UNL     1      32.380  42.621  57.594  1.00  0.00    -0.206 F 
HETATM   27  C   UNL     1      30.982  43.125  55.765  1.00  0.00     0.043 A 
HETATM   28  C   UNL     1      30.041  43.976  55.178  1.00  0.00     0.017 A 
ENDBRANCH   2  22
TORSDOF 6
ENDMDL
MODEL 4
REMARK VINA RESULT:      -8.3      2.742      4.646
REMARK  6 active torsions:
REMARK  status: ('A' for Active; 'I' for Inactive)
REMARK    1  A    between atoms: C_2  and  N_3 
REMARK    2  A    between atoms: C_5  and  C_6 
REMARK    3  A    between atoms: C_6  and  N_7 
REMARK       I    between atoms: N_7  and  C_8 
REMARK    4  A    between atoms: C_8  and  C_9 
REMARK    5  A    between atoms: C_9  and  C_10 
REMARK    6  A    between atoms: C_11  and  C_12 
ROOT
HETATM    1  C   UNL     1      27.323  45.621  54.514  1.00  0.00     0.006 C 
HETATM    2  C   UNL     1      28.599  45.905  55.127  1.00  0.00     0.096 C 
HETATM    3  N   UNL     1      28.871  47.216  55.001  1.00  0.00    -0.173 NA
HETATM    4  N   UNL     1      27.768  47.772  54.507  1.00  0.00    -0.282 N 
HETATM    5  H   UNL     1      27.740  48.785  54.423  1.00  0.00     0.189 HD
HETATM    6  C   UNL     1      26.813  46.866  54.162  1.00  0.00     0.033 C 
HETATM    7  C   UNL     1      25.517  47.299  53.584  1.00  0.00     0.070 C 
ENDROOT
BRANCH   1   8
HETATM    8  C   UNL     1      26.621  44.319  54.298  1.00  0.00     0.146 C 
BRANCH   8   9
HETATM    9  C   UNL     1      26.828  43.832  52.868  1.00  0.00     0.222 C 
HETATM   10  N   UNL     1      25.812  43.074  52.331  1.00  0.00    -0.359 N 
HETATM   11  H   UNL     1      25.069  42.766  52.951  1.00  0.00     0.162 HD
HETATM   12  O   UNL     1      27.791  44.149  52.168  1.00  0.00    -0.273 OA
BRANCH  10  13
HETATM   13  C   UNL     1      25.888  42.483  50.999  1.00  0.00     0.155 C 
BRANCH  13  14
HETATM   14  C   UNL     1      25.150  43.247  49.866  1.00  0.00     0.206 C 
HETATM   15  N   UNL     1      24.067  44.175  50.412  1.00  0.00    -0.066 N 
HETATM   16  H   UNL     1      23.951  43.939  51.421  1.00  0.00     0.280 HD
HETATM   17  C   UNL     1      22.762  43.808  49.745  1.00  0.00     0.235 C 
HETATM   18  C   UNL     1      22.965  42.374  49.310  1.00  0.00     0.030 C 
HETATM   19  C   UNL     1      24.417  42.340  48.877  1.00  0.00     0.036 C 
BRANCH  15  20
HETATM   20  C   UNL     1      24.421  45.632  50.381  1.00  0.00     0.231 C 
HETATM   21  C   UNL     1      25.766  45.844  49.712  1.00  0.00     0.034 C 
ENDBRANCH  15  20
ENDBRANCH  13  14
ENDBRANCH  10  13
ENDBRANCH   8   9
ENDBRANCH   1   8
BRANCH   2  22
HETATM   22  C   UNL     1      29.595  45.053  55.818  1.00  0.00    -0.005 A 
HETATM   23  C   UNL     1      30.138  45.349  57.074  1.00  0.00     0.017 A 
HETATM   24  C   UNL     1      31.080  44.503  57.675  1.00  0.00     0.043 A 
HETATM   25  C   UNL     1      31.499  43.355  57.020  1.00  0.00     0.116 A 
HETATM   26  F   UNL     1      32.400  42.553  57.599  1.00  0.00    -0.206 F 
HETATM   27  C   UNL     1      30.992  43.033  55.772  1.00  0.00     0.043 A 
HETATM   28  C   UNL     1      30.047  43.877  55.179  1.00  0.00     0.017 A 
ENDBRANCH   2  22
TORSDOF 6
ENDMDL
MODEL 5
REMARK VINA RESULT:      -8.2      3.127      6.342
REMARK  6 active torsions:
REMARK  status: ('A' for Active; 'I' for Inactive)
REMARK    1  A    between atoms: C_2  and  N_3 
REMARK    2  A    between atoms: C_5  and  C_6 
REMARK    3  A    between atoms: C_6  and  N_7 
REMARK       I    between atoms: N_7  and  C_8 
REMARK    4  A    between atoms: C_8  and  C_9 
REMARK    5  A    between atoms: C_9  and  C_10 
REMARK    6  A    between atoms: C_11  and  C_12 
ROOT
HETATM    1  C   UNL     1      27.106  44.607  52.596  1.00  0.00     0.006 C 
HETATM    2  C   UNL     1      27.536  44.885  53.947  1.00  0.00     0.096 C 
HETATM    3  N   UNL     1      26.583  45.592  54.580  1.00  0.00    -0.173 NA
HETATM    4  N   UNL     1      25.536  45.612  53.760  1.00  0.00    -0.282 N 
HETATM    5  H   UNL     1      24.672  46.026  54.098  1.00  0.00     0.189 HD
HETATM    6  C   UNL     1      25.795  45.067  52.540  1.00  0.00     0.033 C 
HETATM    7  C   UNL     1      24.750  45.009  51.488  1.00  0.00     0.070 C 
ENDROOT
BRANCH   1   8
HETATM    8  C   UNL     1      27.829  43.950  51.466  1.00  0.00     0.146 C 
BRANCH   8   9
HETATM    9  C   UNL     1      27.615  42.441  51.501  1.00  0.00     0.222 C 
HETATM   10  N   UNL     1      28.752  41.666  51.545  1.00  0.00    -0.359 N 
HETATM   11  H   UNL     1      29.646  42.125  51.405  1.00  0.00     0.162 HD
HETATM   12  O   UNL     1      26.507  41.907  51.576  1.00  0.00    -0.273 OA
BRANCH  10  13
HETATM   13  C   UNL     1      28.714  40.208  51.518  1.00  0.00     0.155 C 
BRANCH  13  14
HETATM   14  C   UNL     1      28.556  39.550  50.120  1.00  0.00     0.206 C 
HETATM   15  N   UNL     1      27.120  39.099  49.859  1.00  0.00    -0.066 N 
HETATM   16  H   UNL     1      26.613  39.173  50.767  1.00  0.00     0.280 HD
HETATM   17  C   UNL     1      27.151  37.627  49.519  1.00  0.00     0.235 C 
HETATM   18  C   UNL     1      28.439  37.136  50.142  1.00  0.00     0.030 C 
HETATM   19  C   UNL     1      29.397  38.288  49.925  1.00  0.00     0.036 C 
BRANCH  15  20
HETATM   20  C   UNL     1      26.358  39.966  48.903  1.00  0.00     0.231 C 
HETATM   21  C   UNL     1      27.301  40.866  48.126  1.00  0.00     0.034 C 
ENDBRANCH  15  20
ENDBRANCH  13  14
ENDBRANCH  10  13
ENDBRANCH   8   9
ENDBRANCH   1   8
BRANCH   2  22
HETATM   22  C   UNL     1      28.768  44.550  54.699  1.00  0.00    -0.005 A 
HETATM   23  C   UNL     1      29.419  43.313  54.618  1.00  0.00     0.017 A 
HETATM   24  C   UNL     1      30.582  43.056  55.358  1.00  0.00     0.043 A 
HETATM   25  C   UNL     1      31.100  44.031  56.197  1.00  0.00     0.116 A 
HETATM   26  F   UNL     1      32.210  43.778  56.900  1.00  0.00    -0.206 F 
HETATM   27  C   UNL     1      30.479  45.263  56.310  1.00  0.00     0.043 A 
HETATM   28  C   UNL     1      29.323  45.518  55.565  1.00  0.00     0.017 A 
ENDBRANCH   2  22
TORSDOF 6
ENDMDL
MODEL 6
REMARK VINA RESULT:      -8.2      3.213      6.137
REMARK  6 active torsions:
REMARK  status: ('A' for Active; 'I' for Inactive)
REMARK    1  A    between atoms: C_2  and  N_3 
REMARK    2  A    between atoms: C_5  and  C_6 
REMARK    3  A    between atoms: C_6  and  N_7 
REMARK       I    between atoms: N_7  and  C_8 
REMARK    4  A    between atoms: C_8  and  C_9 
REMARK    5  A    between atoms: C_9  and  C_10 
REMARK    6  A    between atoms: C_11  and  C_12 
ROOT
HETATM    1  C   UNL     1      27.275  44.633  52.868  1.00  0.00     0.006 C 
HETATM    2  C   UNL     1      27.723  44.963  54.201  1.00  0.00     0.096 C 
HETATM    3  N   UNL     1      26.812  45.757  54.792  1.00  0.00    -0.173 NA
HETATM    4  N   UNL     1      25.766  45.787  53.971  1.00  0.00    -0.282 N 
HETATM    5  H   UNL     1      24.926  46.266  54.284  1.00  0.00     0.189 HD
HETATM    6  C   UNL     1      25.991  45.159  52.784  1.00  0.00     0.033 C 
HETATM    7  C   UNL     1      24.943  45.099  51.737  1.00  0.00     0.070 C 
ENDROOT
BRANCH   1   8
HETATM    8  C   UNL     1      27.959  43.874  51.778  1.00  0.00     0.146 C 
BRANCH   8   9
HETATM    9  C   UNL     1      27.476  42.428  51.750  1.00  0.00     0.222 C 
HETATM   10  N   UNL     1      26.618  42.094  50.727  1.00  0.00    -0.359 N 
HETATM   11  H   UNL     1      26.248  42.844  50.151  1.00  0.00     0.162 HD
HETATM   12  O   UNL     1      27.874  41.557  52.524  1.00  0.00    -0.273 OA
BRANCH  10  13
HETATM   13  C   UNL     1      26.020  40.769  50.601  1.00  0.00     0.155 C 
BRANCH  13  14
HETATM   14  C   UNL     1      26.728  39.786  49.629  1.00  0.00     0.206 C 
HETATM   15  N   UNL     1      28.242  39.984  49.617  1.00  0.00    -0.066 N 
HETATM   16  H   UNL     1      28.432  40.868  50.135  1.00  0.00     0.280 HD
HETATM   17  C   UNL     1      28.666  40.237  48.189  1.00  0.00     0.235 C 
HETATM   18  C   UNL     1      27.412  40.756  47.523  1.00  0.00     0.030 C 
HETATM   19  C   UNL     1      26.308  39.942  48.167  1.00  0.00     0.036 C 
BRANCH  15  20
HETATM   20  C   UNL     1      29.015  38.923  50.342  1.00  0.00     0.231 C 
HETATM   21  C   UNL     1      29.743  38.024  49.359  1.00  0.00     0.034 C 
ENDBRANCH  15  20
ENDBRANCH  13  14
ENDBRANCH  10  13
ENDBRANCH   8   9
ENDBRANCH   1   8
BRANCH   2  22
HETATM   22  C   UNL     1      28.937  44.606  54.972  1.00  0.00    -0.005 A 
HETATM   23  C   UNL     1      29.654  43.417  54.790  1.00  0.00     0.017 A 
HETATM   24  C   UNL     1      30.796  43.134  55.553  1.00  0.00     0.043 A 
HETATM   25  C   UNL     1      31.225  44.034  56.517  1.00  0.00     0.116 A 
HETATM   26  F   UNL     1      32.315  43.756  57.243  1.00  0.00    -0.206 F 
HETATM   27  C   UNL     1      30.536  45.215  56.733  1.00  0.00     0.043 A 
HETATM   28  C   UNL     1      29.403  45.497  55.964  1.00  0.00     0.017 A 
ENDBRANCH   2  22
TORSDOF 6
ENDMDL
MODEL 7
REMARK VINA RESULT:      -7.8      1.685      2.591
REMARK  6 active torsions:
REMARK  status: ('A' for Active; 'I' for Inactive)
REMARK    1  A    between atoms: C_2  and  N_3 
REMARK    2  A    between atoms: C_5  and  C_6 
REMARK    3  A    between atoms: C_6  and  N_7 
REMARK       I    between atoms: N_7  and  C_8 
REMARK    4  A    between atoms: C_8  and  C_9 
REMARK    5  A    between atoms: C_9  and  C_10 
REMARK    6  A    between atoms: C_11  and  C_12 
ROOT
HETATM    1  C   UNL     1      28.008  42.728  52.066  1.00  0.00     0.006 C 
HETATM    2  C   UNL     1      28.633  42.515  53.350  1.00  0.00     0.096 C 
HETATM    3  N   UNL     1      28.652  41.198  53.622  1.00  0.00    -0.173 NA
HETATM    4  N   UNL     1      28.239  40.589  52.513  1.00  0.00    -0.282 N 
HETATM    5  H   UNL     1      28.271  39.574  52.485  1.00  0.00     0.189 HD
HETATM    6  C   UNL     1      27.807  41.451  51.553  1.00  0.00     0.033 C 
HETATM    7  C   UNL     1      27.298  40.956  50.250  1.00  0.00     0.070 C 
ENDROOT
BRANCH   1   8
HETATM    8  C   UNL     1      27.655  43.997  51.359  1.00  0.00     0.146 C 
BRANCH   8   9
HETATM    9  C   UNL     1      26.163  44.281  51.485  1.00  0.00     0.222 C 
HETATM   10  N   UNL     1      25.501  44.583  50.317  1.00  0.00    -0.359 N 
HETATM   11  H   UNL     1      26.056  44.741  49.482  1.00  0.00     0.162 HD
HETATM   12  O   UNL     1      25.530  44.171  52.536  1.00  0.00    -0.273 OA
BRANCH  10  13
HETATM   13  C   UNL     1      24.087  44.940  50.282  1.00  0.00     0.155 C 
BRANCH  13  14
HETATM   14  C   UNL     1      23.561  45.532  48.946  1.00  0.00     0.206 C 
HETATM   15  N   UNL     1      22.525  46.631  49.176  1.00  0.00    -0.066 N 
HETATM   16  H   UNL     1      22.274  46.599  50.187  1.00  0.00     0.280 HD
HETATM   17  C   UNL     1      21.271  46.251  48.424  1.00  0.00     0.235 C 
HETATM   18  C   UNL     1      21.373  44.749  48.279  1.00  0.00     0.030 C 
HETATM   19  C   UNL     1      22.852  44.517  48.048  1.00  0.00     0.036 C 
BRANCH  15  20
HETATM   20  C   UNL     1      23.027  48.022  48.931  1.00  0.00     0.231 C 
HETATM   21  C   UNL     1      22.117  48.760  47.968  1.00  0.00     0.034 C 
ENDBRANCH  15  20
ENDBRANCH  13  14
ENDBRANCH  10  13
ENDBRANCH   8   9
ENDBRANCH   1   8
BRANCH   2  22
HETATM   22  C   UNL     1      29.209  43.439  54.354  1.00  0.00    -0.005 A 
HETATM   23  C   UNL     1      30.451  43.244  54.972  1.00  0.00     0.017 A 
HETATM   24  C   UNL     1      30.942  44.156  55.918  1.00  0.00     0.043 A 
HETATM   25  C   UNL     1      30.189  45.268  56.265  1.00  0.00     0.116 A 
HETATM   26  F   UNL     1      30.664  46.132  57.169  1.00  0.00    -0.206 F 
HETATM   27  C   UNL     1      28.953  45.489  55.682  1.00  0.00     0.043 A 
HETATM   28  C   UNL     1      28.470  44.582  54.734  1.00  0.00     0.017 A 
ENDBRANCH   2  22
TORSDOF 6
ENDMDL
MODEL 8
REMARK VINA RESULT:      -7.8      3.727      7.579
REMARK  6 active torsions:
REMARK  status: ('A' for Active; 'I' for Inactive)
REMARK    1  A    between atoms: C_2  and  N_3 
REMARK    2  A    between atoms: C_5  and  C_6 
REMARK    3  A    between atoms: C_6  and  N_7 
REMARK       I    between atoms: N_7  and  C_8 
REMARK    4  A    between atoms: C_8  and  C_9 
REMARK    5  A    between atoms: C_9  and  C_10 
REMARK    6  A    between atoms: C_11  and  C_12 
ROOT
HETATM    1  C   UNL     1      21.990  47.569  48.429  1.00  0.00     0.006 C 
HETATM    2  C   UNL     1      22.820  48.642  48.924  1.00  0.00     0.096 C 
HETATM    3  N   UNL     1      22.041  49.583  49.485  1.00  0.00    -0.173 NA
HETATM    4  N   UNL     1      20.814  49.072  49.517  1.00  0.00    -0.282 N 
HETATM    5  H   UNL     1      20.088  49.600  49.993  1.00  0.00     0.189 HD
HETATM    6  C   UNL     1      20.708  47.879  48.870  1.00  0.00     0.033 C 
HETATM    7  C   UNL     1      19.413  47.161  48.791  1.00  0.00     0.070 C 
ENDROOT
BRANCH   1   8
HETATM    8  C   UNL     1      22.350  46.349  47.644  1.00  0.00     0.146 C 
BRANCH   8   9
HETATM    9  C   UNL     1      22.236  45.102  48.514  1.00  0.00     0.222 C 
HETATM   10  N   UNL     1      23.095  45.028  49.587  1.00  0.00    -0.359 N 
HETATM   11  H   UNL     1      23.836  45.718  49.652  1.00  0.00     0.162 HD
HETATM   12  O   UNL     1      21.381  44.230  48.353  1.00  0.00    -0.273 OA
BRANCH  10  13
HETATM   13  C   UNL     1      23.151  43.871  50.474  1.00  0.00     0.155 C 
BRANCH  13  14
HETATM   14  C   UNL     1      24.540  43.539  51.083  1.00  0.00     0.206 C 
HETATM   15  N   UNL     1      25.345  44.801  51.391  1.00  0.00    -0.066 N 
HETATM   16  H   UNL     1      24.840  45.595  50.944  1.00  0.00     0.280 HD
HETATM   17  C   UNL     1      26.670  44.692  50.672  1.00  0.00     0.235 C 
HETATM   18  C   UNL     1      26.395  43.725  49.543  1.00  0.00     0.030 C 
HETATM   19  C   UNL     1      25.447  42.720  50.164  1.00  0.00     0.036 C 
BRANCH  15  20
HETATM   20  C   UNL     1      25.428  45.147  52.848  1.00  0.00     0.231 C 
HETATM   21  C   UNL     1      25.755  46.617  53.032  1.00  0.00     0.034 C 
ENDBRANCH  15  20
ENDBRANCH  13  14
ENDBRANCH  10  13
ENDBRANCH   8   9
ENDBRANCH   1   8
BRANCH   2  22
HETATM   22  C   UNL     1      24.284  48.868  48.912  1.00  0.00    -0.005 A 
HETATM   23  C   UNL     1      24.910  49.887  48.184  1.00  0.00     0.017 A 
HETATM   24  C   UNL     1      26.303  50.048  48.211  1.00  0.00     0.043 A 
HETATM   25  C   UNL     1      27.086  49.182  48.959  1.00  0.00     0.116 A 
HETATM   26  F   UNL     1      28.415  49.342  48.979  1.00  0.00    -0.206 F 
HETATM   27  C   UNL     1      26.504  48.157  49.685  1.00  0.00     0.043 A 
HETATM   28  C   UNL     1      25.115  48.004  49.660  1.00  0.00     0.017 A 
ENDBRANCH   2  22
TORSDOF 6
ENDMDL
MODEL 9
REMARK VINA RESULT:      -7.7      2.144      3.454
REMARK  6 active torsions:
REMARK  status: ('A' for Active; 'I' for Inactive)
REMARK    1  A    between atoms: C_2  and  N_3 
REMARK    2  A    between atoms: C_5  and  C_6 
REMARK    3  A    between atoms: C_6  and  N_7 
REMARK       I    between atoms: N_7  and  C_8 
REMARK    4  A    between atoms: C_8  and  C_9 
REMARK    5  A    between atoms: C_9  and  C_10 
REMARK    6  A    between atoms: C_11  and  C_12 
ROOT
HETATM    1  C   UNL     1      25.603  44.412  50.756  1.00  0.00     0.006 C 
HETATM    2  C   UNL     1      26.838  43.738  51.081  1.00  0.00     0.096 C 
HETATM    3  N   UNL     1      27.155  42.889  50.088  1.00  0.00    -0.173 NA
HETATM    4  N   UNL     1      26.288  43.130  49.109  1.00  0.00    -0.282 N 
HETATM    5  H   UNL     1      26.420  42.648  48.224  1.00  0.00     0.189 HD
HETATM    6  C   UNL     1      25.311  44.011  49.457  1.00  0.00     0.033 C 
HETATM    7  C   UNL     1      24.247  44.395  48.498  1.00  0.00     0.070 C 
ENDROOT
BRANCH   1   8
HETATM    8  C   UNL     1      24.780  45.366  51.560  1.00  0.00     0.146 C 
BRANCH   8   9
HETATM    9  C   UNL     1      24.880  46.774  50.985  1.00  0.00     0.222 C 
HETATM   10  N   UNL     1      23.786  47.224  50.282  1.00  0.00    -0.359 N 
HETATM   11  H   UNL     1      23.052  46.557  50.065  1.00  0.00     0.162 HD
HETATM   12  O   UNL     1      25.830  47.532  51.188  1.00  0.00    -0.273 OA
BRANCH  10  13
HETATM   13  C   UNL     1      23.754  48.523  49.618  1.00  0.00     0.155 C 
BRANCH  13  14
HETATM   14  C   UNL     1      22.493  48.827  48.764  1.00  0.00     0.206 C 
HETATM   15  N   UNL     1      21.241  48.976  49.626  1.00  0.00    -0.066 N 
HETATM   16  H   UNL     1      21.496  48.654  50.584  1.00  0.00     0.280 HD
HETATM   17  C   UNL     1      20.208  47.997  49.118  1.00  0.00     0.235 C 
HETATM   18  C   UNL     1      21.025  46.938  48.413  1.00  0.00     0.030 C 
HETATM   19  C   UNL     1      22.139  47.730  47.759  1.00  0.00     0.036 C 
BRANCH  15  20
HETATM   20  C   UNL     1      20.764  50.388  49.794  1.00  0.00     0.231 C 
HETATM   21  C   UNL     1      21.056  51.205  48.549  1.00  0.00     0.034 C 
ENDBRANCH  15  20
ENDBRANCH  13  14
ENDBRANCH  10  13
ENDBRANCH   8   9
ENDBRANCH   1   8
BRANCH   2  22
HETATM   22  C   UNL     1      27.748  43.814  52.248  1.00  0.00    -0.005 A 
HETATM   23  C   UNL     1      27.535  44.652  53.350  1.00  0.00     0.017 A 
HETATM   24  C   UNL     1      28.436  44.681  54.424  1.00  0.00     0.043 A 
HETATM   25  C   UNL     1      29.568  43.879  54.402  1.00  0.00     0.116 A 
HETATM   26  F   UNL     1      30.423  43.913  55.430  1.00  0.00    -0.206 F 
HETATM   27  C   UNL     1      29.816  43.045  53.325  1.00  0.00     0.043 A 
HETATM   28  C   UNL     1      28.912  43.014  52.259  1.00  0.00     0.017 A 
ENDBRANCH   2  22
TORSDOF 6
ENDMDL
MODEL 10
REMARK VINA RESULT:      -7.7     11.833     14.403
REMARK  6 active torsions:
REMARK  status: ('A' for Active; 'I' for Inactive)
REMARK    1  A    between atoms: C_2  and  N_3 
REMARK    2  A    between atoms: C_5  and  C_6 
REMARK    3  A    between atoms: C_6  and  N_7 
REMARK       I    between atoms: N_7  and  C_8 
REMARK    4  A    between atoms: C_8  and  C_9 
REMARK    5  A    between atoms: C_9  and  C_10 
REMARK    6  A    between atoms: C_11  and  C_12 
ROOT
HETATM    1  C   UNL     1      27.334  49.359  39.461  1.00  0.00     0.006 C 
HETATM    2  C   UNL     1      28.007  50.448  38.793  1.00  0.00     0.096 C 
HETATM    3  N   UNL     1      27.161  51.027  37.923  1.00  0.00    -0.173 NA
HETATM    4  N   UNL     1      25.972  50.473  38.145  1.00  0.00    -0.282 N 
HETATM    5  H   UNL     1      25.170  50.845  37.645  1.00  0.00     0.189 HD
HETATM    6  C   UNL     1      26.014  49.442  39.034  1.00  0.00     0.033 C 
HETATM    7  C   UNL     1      24.786  48.694  39.399  1.00  0.00     0.070 C 
ENDROOT
BRANCH   1   8
HETATM    8  C   UNL     1      27.854  48.349  40.432  1.00  0.00     0.146 C 
BRANCH   8   9
HETATM    9  C   UNL     1      28.694  49.027  41.509  1.00  0.00     0.222 C 
HETATM   10  N   UNL     1      30.006  48.620  41.604  1.00  0.00    -0.359 N 
HETATM   11  H   UNL     1      30.292  47.808  41.065  1.00  0.00     0.162 HD
HETATM   12  O   UNL     1      28.288  49.951  42.215  1.00  0.00    -0.273 OA
BRANCH  10  13
HETATM   13  C   UNL     1      30.917  49.127  42.623  1.00  0.00     0.155 C 
BRANCH  13  14
HETATM   14  C   UNL     1      31.780  50.355  42.223  1.00  0.00     0.206 C 
HETATM   15  N   UNL     1      33.254  50.155  42.567  1.00  0.00    -0.066 N 
HETATM   16  H   UNL     1      33.309  49.303  43.165  1.00  0.00     0.280 HD
HETATM   17  C   UNL     1      33.687  51.308  43.442  1.00  0.00     0.235 C 
HETATM   18  C   UNL     1      32.398  51.803  44.058  1.00  0.00     0.030 C 
HETATM   19  C   UNL     1      31.392  51.651  42.936  1.00  0.00     0.036 C 
BRANCH  15  20
HETATM   20  C   UNL     1      34.137  49.873  41.388  1.00  0.00     0.231 C 
HETATM   21  C   UNL     1      35.530  50.430  41.614  1.00  0.00     0.034 C 
ENDBRANCH  15  20
ENDBRANCH  13  14
ENDBRANCH  10  13
ENDBRANCH   8   9
ENDBRANCH   1   8
BRANCH   2  22
HETATM   22  C   UNL     1      29.381  50.993  38.893  1.00  0.00    -0.005 A 
HETATM   23  C   UNL     1      29.685  52.248  39.435  1.00  0.00     0.017 A 
HETATM   24  C   UNL     1      31.008  52.710  39.498  1.00  0.00     0.043 A 
HETATM   25  C   UNL     1      32.041  51.924  39.009  1.00  0.00     0.116 A 
HETATM   26  F   UNL     1      33.300  52.373  39.073  1.00  0.00    -0.206 F 
HETATM   27  C   UNL     1      31.778  50.682  38.458  1.00  0.00     0.043 A 
HETATM   28  C   UNL     1      30.459  50.222  38.402  1.00  0.00     0.017 A 
ENDBRANCH   2  22
TORSDOF 6
ENDMDL
