MODEL 1
REMARK VINA RESULT:      -8.7      0.000      0.000
REMARK  3 active torsions:
REMARK  status: ('A' for Active; 'I' for Inactive)
REMARK    1  A    between atoms: C_4  and  N_5 
REMARK       I    between atoms: N_5  and  C_6 
REMARK    2  A    between atoms: C_6  and  C_7 
REMARK    3  A    between atoms: C_7  and  C_8 
ROOT
HETATM    1  C   UNL     1      26.319  43.372  51.641  1.00  0.00     0.286 C 
HETATM    2  N   UNL     1      26.602  43.947  53.035  1.00  0.00    -0.056 N 
HETATM    3  H   UNL     1      26.185  44.896  53.093  1.00  0.00     0.278 HD
HETATM    4  H   UNL     1      26.119  43.374  53.738  1.00  0.00     0.278 HD
HETATM    5  C   UNL     1      28.062  44.078  53.385  1.00  0.00     0.209 C 
HETATM    6  C   UNL     1      28.777  42.745  53.097  1.00  0.00     0.115 C 
HETATM    7  N   UNL     1      28.597  42.346  51.712  1.00  0.00    -0.353 N 
HETATM    8  C   UNL     1      27.395  42.435  51.063  1.00  0.00     0.249 C 
HETATM    9  O   UNL     1      27.202  41.792  50.036  1.00  0.00    -0.271 OA
HETATM   10  C   UNL     1      28.199  44.481  54.850  1.00  0.00     0.035 C 
HETATM   11  C   UNL     1      29.673  44.580  55.238  1.00  0.00     0.002 C 
HETATM   12  C   UNL     1      30.441  43.297  54.915  1.00  0.00     0.002 C 
HETATM   13  C   UNL     1      30.259  42.862  53.460  1.00  0.00     0.027 C 
HETATM   14  H   UNL     1      29.221  41.649  51.310  1.00  0.00     0.163 HD
ENDROOT
BRANCH   1  15
HETATM   15  C   UNL     1      25.901  44.449  50.636  1.00  0.00     0.146 C 
BRANCH  15  16
HETATM   16  C   UNL     1      24.620  45.109  51.045  1.00  0.00     0.224 C 
HETATM   17  N   UNL     1      24.236  46.367  50.744  1.00  0.00    -0.327 N 
HETATM   18  H   UNL     1      23.332  46.563  51.170  1.00  0.00     0.169 HD
HETATM   19  O   UNL     1      23.913  44.471  51.844  1.00  0.00    -0.273 OA
BRANCH  17  20
HETATM   20  C   UNL     1      24.756  47.449  50.007  1.00  0.00     0.035 A 
HETATM   21  C   UNL     1      26.091  47.837  49.925  1.00  0.00     0.036 A 
HETATM   22  C   UNL     1      26.479  48.961  49.170  1.00  0.00    -0.060 A 
HETATM   23  C   UNL     1      27.927  49.349  49.066  1.00  0.00     0.048 C 
HETATM   24  C   UNL     1      25.516  49.689  48.468  1.00  0.00     0.007 A 
HETATM   25  C   UNL     1      24.181  49.309  48.529  1.00  0.00     0.003 A 
HETATM   26  C   UNL     1      23.807  48.200  49.291  1.00  0.00     0.029 A 
ENDBRANCH  17  20
ENDBRANCH  15  16
ENDBRANCH   1  15
TORSDOF 3
ENDMDL
MODEL 2
REMARK VINA RESULT:      -8.7      2.249      7.493
REMARK  3 active torsions:
REMARK  status: ('A' for Active; 'I' for Inactive)
REMARK    1  A    between atoms: C_4  and  N_5 
REMARK       I    between atoms: N_5  and  C_6 
REMARK    2  A    between atoms: C_6  and  C_7 
REMARK    3  A    between atoms: C_7  and  C_8 
ROOT
HETATM    1  C   UNL     1      26.281  47.730  49.974  1.00  0.00     0.286 C 
HETATM    2  N   UNL     1      24.750  47.668  50.063  1.00  0.00    -0.056 N 
HETATM    3  H   UNL     1      24.458  46.673  50.073  1.00  0.00     0.278 HD
HETATM    4  H   UNL     1      24.450  48.069  50.960  1.00  0.00     0.278 HD
HETATM    5  C   UNL     1      24.020  48.336  48.926  1.00  0.00     0.209 C 
HETATM    6  C   UNL     1      24.582  49.756  48.722  1.00  0.00     0.115 C 
HETATM    7  N   UNL     1      26.015  49.719  48.484  1.00  0.00    -0.353 N 
HETATM    8  C   UNL     1      26.868  48.926  49.204  1.00  0.00     0.249 C 
HETATM    9  O   UNL     1      28.071  49.166  49.210  1.00  0.00    -0.271 OA
HETATM   10  C   UNL     1      22.525  48.366  49.230  1.00  0.00     0.035 C 
HETATM   11  C   UNL     1      21.769  49.076  48.108  1.00  0.00     0.002 C 
HETATM   12  C   UNL     1      22.331  50.470  47.828  1.00  0.00     0.002 C 
HETATM   13  C   UNL     1      23.840  50.449  47.578  1.00  0.00     0.027 C 
HETATM   14  H   UNL     1      26.470  50.530  48.070  1.00  0.00     0.163 HD
ENDROOT
BRANCH   1  15
HETATM   15  C   UNL     1      26.896  46.403  49.522  1.00  0.00     0.146 C 
BRANCH  15  16
HETATM   16  C   UNL     1      26.044  45.240  49.927  1.00  0.00     0.224 C 
HETATM   17  N   UNL     1      26.219  44.459  51.013  1.00  0.00    -0.327 N 
HETATM   18  H   UNL     1      25.509  43.729  51.031  1.00  0.00     0.169 HD
HETATM   19  O   UNL     1      25.175  44.894  49.108  1.00  0.00    -0.273 OA
BRANCH  17  20
HETATM   20  C   UNL     1      27.112  44.401  52.102  1.00  0.00     0.035 A 
HETATM   21  C   UNL     1      28.264  43.625  52.194  1.00  0.00     0.036 A 
HETATM   22  C   UNL     1      29.062  43.637  53.354  1.00  0.00    -0.060 A 
HETATM   23  C   UNL     1      30.320  42.817  53.427  1.00  0.00     0.048 C 
HETATM   24  C   UNL     1      28.710  44.460  54.426  1.00  0.00     0.007 A 
HETATM   25  C   UNL     1      27.570  45.250  54.347  1.00  0.00     0.003 A 
HETATM   26  C   UNL     1      26.781  45.220  53.195  1.00  0.00     0.029 A 
ENDBRANCH  17  20
ENDBRANCH  15  16
ENDBRANCH   1  15
TORSDOF 3
ENDMDL
MODEL 3
REMARK VINA RESULT:      -8.7      1.210      1.971
REMARK  3 active torsions:
REMARK  status: ('A' for Active; 'I' for Inactive)
REMARK    1  A    between atoms: C_4  and  N_5 
REMARK       I    between atoms: N_5  and  C_6 
REMARK    2  A    between atoms: C_6  and  C_7 
REMARK    3  A    between atoms: C_7  and  C_8 
ROOT
HETATM    1  C   UNL     1      26.613  44.663  53.272  1.00  0.00     0.286 C 
HETATM    2  N   UNL     1      27.223  45.283  54.537  1.00  0.00    -0.056 N 
HETATM    3  H   UNL     1      27.090  46.311  54.500  1.00  0.00     0.278 HD
HETATM    4  H   UNL     1      26.701  44.952  55.357  1.00  0.00     0.278 HD
HETATM    5  C   UNL     1      28.697  45.030  54.723  1.00  0.00     0.209 C 
HETATM    6  C   UNL     1      28.981  43.526  54.560  1.00  0.00     0.115 C 
HETATM    7  N   UNL     1      28.519  43.045  53.269  1.00  0.00    -0.353 N 
HETATM    8  C   UNL     1      27.310  43.401  52.733  1.00  0.00     0.249 C 
HETATM    9  O   UNL     1      26.817  42.731  51.831  1.00  0.00    -0.271 OA
HETATM   10  C   UNL     1      29.130  45.535  56.095  1.00  0.00     0.035 C 
HETATM   11  C   UNL     1      30.614  45.252  56.321  1.00  0.00     0.002 C 
HETATM   12  C   UNL     1      30.957  43.776  56.112  1.00  0.00     0.002 C 
HETATM   13  C   UNL     1      30.474  43.254  54.757  1.00  0.00     0.027 C 
HETATM   14  H   UNL     1      28.873  42.159  52.912  1.00  0.00     0.163 HD
ENDROOT
BRANCH   1  15
HETATM   15  C   UNL     1      26.373  45.697  52.170  1.00  0.00     0.146 C 
BRANCH  15  16
HETATM   16  C   UNL     1      24.970  45.625  51.650  1.00  0.00     0.224 C 
HETATM   17  N   UNL     1      24.408  46.451  50.743  1.00  0.00    -0.327 N 
HETATM   18  H   UNL     1      23.436  46.187  50.592  1.00  0.00     0.169 HD
HETATM   19  O   UNL     1      24.226  44.802  52.212  1.00  0.00    -0.273 OA
BRANCH  17  20
HETATM   20  C   UNL     1      24.816  47.557  49.972  1.00  0.00     0.035 A 
HETATM   21  C   UNL     1      23.990  48.456  49.301  1.00  0.00     0.036 A 
HETATM   22  C   UNL     1      24.528  49.511  48.538  1.00  0.00    -0.060 A 
HETATM   23  C   UNL     1      23.624  50.490  47.844  1.00  0.00     0.048 C 
HETATM   24  C   UNL     1      25.912  49.679  48.469  1.00  0.00     0.007 A 
HETATM   25  C   UNL     1      26.751  48.800  49.143  1.00  0.00     0.003 A 
HETATM   26  C   UNL     1      26.206  47.751  49.887  1.00  0.00     0.029 A 
ENDBRANCH  17  20
ENDBRANCH  15  16
ENDBRANCH   1  15
TORSDOF 3
ENDMDL
MODEL 4
REMARK VINA RESULT:      -8.6      3.670      7.007
REMARK  3 active torsions:
REMARK  status: ('A' for Active; 'I' for Inactive)
REMARK    1  A    between atoms: C_4  and  N_5 
REMARK       I    between atoms: N_5  and  C_6 
REMARK    2  A    between atoms: C_6  and  C_7 
REMARK    3  A    between atoms: C_7  and  C_8 
ROOT
HETATM    1  C   UNL     1      27.936  42.939  52.744  1.00  0.00     0.286 C 
HETATM    2  N   UNL     1      27.365  43.562  51.463  1.00  0.00    -0.056 N 
HETATM    3  H   UNL     1      26.933  44.474  51.701  1.00  0.00     0.278 HD
HETATM    4  H   UNL     1      28.138  43.765  50.817  1.00  0.00     0.278 HD
HETATM    5  C   UNL     1      26.312  42.736  50.769  1.00  0.00     0.209 C 
HETATM    6  C   UNL     1      26.826  41.295  50.593  1.00  0.00     0.115 C 
HETATM    7  N   UNL     1      27.196  40.715  51.873  1.00  0.00    -0.353 N 
HETATM    8  C   UNL     1      27.904  41.402  52.823  1.00  0.00     0.249 C 
HETATM    9  O   UNL     1      28.478  40.793  53.721  1.00  0.00    -0.271 OA
HETATM   10  C   UNL     1      25.970  43.375  49.426  1.00  0.00     0.035 C 
HETATM   11  C   UNL     1      24.933  42.531  48.686  1.00  0.00     0.002 C 
HETATM   12  C   UNL     1      25.373  41.075  48.540  1.00  0.00     0.002 C 
HETATM   13  C   UNL     1      25.769  40.450  49.879  1.00  0.00     0.027 C 
HETATM   14  H   UNL     1      27.291  39.705  51.952  1.00  0.00     0.163 HD
ENDROOT
BRANCH   1  15
HETATM   15  C   UNL     1      27.372  43.587  54.012  1.00  0.00     0.146 C 
BRANCH  15  16
HETATM   16  C   UNL     1      27.617  45.064  54.024  1.00  0.00     0.224 C 
HETATM   17  N   UNL     1      28.429  45.734  54.869  1.00  0.00    -0.327 N 
HETATM   18  H   UNL     1      28.387  46.731  54.668  1.00  0.00     0.169 HD
HETATM   19  O   UNL     1      26.900  45.738  53.264  1.00  0.00    -0.273 OA
BRANCH  17  20
HETATM   20  C   UNL     1      29.298  45.411  55.930  1.00  0.00     0.035 A 
HETATM   21  C   UNL     1      30.308  44.451  55.917  1.00  0.00     0.036 A 
HETATM   22  C   UNL     1      31.094  44.204  57.059  1.00  0.00    -0.060 A 
HETATM   23  C   UNL     1      32.200  43.188  57.020  1.00  0.00     0.048 C 
HETATM   24  C   UNL     1      30.879  44.949  58.221  1.00  0.00     0.007 A 
HETATM   25  C   UNL     1      29.884  45.918  58.247  1.00  0.00     0.003 A 
HETATM   26  C   UNL     1      29.103  46.145  57.112  1.00  0.00     0.029 A 
ENDBRANCH  17  20
ENDBRANCH  15  16
ENDBRANCH   1  15
TORSDOF 3
ENDMDL
MODEL 5
REMARK VINA RESULT:      -8.6      1.788      2.891
REMARK  3 active torsions:
REMARK  status: ('A' for Active; 'I' for Inactive)
REMARK    1  A    between atoms: C_4  and  N_5 
REMARK       I    between atoms: N_5  and  C_6 
REMARK    2  A    between atoms: C_6  and  C_7 
REMARK    3  A    between atoms: C_7  and  C_8 
ROOT
HETATM    1  C   UNL     1      26.419  45.887  53.059  1.00  0.00     0.286 C 
HETATM    2  N   UNL     1      27.558  44.862  52.962  1.00  0.00    -0.056 N 
HETATM    3  H   UNL     1      27.173  43.971  52.596  1.00  0.00     0.278 HD
HETATM    4  H   UNL     1      28.244  45.189  52.269  1.00  0.00     0.278 HD
HETATM    5  C   UNL     1      28.246  44.550  54.266  1.00  0.00     0.209 C 
HETATM    6  C   UNL     1      28.641  45.865  54.963  1.00  0.00     0.115 C 
HETATM    7  N   UNL     1      27.480  46.715  55.166  1.00  0.00    -0.353 N 
HETATM    8  C   UNL     1      26.523  46.909  54.205  1.00  0.00     0.249 C 
HETATM    9  O   UNL     1      25.763  47.869  54.280  1.00  0.00    -0.271 OA
HETATM   10  C   UNL     1      29.465  43.671  53.999  1.00  0.00     0.035 C 
HETATM   11  C   UNL     1      30.202  43.376  55.305  1.00  0.00     0.002 C 
HETATM   12  C   UNL     1      30.562  44.653  56.064  1.00  0.00     0.002 C 
HETATM   13  C   UNL     1      29.351  45.560  56.284  1.00  0.00     0.027 C 
HETATM   14  H   UNL     1      27.532  47.475  55.842  1.00  0.00     0.163 HD
ENDROOT
BRANCH   1  15
HETATM   15  C   UNL     1      25.037  45.233  53.002  1.00  0.00     0.146 C 
BRANCH  15  16
HETATM   16  C   UNL     1      24.792  44.589  51.672  1.00  0.00     0.224 C 
HETATM   17  N   UNL     1      24.805  45.202  50.471  1.00  0.00    -0.327 N 
HETATM   18  H   UNL     1      24.583  44.531  49.738  1.00  0.00     0.169 HD
HETATM   19  O   UNL     1      24.415  43.404  51.705  1.00  0.00    -0.273 OA
BRANCH  17  20
HETATM   20  C   UNL     1      25.045  46.503  49.986  1.00  0.00     0.035 A 
HETATM   21  C   UNL     1      26.285  47.112  49.809  1.00  0.00     0.036 A 
HETATM   22  C   UNL     1      26.388  48.435  49.339  1.00  0.00    -0.060 A 
HETATM   23  C   UNL     1      27.734  49.068  49.124  1.00  0.00     0.048 C 
HETATM   24  C   UNL     1      25.230  49.148  49.019  1.00  0.00     0.007 A 
HETATM   25  C   UNL     1      23.985  48.552  49.178  1.00  0.00     0.003 A 
HETATM   26  C   UNL     1      23.896  47.243  49.656  1.00  0.00     0.029 A 
ENDBRANCH  17  20
ENDBRANCH  15  16
ENDBRANCH   1  15
TORSDOF 3
ENDMDL
MODEL 6
REMARK VINA RESULT:      -8.6      1.338      7.172
REMARK  3 active torsions:
REMARK  status: ('A' for Active; 'I' for Inactive)
REMARK    1  A    between atoms: C_4  and  N_5 
REMARK       I    between atoms: N_5  and  C_6 
REMARK    2  A    between atoms: C_6  and  C_7 
REMARK    3  A    between atoms: C_7  and  C_8 
ROOT
HETATM    1  C   UNL     1      26.204  45.160  50.955  1.00  0.00     0.286 C 
HETATM    2  N   UNL     1      27.037  46.150  50.129  1.00  0.00    -0.056 N 
HETATM    3  H   UNL     1      27.960  46.271  50.588  1.00  0.00     0.278 HD
HETATM    4  H   UNL     1      27.223  45.740  49.205  1.00  0.00     0.278 HD
HETATM    5  C   UNL     1      26.431  47.521  49.977  1.00  0.00     0.209 C 
HETATM    6  C   UNL     1      24.970  47.384  49.509  1.00  0.00     0.115 C 
HETATM    7  N   UNL     1      24.203  46.563  50.430  1.00  0.00    -0.353 N 
HETATM    8  C   UNL     1      24.683  45.398  50.964  1.00  0.00     0.249 C 
HETATM    9  O   UNL     1      23.908  44.580  51.452  1.00  0.00    -0.271 OA
HETATM   10  C   UNL     1      27.260  48.337  48.990  1.00  0.00     0.035 C 
HETATM   11  C   UNL     1      26.639  49.718  48.789  1.00  0.00     0.002 C 
HETATM   12  C   UNL     1      25.168  49.634  48.380  1.00  0.00     0.002 C 
HETATM   13  C   UNL     1      24.346  48.771  49.340  1.00  0.00     0.027 C 
HETATM   14  H   UNL     1      23.186  46.606  50.405  1.00  0.00     0.163 HD
ENDROOT
BRANCH   1  15
HETATM   15  C   UNL     1      26.759  44.964  52.368  1.00  0.00     0.146 C 
BRANCH  15  16
HETATM   16  C   UNL     1      27.318  43.586  52.549  1.00  0.00     0.224 C 
HETATM   17  N   UNL     1      28.272  43.218  53.429  1.00  0.00    -0.327 N 
HETATM   18  H   UNL     1      28.478  42.227  53.320  1.00  0.00     0.169 HD
HETATM   19  O   UNL     1      26.953  42.740  51.714  1.00  0.00    -0.273 OA
BRANCH  17  20
HETATM   20  C   UNL     1      29.034  43.842  54.437  1.00  0.00     0.035 A 
HETATM   21  C   UNL     1      30.092  43.282  55.148  1.00  0.00     0.036 A 
HETATM   22  C   UNL     1      30.758  44.007  56.155  1.00  0.00    -0.060 A 
HETATM   23  C   UNL     1      31.919  43.401  56.894  1.00  0.00     0.048 C 
HETATM   24  C   UNL     1      30.372  45.320  56.433  1.00  0.00     0.007 A 
HETATM   25  C   UNL     1      29.326  45.898  55.724  1.00  0.00     0.003 A 
HETATM   26  C   UNL     1      28.666  45.165  54.736  1.00  0.00     0.029 A 
ENDBRANCH  17  20
ENDBRANCH  15  16
ENDBRANCH   1  15
TORSDOF 3
ENDMDL
MODEL 7
REMARK VINA RESULT:      -8.6      3.005      6.700
REMARK  3 active torsions:
REMARK  status: ('A' for Active; 'I' for Inactive)
REMARK    1  A    between atoms: C_4  and  N_5 
REMARK       I    between atoms: N_5  and  C_6 
REMARK    2  A    between atoms: C_6  and  C_7 
REMARK    3  A    between atoms: C_7  and  C_8 
ROOT
HETATM    1  C   UNL     1      26.262  46.217  53.586  1.00  0.00     0.286 C 
HETATM    2  N   UNL     1      26.723  44.788  53.900  1.00  0.00    -0.056 N 
HETATM    3  H   UNL     1      27.473  44.830  54.616  1.00  0.00     0.278 HD
HETATM    4  H   UNL     1      25.943  44.271  54.326  1.00  0.00     0.278 HD
HETATM    5  C   UNL     1      27.272  44.023  52.724  1.00  0.00     0.209 C 
HETATM    6  C   UNL     1      26.286  44.121  51.545  1.00  0.00     0.115 C 
HETATM    7  N   UNL     1      26.022  45.508  51.201  1.00  0.00    -0.353 N 
HETATM    8  C   UNL     1      25.799  46.478  52.141  1.00  0.00     0.249 C 
HETATM    9  O   UNL     1      25.259  47.532  51.820  1.00  0.00    -0.271 OA
HETATM   10  C   UNL     1      27.515  42.572  53.129  1.00  0.00     0.035 C 
HETATM   11  C   UNL     1      28.034  41.768  51.938  1.00  0.00     0.002 C 
HETATM   12  C   UNL     1      27.116  41.883  50.721  1.00  0.00     0.002 C 
HETATM   13  C   UNL     1      26.827  43.338  50.347  1.00  0.00     0.027 C 
HETATM   14  H   UNL     1      25.618  45.726  50.292  1.00  0.00     0.163 HD
ENDROOT
BRANCH   1  15
HETATM   15  C   UNL     1      27.262  47.274  54.063  1.00  0.00     0.146 C 
BRANCH  15  16
HETATM   16  C   UNL     1      27.122  47.533  55.532  1.00  0.00     0.224 C 
HETATM   17  N   UNL     1      27.843  46.961  56.518  1.00  0.00    -0.327 N 
HETATM   18  H   UNL     1      27.522  47.302  57.422  1.00  0.00     0.169 HD
HETATM   19  O   UNL     1      26.161  48.247  55.867  1.00  0.00    -0.273 OA
BRANCH  17  20
HETATM   20  C   UNL     1      28.902  46.035  56.611  1.00  0.00     0.035 A 
HETATM   21  C   UNL     1      29.288  45.112  55.643  1.00  0.00     0.036 A 
HETATM   22  C   UNL     1      30.353  44.219  55.870  1.00  0.00    -0.060 A 
HETATM   23  C   UNL     1      30.778  43.248  54.804  1.00  0.00     0.048 C 
HETATM   24  C   UNL     1      31.056  44.273  57.076  1.00  0.00     0.007 A 
HETATM   25  C   UNL     1      30.692  45.197  58.047  1.00  0.00     0.003 A 
HETATM   26  C   UNL     1      29.626  46.069  57.815  1.00  0.00     0.029 A 
ENDBRANCH  17  20
ENDBRANCH  15  16
ENDBRANCH   1  15
TORSDOF 3
ENDMDL
MODEL 8
REMARK VINA RESULT:      -8.4      2.349      7.464
REMARK  3 active torsions:
REMARK  status: ('A' for Active; 'I' for Inactive)
REMARK    1  A    between atoms: C_4  and  N_5 
REMARK       I    between atoms: N_5  and  C_6 
REMARK    2  A    between atoms: C_6  and  C_7 
REMARK    3  A    between atoms: C_7  and  C_8 
ROOT
HETATM    1  C   UNL     1      26.013  44.234  54.123  1.00  0.00     0.286 C 
HETATM    2  N   UNL     1      25.064  43.895  52.965  1.00  0.00    -0.056 N 
HETATM    3  H   UNL     1      25.229  42.912  52.678  1.00  0.00     0.278 HD
HETATM    4  H   UNL     1      24.095  43.942  53.302  1.00  0.00     0.278 HD
HETATM    5  C   UNL     1      25.229  44.752  51.736  1.00  0.00     0.209 C 
HETATM    6  C   UNL     1      25.219  46.237  52.144  1.00  0.00     0.115 C 
HETATM    7  N   UNL     1      26.253  46.514  53.127  1.00  0.00    -0.353 N 
HETATM    8  C   UNL     1      26.507  45.690  54.191  1.00  0.00     0.249 C 
HETATM    9  O   UNL     1      27.131  46.112  55.159  1.00  0.00    -0.271 OA
HETATM   10  C   UNL     1      24.114  44.438  50.744  1.00  0.00     0.035 C 
HETATM   11  C   UNL     1      24.238  45.325  49.507  1.00  0.00     0.002 C 
HETATM   12  C   UNL     1      24.292  46.810  49.866  1.00  0.00     0.002 C 
HETATM   13  C   UNL     1      25.374  47.118  50.903  1.00  0.00     0.027 C 
HETATM   14  H   UNL     1      26.543  47.477  53.285  1.00  0.00     0.163 HD
ENDROOT
BRANCH   1  15
HETATM   15  C   UNL     1      27.165  43.234  54.249  1.00  0.00     0.146 C 
BRANCH  15  16
HETATM   16  C   UNL     1      28.369  43.689  53.483  1.00  0.00     0.224 C 
HETATM   17  N   UNL     1      29.555  44.065  54.005  1.00  0.00    -0.327 N 
HETATM   18  H   UNL     1      30.185  44.350  53.257  1.00  0.00     0.169 HD
HETATM   19  O   UNL     1      28.203  43.855  52.261  1.00  0.00    -0.273 OA
BRANCH  17  20
HETATM   20  C   UNL     1      30.127  44.160  55.289  1.00  0.00     0.035 A 
HETATM   21  C   UNL     1      29.982  45.212  56.190  1.00  0.00     0.036 A 
HETATM   22  C   UNL     1      30.631  45.197  57.439  1.00  0.00    -0.060 A 
HETATM   23  C   UNL     1      30.441  46.325  58.414  1.00  0.00     0.048 C 
HETATM   24  C   UNL     1      31.416  44.099  57.798  1.00  0.00     0.007 A 
HETATM   25  C   UNL     1      31.562  43.035  56.916  1.00  0.00     0.003 A 
HETATM   26  C   UNL     1      30.922  43.068  55.675  1.00  0.00     0.029 A 
ENDBRANCH  17  20
ENDBRANCH  15  16
ENDBRANCH   1  15
TORSDOF 3
ENDMDL
MODEL 9
REMARK VINA RESULT:      -8.3      1.151      6.824
REMARK  3 active torsions:
REMARK  status: ('A' for Active; 'I' for Inactive)
REMARK    1  A    between atoms: C_4  and  N_5 
REMARK       I    between atoms: N_5  and  C_6 
REMARK    2  A    between atoms: C_6  and  C_7 
REMARK    3  A    between atoms: C_7  and  C_8 
ROOT
HETATM    1  C   UNL     1      25.859  44.258  50.626  1.00  0.00     0.286 C 
HETATM    2  N   UNL     1      26.817  45.241  49.939  1.00  0.00    -0.056 N 
HETATM    3  H   UNL     1      27.753  45.154  50.377  1.00  0.00     0.278 HD
HETATM    4  H   UNL     1      26.930  44.966  48.955  1.00  0.00     0.278 HD
HETATM    5  C   UNL     1      26.414  46.690  50.030  1.00  0.00     0.209 C 
HETATM    6  C   UNL     1      24.943  46.840  49.599  1.00  0.00     0.115 C 
HETATM    7  N   UNL     1      24.077  45.996  50.404  1.00  0.00    -0.353 N 
HETATM    8  C   UNL     1      24.390  44.703  50.728  1.00  0.00     0.249 C 
HETATM    9  O   UNL     1      23.511  43.934  51.106  1.00  0.00    -0.271 OA
HETATM   10  C   UNL     1      27.340  47.531  49.156  1.00  0.00     0.035 C 
HETATM   11  C   UNL     1      26.924  49.000  49.201  1.00  0.00     0.002 C 
HETATM   12  C   UNL     1      25.451  49.193  48.838  1.00  0.00     0.002 C 
HETATM   13  C   UNL     1      24.525  48.309  49.676  1.00  0.00     0.027 C 
HETATM   14  H   UNL     1      23.076  46.186  50.424  1.00  0.00     0.163 HD
ENDROOT
BRANCH   1  15
HETATM   15  C   UNL     1      26.398  43.757  51.968  1.00  0.00     0.146 C 
BRANCH  15  16
HETATM   16  C   UNL     1      27.627  42.920  51.786  1.00  0.00     0.224 C 
HETATM   17  N   UNL     1      28.726  42.930  52.568  1.00  0.00    -0.327 N 
HETATM   18  H   UNL     1      29.417  42.280  52.199  1.00  0.00     0.169 HD
HETATM   19  O   UNL     1      27.677  42.253  50.738  1.00  0.00    -0.273 OA
BRANCH  17  20
HETATM   20  C   UNL     1      29.147  43.594  53.737  1.00  0.00     0.035 A 
HETATM   21  C   UNL     1      28.549  44.706  54.325  1.00  0.00     0.036 A 
HETATM   22  C   UNL     1      29.087  45.295  55.486  1.00  0.00    -0.060 A 
HETATM   23  C   UNL     1      28.412  46.476  56.127  1.00  0.00     0.048 C 
HETATM   24  C   UNL     1      30.226  44.745  56.077  1.00  0.00     0.007 A 
HETATM   25  C   UNL     1      30.829  43.629  55.510  1.00  0.00     0.003 A 
HETATM   26  C   UNL     1      30.292  43.061  54.352  1.00  0.00     0.029 A 
ENDBRANCH  17  20
ENDBRANCH  15  16
ENDBRANCH   1  15
TORSDOF 3
ENDMDL
MODEL 10
REMARK VINA RESULT:      -8.3      1.875      7.023
REMARK  3 active torsions:
REMARK  status: ('A' for Active; 'I' for Inactive)
REMARK    1  A    between atoms: C_4  and  N_5 
REMARK       I    between atoms: N_5  and  C_6 
REMARK    2  A    between atoms: C_6  and  C_7 
REMARK    3  A    between atoms: C_7  and  C_8 
ROOT
HETATM    1  C   UNL     1      25.275  44.905  51.384  1.00  0.00     0.286 C 
HETATM    2  N   UNL     1      25.636  46.278  50.802  1.00  0.00    -0.056 N 
HETATM    3  H   UNL     1      26.090  46.844  51.544  1.00  0.00     0.278 HD
HETATM    4  H   UNL     1      26.337  46.154  50.061  1.00  0.00     0.278 HD
HETATM    5  C   UNL     1      24.468  47.077  50.283  1.00  0.00     0.209 C 
HETATM    6  C   UNL     1      23.626  46.197  49.342  1.00  0.00     0.115 C 
HETATM    7  N   UNL     1      23.184  44.988  50.015  1.00  0.00    -0.353 N 
HETATM    8  C   UNL     1      24.005  44.242  50.819  1.00  0.00     0.249 C 
HETATM    9  O   UNL     1      23.712  43.082  51.087  1.00  0.00    -0.271 OA
HETATM   10  C   UNL     1      24.982  48.325  49.571  1.00  0.00     0.035 C 
HETATM   11  C   UNL     1      23.816  49.129  49.001  1.00  0.00     0.002 C 
HETATM   12  C   UNL     1      22.914  48.280  48.105  1.00  0.00     0.002 C 
HETATM   13  C   UNL     1      22.442  47.001  48.799  1.00  0.00     0.027 C 
HETATM   14  H   UNL     1      22.411  44.454  49.623  1.00  0.00     0.163 HD
ENDROOT
BRANCH   1  15
HETATM   15  C   UNL     1      25.290  44.894  52.914  1.00  0.00     0.146 C 
BRANCH  15  16
HETATM   16  C   UNL     1      26.147  45.995  53.459  1.00  0.00     0.224 C 
HETATM   17  N   UNL     1      27.422  45.881  53.887  1.00  0.00    -0.327 N 
HETATM   18  H   UNL     1      27.753  46.781  54.228  1.00  0.00     0.169 HD
HETATM   19  O   UNL     1      25.575  47.083  53.649  1.00  0.00    -0.273 OA
BRANCH  17  20
HETATM   20  C   UNL     1      28.386  44.857  53.978  1.00  0.00     0.035 A 
HETATM   21  C   UNL     1      29.217  44.589  55.062  1.00  0.00     0.036 A 
HETATM   22  C   UNL     1      30.162  43.546  55.017  1.00  0.00    -0.060 A 
HETATM   23  C   UNL     1      31.031  43.248  56.206  1.00  0.00     0.048 C 
HETATM   24  C   UNL     1      30.256  42.746  53.875  1.00  0.00     0.007 A 
HETATM   25  C   UNL     1      29.426  42.992  52.789  1.00  0.00     0.003 A 
HETATM   26  C   UNL     1      28.500  44.037  52.842  1.00  0.00     0.029 A 
ENDBRANCH  17  20
ENDBRANCH  15  16
ENDBRANCH   1  15
TORSDOF 3
ENDMDL
