MODEL 1
REMARK VINA RESULT:      -8.5      0.000      0.000
REMARK  3 active torsions:
REMARK  status: ('A' for Active; 'I' for Inactive)
REMARK    1  A    between atoms: C_4  and  N_5 
REMARK       I    between atoms: N_5  and  C_6 
REMARK    2  A    between atoms: C_6  and  C_7 
REMARK    3  A    between atoms: C_7  and  C_8 
ROOT
HETATM    1  C   UNL     1      26.185  46.361  54.005  1.00  0.00     0.286 C 
HETATM    2  N   UNL     1      26.565  44.979  54.550  1.00  0.00    -0.056 N 
HETATM    3  H   UNL     1      27.220  45.098  55.341  1.00  0.00     0.278 HD
HETATM    4  H   UNL     1      25.722  44.531  54.933  1.00  0.00     0.278 HD
HETATM    5  C   UNL     1      27.222  44.053  53.558  1.00  0.00     0.209 C 
HETATM    6  C   UNL     1      26.402  44.009  52.255  1.00  0.00     0.115 C 
HETATM    7  N   UNL     1      26.163  45.338  51.723  1.00  0.00    -0.353 N 
HETATM    8  C   UNL     1      25.898  46.435  52.493  1.00  0.00     0.249 C 
HETATM    9  O   UNL     1      25.517  47.477  51.965  1.00  0.00    -0.271 OA
HETATM   10  C   UNL     1      27.353  42.657  54.160  1.00  0.00     0.035 C 
HETATM   11  C   UNL     1      28.037  41.719  53.164  1.00  0.00     0.002 C 
HETATM   12  C   UNL     1      27.350  41.716  51.797  1.00  0.00     0.002 C 
HETATM   13  C   UNL     1      27.130  43.123  51.240  1.00  0.00     0.027 C 
HETATM   14  H   UNL     1      25.899  45.442  50.745  1.00  0.00     0.163 HD
ENDROOT
BRANCH   1  15
HETATM   15  C   UNL     1      27.201  47.440  54.395  1.00  0.00     0.146 C 
BRANCH  15  16
HETATM   16  C   UNL     1      27.987  46.970  55.590  1.00  0.00     0.224 C 
HETATM   17  N   UNL     1      29.192  46.386  55.268  1.00  0.00    -0.327 N 
HETATM   18  H   UNL     1      29.564  46.535  54.331  1.00  0.00     0.169 HD
HETATM   19  O   UNL     1      27.432  46.996  56.686  1.00  0.00    -0.273 OA
BRANCH  17  20
HETATM   20  C   UNL     1      29.986  45.557  56.091  1.00  0.00     0.034 A 
HETATM   21  C   UNL     1      30.317  45.856  57.414  1.00  0.00     0.029 A 
HETATM   22  C   UNL     1      31.061  44.951  58.179  1.00  0.00     0.002 A 
HETATM   23  C   UNL     1      31.486  43.745  57.626  1.00  0.00     0.000 A 
HETATM   24  C   UNL     1      31.168  43.443  56.306  1.00  0.00     0.002 A 
HETATM   25  C   UNL     1      30.421  44.344  55.542  1.00  0.00     0.029 A 
ENDBRANCH  17  20
ENDBRANCH  15  16
ENDBRANCH   1  15
TORSDOF 3
ENDMDL
MODEL 2
REMARK VINA RESULT:      -8.1      3.239      4.333
REMARK  3 active torsions:
REMARK  status: ('A' for Active; 'I' for Inactive)
REMARK    1  A    between atoms: C_4  and  N_5 
REMARK       I    between atoms: N_5  and  C_6 
REMARK    2  A    between atoms: C_6  and  C_7 
REMARK    3  A    between atoms: C_7  and  C_8 
ROOT
HETATM    1  C   UNL     1      27.622  41.515  52.123  1.00  0.00     0.286 C 
HETATM    2  N   UNL     1      28.548  40.300  51.973  1.00  0.00    -0.056 N 
HETATM    3  H   UNL     1      29.487  40.548  52.323  1.00  0.00     0.278 HD
HETATM    4  H   UNL     1      28.200  39.543  52.576  1.00  0.00     0.278 HD
HETATM    5  C   UNL     1      28.714  39.787  50.564  1.00  0.00     0.209 C 
HETATM    6  C   UNL     1      27.336  39.611  49.902  1.00  0.00     0.115 C 
HETATM    7  N   UNL     1      26.541  40.824  49.976  1.00  0.00    -0.353 N 
HETATM    8  C   UNL     1      26.519  41.659  51.057  1.00  0.00     0.249 C 
HETATM    9  O   UNL     1      25.681  42.554  51.123  1.00  0.00    -0.271 OA
HETATM   10  C   UNL     1      29.477  38.466  50.581  1.00  0.00     0.035 C 
HETATM   11  C   UNL     1      29.666  37.953  49.153  1.00  0.00     0.002 C 
HETATM   12  C   UNL     1      28.347  37.868  48.383  1.00  0.00     0.002 C 
HETATM   13  C   UNL     1      27.536  39.163  48.451  1.00  0.00     0.027 C 
HETATM   14  H   UNL     1      25.753  40.941  49.342  1.00  0.00     0.163 HD
ENDROOT
BRANCH   1  15
HETATM   15  C   UNL     1      28.402  42.828  52.247  1.00  0.00     0.146 C 
BRANCH  15  16
HETATM   16  C   UNL     1      28.449  43.240  53.695  1.00  0.00     0.224 C 
HETATM   17  N   UNL     1      29.561  43.982  54.025  1.00  0.00    -0.327 N 
HETATM   18  H   UNL     1      30.106  44.395  53.270  1.00  0.00     0.169 HD
HETATM   19  O   UNL     1      27.613  42.757  54.455  1.00  0.00    -0.273 OA
BRANCH  17  20
HETATM   20  C   UNL     1      30.071  44.224  55.319  1.00  0.00     0.034 A 
HETATM   21  C   UNL     1      29.749  45.342  56.091  1.00  0.00     0.029 A 
HETATM   22  C   UNL     1      30.254  45.477  57.388  1.00  0.00     0.002 A 
HETATM   23  C   UNL     1      31.090  44.499  57.923  1.00  0.00     0.000 A 
HETATM   24  C   UNL     1      31.424  43.385  57.159  1.00  0.00     0.002 A 
HETATM   25  C   UNL     1      30.916  43.248  55.864  1.00  0.00     0.029 A 
ENDBRANCH  17  20
ENDBRANCH  15  16
ENDBRANCH   1  15
TORSDOF 3
ENDMDL
MODEL 3
REMARK VINA RESULT:      -8.0      3.092      5.020
REMARK  3 active torsions:
REMARK  status: ('A' for Active; 'I' for Inactive)
REMARK    1  A    between atoms: C_4  and  N_5 
REMARK       I    between atoms: N_5  and  C_6 
REMARK    2  A    between atoms: C_6  and  C_7 
REMARK    3  A    between atoms: C_7  and  C_8 
ROOT
HETATM    1  C   UNL     1      25.469  45.222  50.934  1.00  0.00     0.286 C 
HETATM    2  N   UNL     1      25.973  46.529  50.311  1.00  0.00    -0.056 N 
HETATM    3  H   UNL     1      26.625  46.987  50.969  1.00  0.00     0.278 HD
HETATM    4  H   UNL     1      26.518  46.305  49.468  1.00  0.00     0.278 HD
HETATM    5  C   UNL     1      24.902  47.534  49.966  1.00  0.00     0.209 C 
HETATM    6  C   UNL     1      23.777  46.852  49.168  1.00  0.00     0.115 C 
HETATM    7  N   UNL     1      23.261  45.682  49.855  1.00  0.00    -0.353 N 
HETATM    8  C   UNL     1      24.035  44.802  50.557  1.00  0.00     0.249 C 
HETATM    9  O   UNL     1      23.558  43.739  50.943  1.00  0.00    -0.271 OA
HETATM   10  C   UNL     1      25.509  48.684  49.168  1.00  0.00     0.035 C 
HETATM   11  C   UNL     1      24.430  49.716  48.835  1.00  0.00     0.002 C 
HETATM   12  C   UNL     1      23.215  49.090  48.147  1.00  0.00     0.002 C 
HETATM   13  C   UNL     1      22.669  47.875  48.898  1.00  0.00     0.027 C 
HETATM   14  H   UNL     1      22.346  45.316  49.595  1.00  0.00     0.163 HD
ENDROOT
BRANCH   1  15
HETATM   15  C   UNL     1      25.633  45.202  52.458  1.00  0.00     0.146 C 
BRANCH  15  16
HETATM   16  C   UNL     1      26.969  44.599  52.804  1.00  0.00     0.224 C 
HETATM   17  N   UNL     1      27.250  44.609  54.152  1.00  0.00    -0.327 N 
HETATM   18  H   UNL     1      26.483  44.771  54.802  1.00  0.00     0.169 HD
HETATM   19  O   UNL     1      27.727  44.320  51.878  1.00  0.00    -0.273 OA
BRANCH  17  20
HETATM   20  C   UNL     1      28.513  44.444  54.761  1.00  0.00     0.034 A 
HETATM   21  C   UNL     1      29.333  43.329  54.574  1.00  0.00     0.029 A 
HETATM   22  C   UNL     1      30.597  43.271  55.171  1.00  0.00     0.002 A 
HETATM   23  C   UNL     1      31.050  44.324  55.962  1.00  0.00     0.000 A 
HETATM   24  C   UNL     1      30.237  45.436  56.161  1.00  0.00     0.002 A 
HETATM   25  C   UNL     1      28.975  45.496  55.562  1.00  0.00     0.029 A 
ENDBRANCH  17  20
ENDBRANCH  15  16
ENDBRANCH   1  15
TORSDOF 3
ENDMDL
MODEL 4
REMARK VINA RESULT:      -8.0      1.597      2.050
REMARK  3 active torsions:
REMARK  status: ('A' for Active; 'I' for Inactive)
REMARK    1  A    between atoms: C_4  and  N_5 
REMARK       I    between atoms: N_5  and  C_6 
REMARK    2  A    between atoms: C_6  and  C_7 
REMARK    3  A    between atoms: C_7  and  C_8 
ROOT
HETATM    1  C   UNL     1      25.942  44.393  52.824  1.00  0.00     0.286 C 
HETATM    2  N   UNL     1      26.623  43.018  52.854  1.00  0.00    -0.056 N 
HETATM    3  H   UNL     1      27.422  43.053  53.509  1.00  0.00     0.278 HD
HETATM    4  H   UNL     1      25.961  42.330  53.236  1.00  0.00     0.278 HD
HETATM    5  C   UNL     1      27.150  42.530  51.528  1.00  0.00     0.209 C 
HETATM    6  C   UNL     1      26.062  42.668  50.447  1.00  0.00     0.115 C 
HETATM    7  N   UNL     1      25.528  44.016  50.387  1.00  0.00    -0.353 N 
HETATM    8  C   UNL     1      25.303  44.800  51.482  1.00  0.00     0.249 C 
HETATM    9  O   UNL     1      24.672  45.847  51.368  1.00  0.00    -0.271 OA
HETATM   10  C   UNL     1      27.605  41.079  51.654  1.00  0.00     0.035 C 
HETATM   11  C   UNL     1      28.159  40.587  50.316  1.00  0.00     0.002 C 
HETATM   12  C   UNL     1      27.179  40.805  49.161  1.00  0.00     0.002 C 
HETATM   13  C   UNL     1      26.646  42.237  49.098  1.00  0.00     0.027 C 
HETATM   14  H   UNL     1      25.031  44.316  49.550  1.00  0.00     0.163 HD
ENDROOT
BRANCH   1  15
HETATM   15  C   UNL     1      26.865  45.510  53.321  1.00  0.00     0.146 C 
BRANCH  15  16
HETATM   16  C   UNL     1      27.452  45.112  54.650  1.00  0.00     0.224 C 
HETATM   17  N   UNL     1      28.747  45.544  54.837  1.00  0.00    -0.327 N 
HETATM   18  H   UNL     1      29.105  46.272  54.221  1.00  0.00     0.169 HD
HETATM   19  O   UNL     1      26.811  44.330  55.347  1.00  0.00    -0.273 OA
BRANCH  17  20
HETATM   20  C   UNL     1      29.676  45.067  55.787  1.00  0.00     0.034 A 
HETATM   21  C   UNL     1      29.888  45.653  57.036  1.00  0.00     0.029 A 
HETATM   22  C   UNL     1      30.789  45.082  57.943  1.00  0.00     0.002 A 
HETATM   23  C   UNL     1      31.487  43.925  57.605  1.00  0.00     0.000 A 
HETATM   24  C   UNL     1      31.288  43.338  56.360  1.00  0.00     0.002 A 
HETATM   25  C   UNL     1      30.386  43.906  55.455  1.00  0.00     0.029 A 
ENDBRANCH  17  20
ENDBRANCH  15  16
ENDBRANCH   1  15
TORSDOF 3
ENDMDL
MODEL 5
REMARK VINA RESULT:      -7.9      3.683      7.519
REMARK  3 active torsions:
REMARK  status: ('A' for Active; 'I' for Inactive)
REMARK    1  A    between atoms: C_4  and  N_5 
REMARK       I    between atoms: N_5  and  C_6 
REMARK    2  A    between atoms: C_6  and  C_7 
REMARK    3  A    between atoms: C_7  and  C_8 
ROOT
HETATM    1  C   UNL     1      26.312  45.056  51.155  1.00  0.00     0.286 C 
HETATM    2  N   UNL     1      26.603  45.251  52.649  1.00  0.00    -0.056 N 
HETATM    3  H   UNL     1      26.545  46.258  52.873  1.00  0.00     0.278 HD
HETATM    4  H   UNL     1      25.863  44.787  53.192  1.00  0.00     0.278 HD
HETATM    5  C   UNL     1      27.952  44.763  53.113  1.00  0.00     0.209 C 
HETATM    6  C   UNL     1      28.194  43.328  52.609  1.00  0.00     0.115 C 
HETATM    7  N   UNL     1      28.013  43.222  51.173  1.00  0.00    -0.353 N 
HETATM    8  C   UNL     1      27.045  43.885  50.472  1.00  0.00     0.249 C 
HETATM    9  O   UNL     1      26.833  43.596  49.298  1.00  0.00    -0.271 OA
HETATM   10  C   UNL     1      28.028  44.820  54.635  1.00  0.00     0.035 C 
HETATM   11  C   UNL     1      29.402  44.345  55.109  1.00  0.00     0.002 C 
HETATM   12  C   UNL     1      29.772  42.971  54.546  1.00  0.00     0.002 C 
HETATM   13  C   UNL     1      29.599  42.886  53.029  1.00  0.00     0.027 C 
HETATM   14  H   UNL     1      28.415  42.428  50.678  1.00  0.00     0.163 HD
ENDROOT
BRANCH   1  15
HETATM   15  C   UNL     1      26.523  46.342  50.348  1.00  0.00     0.146 C 
BRANCH  15  16
HETATM   16  C   UNL     1      25.302  47.214  50.481  1.00  0.00     0.224 C 
HETATM   17  N   UNL     1      24.769  47.611  49.275  1.00  0.00    -0.327 N 
HETATM   18  H   UNL     1      25.057  47.113  48.434  1.00  0.00     0.169 HD
HETATM   19  O   UNL     1      25.004  47.613  51.604  1.00  0.00    -0.273 OA
BRANCH  17  20
HETATM   20  C   UNL     1      23.867  48.674  49.050  1.00  0.00     0.034 A 
HETATM   21  C   UNL     1      24.254  49.960  48.667  1.00  0.00     0.029 A 
HETATM   22  C   UNL     1      23.291  50.942  48.409  1.00  0.00     0.002 A 
HETATM   23  C   UNL     1      21.936  50.647  48.535  1.00  0.00     0.000 A 
HETATM   24  C   UNL     1      21.540  49.371  48.923  1.00  0.00     0.002 A 
HETATM   25  C   UNL     1      22.502  48.389  49.179  1.00  0.00     0.029 A 
ENDBRANCH  17  20
ENDBRANCH  15  16
ENDBRANCH   1  15
TORSDOF 3
ENDMDL
MODEL 6
REMARK VINA RESULT:      -7.9      2.067      6.464
REMARK  3 active torsions:
REMARK  status: ('A' for Active; 'I' for Inactive)
REMARK    1  A    between atoms: C_4  and  N_5 
REMARK       I    between atoms: N_5  and  C_6 
REMARK    2  A    between atoms: C_6  and  C_7 
REMARK    3  A    between atoms: C_7  and  C_8 
ROOT
HETATM    1  C   UNL     1      27.792  45.350  54.032  1.00  0.00     0.286 C 
HETATM    2  N   UNL     1      28.966  44.372  54.166  1.00  0.00    -0.056 N 
HETATM    3  H   UNL     1      28.671  43.444  53.821  1.00  0.00     0.278 HD
HETATM    4  H   UNL     1      29.729  44.685  53.552  1.00  0.00     0.278 HD
HETATM    5  C   UNL     1      29.492  44.184  55.568  1.00  0.00     0.209 C 
HETATM    6  C   UNL     1      29.738  45.554  56.226  1.00  0.00     0.115 C 
HETATM    7  N   UNL     1      28.561  46.401  56.168  1.00  0.00    -0.353 N 
HETATM    8  C   UNL     1      27.712  46.459  55.099  1.00  0.00     0.249 C 
HETATM    9  O   UNL     1      26.854  47.336  55.046  1.00  0.00    -0.271 OA
HETATM   10  C   UNL     1      30.777  43.363  55.532  1.00  0.00     0.035 C 
HETATM   11  C   UNL     1      31.303  43.152  56.953  1.00  0.00     0.002 C 
HETATM   12  C   UNL     1      31.457  44.467  57.720  1.00  0.00     0.002 C 
HETATM   13  C   UNL     1      30.198  45.335  57.670  1.00  0.00     0.027 C 
HETATM   14  H   UNL     1      28.488  47.194  56.802  1.00  0.00     0.163 HD
ENDROOT
BRANCH   1  15
HETATM   15  C   UNL     1      26.443  44.630  53.929  1.00  0.00     0.146 C 
BRANCH  15  16
HETATM   16  C   UNL     1      25.752  45.056  52.661  1.00  0.00     0.224 C 
HETATM   17  N   UNL     1      26.390  46.080  51.998  1.00  0.00    -0.327 N 
HETATM   18  H   UNL     1      27.354  46.290  52.250  1.00  0.00     0.169 HD
HETATM   19  O   UNL     1      24.640  44.587  52.430  1.00  0.00    -0.273 OA
BRANCH  17  20
HETATM   20  C   UNL     1      25.846  46.920  51.001  1.00  0.00     0.034 A 
HETATM   21  C   UNL     1      24.487  46.986  50.689  1.00  0.00     0.029 A 
HETATM   22  C   UNL     1      24.024  47.888  49.725  1.00  0.00     0.002 A 
HETATM   23  C   UNL     1      24.916  48.728  49.063  1.00  0.00     0.000 A 
HETATM   24  C   UNL     1      26.274  48.665  49.361  1.00  0.00     0.002 A 
HETATM   25  C   UNL     1      26.736  47.766  50.326  1.00  0.00     0.029 A 
ENDBRANCH  17  20
ENDBRANCH  15  16
ENDBRANCH   1  15
TORSDOF 3
ENDMDL
MODEL 7
REMARK VINA RESULT:      -7.9      3.016      6.869
REMARK  3 active torsions:
REMARK  status: ('A' for Active; 'I' for Inactive)
REMARK    1  A    between atoms: C_4  and  N_5 
REMARK       I    between atoms: N_5  and  C_6 
REMARK    2  A    between atoms: C_6  and  C_7 
REMARK    3  A    between atoms: C_7  and  C_8 
ROOT
HETATM    1  C   UNL     1      28.845  43.143  54.439  1.00  0.00     0.286 C 
HETATM    2  N   UNL     1      27.445  43.699  54.147  1.00  0.00    -0.056 N 
HETATM    3  H   UNL     1      27.104  43.301  53.257  1.00  0.00     0.278 HD
HETATM    4  H   UNL     1      26.801  43.374  54.880  1.00  0.00     0.278 HD
HETATM    5  C   UNL     1      27.360  45.200  54.031  1.00  0.00     0.209 C 
HETATM    6  C   UNL     1      28.060  45.863  55.231  1.00  0.00     0.115 C 
HETATM    7  N   UNL     1      29.419  45.381  55.397  1.00  0.00    -0.353 N 
HETATM    8  C   UNL     1      29.802  44.085  55.195  1.00  0.00     0.249 C 
HETATM    9  O   UNL     1      30.920  43.715  55.541  1.00  0.00    -0.271 OA
HETATM   10  C   UNL     1      25.898  45.631  53.954  1.00  0.00     0.035 C 
HETATM   11  C   UNL     1      25.807  47.151  53.814  1.00  0.00     0.002 C 
HETATM   12  C   UNL     1      26.588  47.886  54.907  1.00  0.00     0.002 C 
HETATM   13  C   UNL     1      28.025  47.383  55.049  1.00  0.00     0.027 C 
HETATM   14  H   UNL     1      30.077  45.928  55.949  1.00  0.00     0.163 HD
ENDROOT
BRANCH   1  15
HETATM   15  C   UNL     1      29.532  42.605  53.180  1.00  0.00     0.146 C 
BRANCH  15  16
HETATM   16  C   UNL     1      28.860  41.324  52.759  1.00  0.00     0.224 C 
HETATM   17  N   UNL     1      29.047  41.009  51.432  1.00  0.00    -0.327 N 
HETATM   18  H   UNL     1      29.788  41.488  50.923  1.00  0.00     0.169 HD
HETATM   19  O   UNL     1      28.101  40.787  53.561  1.00  0.00    -0.273 OA
BRANCH  17  20
HETATM   20  C   UNL     1      28.297  40.096  50.658  1.00  0.00     0.034 A 
HETATM   21  C   UNL     1      27.002  40.342  50.196  1.00  0.00     0.029 A 
HETATM   22  C   UNL     1      26.350  39.406  49.386  1.00  0.00     0.002 A 
HETATM   23  C   UNL     1      26.984  38.216  49.035  1.00  0.00     0.000 A 
HETATM   24  C   UNL     1      28.272  37.959  49.497  1.00  0.00     0.002 A 
HETATM   25  C   UNL     1      28.925  38.896  50.304  1.00  0.00     0.029 A 
ENDBRANCH  17  20
ENDBRANCH  15  16
ENDBRANCH   1  15
TORSDOF 3
ENDMDL
MODEL 8
REMARK VINA RESULT:      -7.8      1.963      6.235
REMARK  3 active torsions:
REMARK  status: ('A' for Active; 'I' for Inactive)
REMARK    1  A    between atoms: C_4  and  N_5 
REMARK       I    between atoms: N_5  and  C_6 
REMARK    2  A    between atoms: C_6  and  C_7 
REMARK    3  A    between atoms: C_7  and  C_8 
ROOT
HETATM    1  C   UNL     1      28.006  45.324  54.182  1.00  0.00     0.286 C 
HETATM    2  N   UNL     1      29.285  44.508  54.410  1.00  0.00    -0.056 N 
HETATM    3  H   UNL     1      29.149  43.558  54.028  1.00  0.00     0.278 HD
HETATM    4  H   UNL     1      30.049  44.935  53.870  1.00  0.00     0.278 HD
HETATM    5  C   UNL     1      29.706  44.358  55.850  1.00  0.00     0.209 C 
HETATM    6  C   UNL     1      29.707  45.732  56.544  1.00  0.00     0.115 C 
HETATM    7  N   UNL     1      28.437  46.417  56.391  1.00  0.00    -0.353 N 
HETATM    8  C   UNL     1      27.684  46.387  55.251  1.00  0.00     0.249 C 
HETATM    9  O   UNL     1      26.724  47.143  55.131  1.00  0.00    -0.271 OA
HETATM   10  C   UNL     1      31.089  43.716  55.921  1.00  0.00     0.035 C 
HETATM   11  C   UNL     1      31.511  43.544  57.381  1.00  0.00     0.002 C 
HETATM   12  C   UNL     1      31.419  44.849  58.175  1.00  0.00     0.002 C 
HETATM   13  C   UNL     1      30.064  45.542  58.022  1.00  0.00     0.027 C 
HETATM   14  H   UNL     1      28.202  47.178  57.026  1.00  0.00     0.163 HD
ENDROOT
BRANCH   1  15
HETATM   15  C   UNL     1      26.781  44.434  53.949  1.00  0.00     0.146 C 
BRANCH  15  16
HETATM   16  C   UNL     1      27.229  43.122  53.359  1.00  0.00     0.224 C 
HETATM   17  N   UNL     1      27.128  43.068  51.987  1.00  0.00    -0.327 N 
HETATM   18  H   UNL     1      27.015  43.943  51.477  1.00  0.00     0.169 HD
HETATM   19  O   UNL     1      27.473  42.201  54.134  1.00  0.00    -0.273 OA
BRANCH  17  20
HETATM   20  C   UNL     1      27.135  41.911  51.176  1.00  0.00     0.034 A 
HETATM   21  C   UNL     1      28.254  41.100  50.981  1.00  0.00     0.029 A 
HETATM   22  C   UNL     1      28.160  39.938  50.207  1.00  0.00     0.002 A 
HETATM   23  C   UNL     1      26.949  39.582  49.618  1.00  0.00     0.000 A 
HETATM   24  C   UNL     1      25.830  40.388  49.800  1.00  0.00     0.002 A 
HETATM   25  C   UNL     1      25.923  41.547  50.577  1.00  0.00     0.029 A 
ENDBRANCH  17  20
ENDBRANCH  15  16
ENDBRANCH   1  15
TORSDOF 3
ENDMDL
MODEL 9
REMARK VINA RESULT:      -7.8      3.437      6.992
REMARK  3 active torsions:
REMARK  status: ('A' for Active; 'I' for Inactive)
REMARK    1  A    between atoms: C_4  and  N_5 
REMARK       I    between atoms: N_5  and  C_6 
REMARK    2  A    between atoms: C_6  and  C_7 
REMARK    3  A    between atoms: C_7  and  C_8 
ROOT
HETATM    1  C   UNL     1      26.982  40.974  51.140  1.00  0.00     0.286 C 
HETATM    2  N   UNL     1      26.681  42.036  52.205  1.00  0.00    -0.056 N 
HETATM    3  H   UNL     1      26.012  42.721  51.818  1.00  0.00     0.278 HD
HETATM    4  H   UNL     1      26.211  41.583  53.000  1.00  0.00     0.278 HD
HETATM    5  C   UNL     1      27.878  42.809  52.701  1.00  0.00     0.209 C 
HETATM    6  C   UNL     1      29.009  41.838  53.085  1.00  0.00     0.115 C 
HETATM    7  N   UNL     1      29.329  40.925  52.003  1.00  0.00    -0.353 N 
HETATM    8  C   UNL     1      28.400  40.370  51.170  1.00  0.00     0.249 C 
HETATM    9  O   UNL     1      28.723  39.463  50.408  1.00  0.00    -0.271 OA
HETATM   10  C   UNL     1      27.479  43.672  53.894  1.00  0.00     0.035 C 
HETATM   11  C   UNL     1      28.685  44.473  54.388  1.00  0.00     0.002 C 
HETATM   12  C   UNL     1      29.899  43.586  54.674  1.00  0.00     0.002 C 
HETATM   13  C   UNL     1      30.236  42.650  53.512  1.00  0.00     0.027 C 
HETATM   14  H   UNL     1      30.225  40.442  52.009  1.00  0.00     0.163 HD
ENDROOT
BRANCH   1  15
HETATM   15  C   UNL     1      26.654  41.460  49.724  1.00  0.00     0.146 C 
BRANCH  15  16
HETATM   16  C   UNL     1      25.653  42.583  49.807  1.00  0.00     0.224 C 
HETATM   17  N   UNL     1      26.141  43.795  49.371  1.00  0.00    -0.327 N 
HETATM   18  H   UNL     1      26.996  43.799  48.818  1.00  0.00     0.169 HD
HETATM   19  O   UNL     1      24.593  42.362  50.388  1.00  0.00    -0.273 OA
BRANCH  17  20
HETATM   20  C   UNL     1      25.600  45.074  49.629  1.00  0.00     0.034 A 
HETATM   21  C   UNL     1      24.388  45.531  49.106  1.00  0.00     0.029 A 
HETATM   22  C   UNL     1      23.897  46.792  49.457  1.00  0.00     0.002 A 
HETATM   23  C   UNL     1      24.614  47.609  50.329  1.00  0.00     0.000 A 
HETATM   24  C   UNL     1      25.826  47.166  50.848  1.00  0.00     0.002 A 
HETATM   25  C   UNL     1      26.316  45.904  50.500  1.00  0.00     0.029 A 
ENDBRANCH  17  20
ENDBRANCH  15  16
ENDBRANCH   1  15
TORSDOF 3
ENDMDL
MODEL 10
REMARK VINA RESULT:      -7.6      4.116      6.515
REMARK  3 active torsions:
REMARK  status: ('A' for Active; 'I' for Inactive)
REMARK    1  A    between atoms: C_4  and  N_5 
REMARK       I    between atoms: N_5  and  C_6 
REMARK    2  A    between atoms: C_6  and  C_7 
REMARK    3  A    between atoms: C_7  and  C_8 
ROOT
HETATM    1  C   UNL     1      25.003  47.184  50.058  1.00  0.00     0.286 C 
HETATM    2  N   UNL     1      23.481  47.371  50.020  1.00  0.00    -0.056 N 
HETATM    3  H   UNL     1      23.032  46.447  49.910  1.00  0.00     0.278 HD
HETATM    4  H   UNL     1      23.171  47.742  50.928  1.00  0.00     0.278 HD
HETATM    5  C   UNL     1      22.968  48.256  48.911  1.00  0.00     0.209 C 
HETATM    6  C   UNL     1      23.763  49.574  48.879  1.00  0.00     0.115 C 
HETATM    7  N   UNL     1      25.194  49.340  48.806  1.00  0.00    -0.353 N 
HETATM    8  C   UNL     1      25.840  48.335  49.467  1.00  0.00     0.249 C 
HETATM    9  O   UNL     1      27.067  48.320  49.510  1.00  0.00    -0.271 OA
HETATM   10  C   UNL     1      21.480  48.527  49.113  1.00  0.00     0.035 C 
HETATM   11  C   UNL     1      20.951  49.408  47.979  1.00  0.00     0.002 C 
HETATM   12  C   UNL     1      21.771  50.687  47.801  1.00  0.00     0.002 C 
HETATM   13  C   UNL     1      23.274  50.420  47.700  1.00  0.00     0.027 C 
HETATM   14  H   UNL     1      25.804  50.092  48.490  1.00  0.00     0.163 HD
ENDROOT
BRANCH   1  15
HETATM   15  C   UNL     1      25.442  45.852  49.440  1.00  0.00     0.146 C 
BRANCH  15  16
HETATM   16  C   UNL     1      26.520  45.241  50.296  1.00  0.00     0.224 C 
HETATM   17  N   UNL     1      26.187  45.153  51.629  1.00  0.00    -0.327 N 
HETATM   18  H   UNL     1      25.207  45.256  51.889  1.00  0.00     0.169 HD
HETATM   19  O   UNL     1      27.616  45.041  49.779  1.00  0.00    -0.273 OA
BRANCH  17  20
HETATM   20  C   UNL     1      27.066  44.959  52.717  1.00  0.00     0.034 A 
HETATM   21  C   UNL     1      27.119  45.789  53.839  1.00  0.00     0.029 A 
HETATM   22  C   UNL     1      27.981  45.493  54.900  1.00  0.00     0.002 A 
HETATM   23  C   UNL     1      28.801  44.368  54.846  1.00  0.00     0.000 A 
HETATM   24  C   UNL     1      28.761  43.538  53.730  1.00  0.00     0.002 A 
HETATM   25  C   UNL     1      27.898  43.832  52.671  1.00  0.00     0.029 A 
ENDBRANCH  17  20
ENDBRANCH  15  16
ENDBRANCH   1  15
TORSDOF 3
ENDMDL
