MODEL 1
REMARK VINA RESULT:      -9.1      0.000      0.000
REMARK  8 active torsions:
REMARK  status: ('A' for Active; 'I' for Inactive)
REMARK    1  A    between atoms: C_2  and  C_3 
REMARK    2  A    between atoms: C_3  and  C_4 
REMARK       I    between atoms: C_4  and  N_5 
REMARK    3  A    between atoms: N_8  and  C_9 
REMARK    4  A    between atoms: C_13  and  N_14 
REMARK    5  A    between atoms: N_14  and  C_15 
REMARK    6  A    between atoms: C_15  and  N_16 
REMARK       I    between atoms: N_16  and  C_17 
REMARK    7  A    between atoms: C_17  and  C_18 
REMARK    8  A    between atoms: C_21  and  O_22 
ROOT
HETATM    1  C   UNL     1      24.341  46.230  49.197  1.00  0.00     0.052 A 
HETATM    2  C   UNL     1      25.662  46.369  49.667  1.00  0.00     0.062 A 
HETATM    3 CL   UNL     1      26.395  47.885  50.082  1.00  0.00    -0.082 Cl
HETATM    4  C   UNL     1      26.470  45.242  49.911  1.00  0.00     0.055 A 
HETATM    5  C   UNL     1      25.998  43.942  49.712  1.00  0.00     0.036 A 
HETATM    6  C   UNL     1      24.689  43.781  49.281  1.00  0.00     0.032 A 
HETATM    7  C   UNL     1      23.890  44.905  49.015  1.00  0.00     0.033 A 
ENDROOT
BRANCH   5   8
HETATM    8  N   UNL     1      26.873  42.890  50.056  1.00  0.00    -0.333 N 
HETATM    9  H   UNL     1      27.784  42.945  49.611  1.00  0.00     0.168 HD
BRANCH   8  10
HETATM   10  C   UNL     1      26.847  41.983  51.052  1.00  0.00     0.179 C 
HETATM   11  S   UNL     1      26.323  40.430  50.692  1.00  0.00    -0.040 SA
BRANCH  10  12
HETATM   12  N   UNL     1      27.191  42.241  52.336  1.00  0.00    -0.299 N 
HETATM   13  C   UNL     1      28.439  41.988  52.895  1.00  0.00     0.257 C 
HETATM   14  O   UNL     1      29.144  41.003  52.735  1.00  0.00    -0.267 OA
HETATM   15  H   UNL     1      26.795  43.126  52.630  1.00  0.00     0.171 HD
BRANCH  13  16
HETATM   16  C   UNL     1      28.866  43.017  53.876  1.00  0.00     0.032 A 
HETATM   17  C   UNL     1      27.996  44.062  54.190  1.00  0.00     0.020 A 
HETATM   18  C   UNL     1      28.402  45.042  55.098  1.00  0.00     0.038 A 
HETATM   19  C   UNL     1      29.653  44.964  55.718  1.00  0.00     0.068 A 
HETATM   20  C   UNL     1      30.519  43.915  55.400  1.00  0.00     0.038 A 
HETATM   21  C   UNL     1      30.126  42.938  54.479  1.00  0.00     0.020 A 
BRANCH  19  22
HETATM   22  O   UNL     1      29.934  45.977  56.591  1.00  0.00    -0.356 OA
HETATM   23  C   UNL     1      29.109  46.041  57.751  1.00  0.00     0.210 C 
ENDBRANCH  19  22
ENDBRANCH  13  16
ENDBRANCH  10  12
ENDBRANCH   8  10
ENDBRANCH   5   8
BRANCH   1  24
HETATM   24  N   UNL     1      23.436  47.248  48.869  1.00  0.00    -0.376 N 
HETATM   25  C   UNL     1      23.308  48.455  49.701  1.00  0.00     0.143 C 
HETATM   26  C   UNL     1      22.650  49.593  48.895  1.00  0.00     0.145 C 
HETATM   27  N   UNL     1      21.392  49.187  48.248  1.00  0.00    -0.349 N 
HETATM   28  C   UNL     1      20.423  50.098  47.828  1.00  0.00     0.219 C 
HETATM   29  C   UNL     1      21.445  47.897  47.546  1.00  0.00     0.145 C 
HETATM   30  O   UNL     1      19.556  49.791  47.009  1.00  0.00    -0.273 OA
HETATM   31  C   UNL     1      22.127  46.780  48.358  1.00  0.00     0.143 C 
BRANCH  28  32
HETATM   32  C   UNL     1      20.479  51.489  48.448  1.00  0.00     0.103 C 
BRANCH  32  33
HETATM   33  C   UNL     1      19.473  51.703  49.580  1.00  0.00     0.005 C 
HETATM   34  C   UNL     1      18.238  52.476  49.138  1.00  0.00     0.005 C 
ENDBRANCH  32  33
ENDBRANCH  28  32
ENDBRANCH   1  24
TORSDOF 8
ENDMDL
MODEL 2
REMARK VINA RESULT:      -9.1      2.612     11.041
REMARK  8 active torsions:
REMARK  status: ('A' for Active; 'I' for Inactive)
REMARK    1  A    between atoms: C_2  and  C_3 
REMARK    2  A    between atoms: C_3  and  C_4 
REMARK       I    between atoms: C_4  and  N_5 
REMARK    3  A    between atoms: N_8  and  C_9 
REMARK    4  A    between atoms: C_13  and  N_14 
REMARK    5  A    between atoms: N_14  and  C_15 
REMARK    6  A    between atoms: C_15  and  N_16 
REMARK       I    between atoms: N_16  and  C_17 
REMARK    7  A    between atoms: C_17  and  C_18 
REMARK    8  A    between atoms: C_21  and  O_22 
ROOT
HETATM    1  C   UNL     1      25.366  45.276  51.038  1.00  0.00     0.052 A 
HETATM    2  C   UNL     1      24.423  44.464  50.380  1.00  0.00     0.062 A 
HETATM    3 CL   UNL     1      24.254  42.757  50.639  1.00  0.00    -0.082 Cl
HETATM    4  C   UNL     1      23.474  45.018  49.498  1.00  0.00     0.055 A 
HETATM    5  C   UNL     1      23.418  46.392  49.248  1.00  0.00     0.036 A 
HETATM    6  C   UNL     1      24.317  47.213  49.911  1.00  0.00     0.032 A 
HETATM    7  C   UNL     1      25.278  46.660  50.772  1.00  0.00     0.033 A 
ENDROOT
BRANCH   5   8
HETATM    8  N   UNL     1      22.382  46.840  48.401  1.00  0.00    -0.333 N 
HETATM    9  H   UNL     1      22.606  46.797  47.412  1.00  0.00     0.168 HD
BRANCH   8  10
HETATM   10  C   UNL     1      21.070  47.057  48.616  1.00  0.00     0.179 C 
HETATM   11  S   UNL     1      19.975  45.943  48.004  1.00  0.00    -0.040 SA
BRANCH  10  12
HETATM   12  N   UNL     1      20.566  48.129  49.273  1.00  0.00    -0.299 N 
HETATM   13  C   UNL     1      21.011  49.438  49.125  1.00  0.00     0.257 C 
HETATM   14  O   UNL     1      22.164  49.831  49.040  1.00  0.00    -0.267 OA
HETATM   15  H   UNL     1      19.557  48.055  49.333  1.00  0.00     0.171 HD
BRANCH  13  16
HETATM   16  C   UNL     1      19.920  50.442  49.193  1.00  0.00     0.032 A 
HETATM   17  C   UNL     1      18.824  50.205  50.023  1.00  0.00     0.020 A 
HETATM   18  C   UNL     1      17.787  51.138  50.075  1.00  0.00     0.038 A 
HETATM   19  C   UNL     1      17.857  52.321  49.332  1.00  0.00     0.068 A 
HETATM   20  C   UNL     1      18.957  52.554  48.504  1.00  0.00     0.038 A 
HETATM   21  C   UNL     1      19.992  51.616  48.433  1.00  0.00     0.020 A 
BRANCH  19  22
HETATM   22  O   UNL     1      16.786  53.160  49.471  1.00  0.00    -0.356 OA
HETATM   23  C   UNL     1      15.614  52.790  48.752  1.00  0.00     0.210 C 
ENDBRANCH  19  22
ENDBRANCH  13  16
ENDBRANCH  10  12
ENDBRANCH   8  10
ENDBRANCH   5   8
BRANCH   1  24
HETATM   24  N   UNL     1      26.392  44.871  51.903  1.00  0.00    -0.376 N 
HETATM   25  C   UNL     1      26.748  45.664  53.091  1.00  0.00     0.143 C 
HETATM   26  C   UNL     1      27.518  44.792  54.103  1.00  0.00     0.145 C 
HETATM   27  N   UNL     1      28.661  44.085  53.503  1.00  0.00    -0.349 N 
HETATM   28  C   UNL     1      29.727  43.587  54.250  1.00  0.00     0.219 C 
HETATM   29  C   UNL     1      28.373  43.420  52.224  1.00  0.00     0.145 C 
HETATM   30  O   UNL     1      30.488  42.729  53.803  1.00  0.00    -0.273 OA
HETATM   31  C   UNL     1      27.583  44.298  51.235  1.00  0.00     0.143 C 
BRANCH  28  32
HETATM   32  C   UNL     1      29.917  44.174  55.644  1.00  0.00     0.103 C 
BRANCH  32  33
HETATM   33  C   UNL     1      31.366  44.156  56.132  1.00  0.00     0.005 C 
HETATM   34  C   UNL     1      31.608  43.132  57.233  1.00  0.00     0.005 C 
ENDBRANCH  32  33
ENDBRANCH  28  32
ENDBRANCH   1  24
TORSDOF 8
ENDMDL
MODEL 3
REMARK VINA RESULT:      -9.1      1.426      1.658
REMARK  8 active torsions:
REMARK  status: ('A' for Active; 'I' for Inactive)
REMARK    1  A    between atoms: C_2  and  C_3 
REMARK    2  A    between atoms: C_3  and  C_4 
REMARK       I    between atoms: C_4  and  N_5 
REMARK    3  A    between atoms: N_8  and  C_9 
REMARK    4  A    between atoms: C_13  and  N_14 
REMARK    5  A    between atoms: N_14  and  C_15 
REMARK    6  A    between atoms: C_15  and  N_16 
REMARK       I    between atoms: N_16  and  C_17 
REMARK    7  A    between atoms: C_17  and  C_18 
REMARK    8  A    between atoms: C_21  and  O_22 
ROOT
HETATM    1  C   UNL     1      24.005  47.979  49.230  1.00  0.00     0.052 A 
HETATM    2  C   UNL     1      25.367  48.329  49.159  1.00  0.00     0.062 A 
HETATM    3 CL   UNL     1      25.947  49.917  48.771  1.00  0.00    -0.082 Cl
HETATM    4  C   UNL     1      26.376  47.402  49.485  1.00  0.00     0.055 A 
HETATM    5  C   UNL     1      26.073  46.103  49.903  1.00  0.00     0.036 A 
HETATM    6  C   UNL     1      24.737  45.748  50.012  1.00  0.00     0.032 A 
HETATM    7  C   UNL     1      23.731  46.664  49.665  1.00  0.00     0.033 A 
ENDROOT
BRANCH   5   8
HETATM    8  N   UNL     1      27.163  45.285  50.270  1.00  0.00    -0.333 N 
HETATM    9  H   UNL     1      28.059  45.761  50.266  1.00  0.00     0.168 HD
BRANCH   8  10
HETATM   10  C   UNL     1      27.226  44.085  50.879  1.00  0.00     0.179 C 
HETATM   11  S   UNL     1      26.923  42.716  49.959  1.00  0.00    -0.040 SA
BRANCH  10  12
HETATM   12  N   UNL     1      27.493  43.904  52.194  1.00  0.00    -0.299 N 
HETATM   13  C   UNL     1      28.660  43.343  52.703  1.00  0.00     0.257 C 
HETATM   14  O   UNL     1      29.268  42.371  52.280  1.00  0.00    -0.267 OA
HETATM   15  H   UNL     1      27.170  44.703  52.727  1.00  0.00     0.171 HD
BRANCH  13  16
HETATM   16  C   UNL     1      29.113  43.972  53.968  1.00  0.00     0.032 A 
HETATM   17  C   UNL     1      28.475  45.126  54.424  1.00  0.00     0.020 A 
HETATM   18  C   UNL     1      28.912  45.731  55.604  1.00  0.00     0.038 A 
HETATM   19  C   UNL     1      29.956  45.171  56.347  1.00  0.00     0.068 A 
HETATM   20  C   UNL     1      30.591  44.015  55.886  1.00  0.00     0.038 A 
HETATM   21  C   UNL     1      30.170  43.412  54.696  1.00  0.00     0.020 A 
BRANCH  19  22
HETATM   22  O   UNL     1      30.290  45.848  57.486  1.00  0.00    -0.356 OA
HETATM   23  C   UNL     1      31.090  45.131  58.420  1.00  0.00     0.210 C 
ENDBRANCH  19  22
ENDBRANCH  13  16
ENDBRANCH  10  12
ENDBRANCH   8  10
ENDBRANCH   5   8
BRANCH   1  24
HETATM   24  N   UNL     1      22.897  48.770  48.898  1.00  0.00    -0.376 N 
HETATM   25  C   UNL     1      22.552  49.968  49.681  1.00  0.00     0.143 C 
HETATM   26  C   UNL     1      21.643  50.901  48.856  1.00  0.00     0.145 C 
HETATM   27  N   UNL     1      20.474  50.212  48.287  1.00  0.00    -0.349 N 
HETATM   28  C   UNL     1      19.323  50.881  47.872  1.00  0.00     0.219 C 
HETATM   29  C   UNL     1      20.769  48.925  47.641  1.00  0.00     0.145 C 
HETATM   30  O   UNL     1      18.510  50.359  47.109  1.00  0.00    -0.273 OA
HETATM   31  C   UNL     1      21.696  48.017  48.471  1.00  0.00     0.143 C 
BRANCH  28  32
HETATM   32  C   UNL     1      19.112  52.285  48.426  1.00  0.00     0.103 C 
BRANCH  32  33
HETATM   33  C   UNL     1      18.420  52.314  49.790  1.00  0.00     0.005 C 
HETATM   34  C   UNL     1      16.959  51.893  49.723  1.00  0.00     0.005 C 
ENDBRANCH  32  33
ENDBRANCH  28  32
ENDBRANCH   1  24
TORSDOF 8
ENDMDL
MODEL 4
REMARK VINA RESULT:      -9.1      2.565     10.628
REMARK  8 active torsions:
REMARK  status: ('A' for Active; 'I' for Inactive)
REMARK    1  A    between atoms: C_2  and  C_3 
REMARK    2  A    between atoms: C_3  and  C_4 
REMARK       I    between atoms: C_4  and  N_5 
REMARK    3  A    between atoms: N_8  and  C_9 
REMARK    4  A    between atoms: C_13  and  N_14 
REMARK    5  A    between atoms: N_14  and  C_15 
REMARK    6  A    between atoms: C_15  and  N_16 
REMARK       I    between atoms: N_16  and  C_17 
REMARK    7  A    between atoms: C_17  and  C_18 
REMARK    8  A    between atoms: C_21  and  O_22 
ROOT
HETATM    1  C   UNL     1      25.668  45.499  51.475  1.00  0.00     0.052 A 
HETATM    2  C   UNL     1      25.472  46.554  50.561  1.00  0.00     0.062 A 
HETATM    3 CL   UNL     1      26.519  47.929  50.420  1.00  0.00    -0.082 Cl
HETATM    4  C   UNL     1      24.423  46.519  49.623  1.00  0.00     0.055 A 
HETATM    5  C   UNL     1      23.541  45.437  49.546  1.00  0.00     0.036 A 
HETATM    6  C   UNL     1      23.736  44.373  50.414  1.00  0.00     0.032 A 
HETATM    7  C   UNL     1      24.767  44.417  51.366  1.00  0.00     0.033 A 
ENDROOT
BRANCH   5   8
HETATM    8  N   UNL     1      22.572  45.480  48.521  1.00  0.00    -0.333 N 
HETATM    9  H   UNL     1      22.507  44.627  47.975  1.00  0.00     0.168 HD
BRANCH   8  10
HETATM   10  C   UNL     1      21.537  46.311  48.291  1.00  0.00     0.179 C 
HETATM   11  S   UNL     1      20.424  45.877  47.112  1.00  0.00    -0.040 SA
BRANCH  10  12
HETATM   12  N   UNL     1      21.342  47.491  48.926  1.00  0.00    -0.299 N 
HETATM   13  C   UNL     1      21.561  48.745  48.367  1.00  0.00     0.257 C 
HETATM   14  O   UNL     1      22.494  49.096  47.661  1.00  0.00    -0.267 OA
HETATM   15  H   UNL     1      20.500  47.446  49.488  1.00  0.00     0.171 HD
BRANCH  13  16
HETATM   16  C   UNL     1      20.574  49.764  48.801  1.00  0.00     0.032 A 
HETATM   17  C   UNL     1      20.570  51.017  48.187  1.00  0.00     0.020 A 
HETATM   18  C   UNL     1      19.655  51.984  48.606  1.00  0.00     0.038 A 
HETATM   19  C   UNL     1      18.722  51.695  49.607  1.00  0.00     0.068 A 
HETATM   20  C   UNL     1      18.729  50.439  50.217  1.00  0.00     0.038 A 
HETATM   21  C   UNL     1      19.654  49.470  49.815  1.00  0.00     0.020 A 
BRANCH  19  22
HETATM   22  O   UNL     1      17.874  52.719  49.927  1.00  0.00    -0.356 OA
HETATM   23  C   UNL     1      16.484  52.429  49.813  1.00  0.00     0.210 C 
ENDBRANCH  19  22
ENDBRANCH  13  16
ENDBRANCH  10  12
ENDBRANCH   8  10
ENDBRANCH   5   8
BRANCH   1  24
HETATM   24  N   UNL     1      26.632  45.410  52.488  1.00  0.00    -0.376 N 
HETATM   25  C   UNL     1      27.343  44.150  52.757  1.00  0.00     0.143 C 
HETATM   26  C   UNL     1      28.644  44.427  53.536  1.00  0.00     0.145 C 
HETATM   27  N   UNL     1      28.434  45.253  54.736  1.00  0.00    -0.349 N 
HETATM   28  C   UNL     1      29.334  45.296  55.799  1.00  0.00     0.219 C 
HETATM   29  C   UNL     1      27.585  46.435  54.531  1.00  0.00     0.145 C 
HETATM   30  O   UNL     1      29.325  46.213  56.620  1.00  0.00    -0.273 OA
HETATM   31  C   UNL     1      26.301  46.142  53.731  1.00  0.00     0.143 C 
BRANCH  28  32
HETATM   32  C   UNL     1      30.320  44.139  55.906  1.00  0.00     0.103 C 
BRANCH  32  33
HETATM   33  C   UNL     1      31.129  44.132  57.204  1.00  0.00     0.005 C 
HETATM   34  C   UNL     1      32.185  43.035  57.240  1.00  0.00     0.005 C 
ENDBRANCH  32  33
ENDBRANCH  28  32
ENDBRANCH   1  24
TORSDOF 8
ENDMDL
MODEL 5
REMARK VINA RESULT:      -8.5      2.679     10.334
REMARK  8 active torsions:
REMARK  status: ('A' for Active; 'I' for Inactive)
REMARK    1  A    between atoms: C_2  and  C_3 
REMARK    2  A    between atoms: C_3  and  C_4 
REMARK       I    between atoms: C_4  and  N_5 
REMARK    3  A    between atoms: N_8  and  C_9 
REMARK    4  A    between atoms: C_13  and  N_14 
REMARK    5  A    between atoms: N_14  and  C_15 
REMARK    6  A    between atoms: C_15  and  N_16 
REMARK       I    between atoms: N_16  and  C_17 
REMARK    7  A    between atoms: C_17  and  C_18 
REMARK    8  A    between atoms: C_21  and  O_22 
ROOT
HETATM    1  C   UNL     1      25.396  44.405  51.380  1.00  0.00     0.052 A 
HETATM    2  C   UNL     1      24.762  45.494  50.748  1.00  0.00     0.062 A 
HETATM    3 CL   UNL     1      25.298  47.139  50.869  1.00  0.00    -0.082 Cl
HETATM    4  C   UNL     1      23.664  45.298  49.889  1.00  0.00     0.055 A 
HETATM    5  C   UNL     1      23.163  44.022  49.615  1.00  0.00     0.036 A 
HETATM    6  C   UNL     1      23.794  42.934  50.200  1.00  0.00     0.032 A 
HETATM    7  C   UNL     1      24.874  43.130  51.075  1.00  0.00     0.033 A 
ENDROOT
BRANCH   5   8
HETATM    8  N   UNL     1      22.105  43.942  48.685  1.00  0.00    -0.333 N 
HETATM    9  H   UNL     1      21.319  43.381  48.997  1.00  0.00     0.168 HD
BRANCH   8  10
HETATM   10  C   UNL     1      21.807  44.670  47.591  1.00  0.00     0.179 C 
HETATM   11  S   UNL     1      22.648  44.347  46.175  1.00  0.00    -0.040 SA
BRANCH  10  12
HETATM   12  N   UNL     1      20.891  45.667  47.556  1.00  0.00    -0.299 N 
HETATM   13  C   UNL     1      19.672  45.655  48.224  1.00  0.00     0.257 C 
HETATM   14  O   UNL     1      18.890  44.722  48.335  1.00  0.00    -0.267 OA
HETATM   15  H   UNL     1      21.357  46.566  47.592  1.00  0.00     0.171 HD
BRANCH  13  16
HETATM   16  C   UNL     1      19.274  46.984  48.750  1.00  0.00     0.032 A 
HETATM   17  C   UNL     1      17.919  47.291  48.877  1.00  0.00     0.020 A 
HETATM   18  C   UNL     1      17.542  48.548  49.353  1.00  0.00     0.038 A 
HETATM   19  C   UNL     1      18.509  49.483  49.737  1.00  0.00     0.068 A 
HETATM   20  C   UNL     1      19.864  49.170  49.609  1.00  0.00     0.038 A 
HETATM   21  C   UNL     1      20.250  47.919  49.116  1.00  0.00     0.020 A 
BRANCH  19  22
HETATM   22  O   UNL     1      18.018  50.674  50.194  1.00  0.00    -0.356 OA
HETATM   23  C   UNL     1      18.784  51.828  49.859  1.00  0.00     0.210 C 
ENDBRANCH  19  22
ENDBRANCH  13  16
ENDBRANCH  10  12
ENDBRANCH   8  10
ENDBRANCH   5   8
BRANCH   1  24
HETATM   24  N   UNL     1      26.463  44.443  52.288  1.00  0.00    -0.376 N 
HETATM   25  C   UNL     1      27.402  43.317  52.411  1.00  0.00     0.143 C 
HETATM   26  C   UNL     1      28.712  43.785  53.075  1.00  0.00     0.145 C 
HETATM   27  N   UNL     1      28.492  44.509  54.337  1.00  0.00    -0.349 N 
HETATM   28  C   UNL     1      29.480  44.664  55.309  1.00  0.00     0.219 C 
HETATM   29  C   UNL     1      27.438  45.532  54.287  1.00  0.00     0.145 C 
HETATM   30  O   UNL     1      29.402  45.529  56.181  1.00  0.00    -0.273 OA
HETATM   31  C   UNL     1      26.145  45.053  53.599  1.00  0.00     0.143 C 
BRANCH  28  32
HETATM   32  C   UNL     1      30.653  43.693  55.250  1.00  0.00     0.103 C 
BRANCH  32  33
HETATM   33  C   UNL     1      30.922  42.965  56.568  1.00  0.00     0.005 C 
HETATM   34  C   UNL     1      32.042  43.601  57.380  1.00  0.00     0.005 C 
ENDBRANCH  32  33
ENDBRANCH  28  32
ENDBRANCH   1  24
TORSDOF 8
ENDMDL
MODEL 6
REMARK VINA RESULT:      -8.2      3.903     11.369
REMARK  8 active torsions:
REMARK  status: ('A' for Active; 'I' for Inactive)
REMARK    1  A    between atoms: C_2  and  C_3 
REMARK    2  A    between atoms: C_3  and  C_4 
REMARK       I    between atoms: C_4  and  N_5 
REMARK    3  A    between atoms: N_8  and  C_9 
REMARK    4  A    between atoms: C_13  and  N_14 
REMARK    5  A    between atoms: N_14  and  C_15 
REMARK    6  A    between atoms: C_15  and  N_16 
REMARK       I    between atoms: N_16  and  C_17 
REMARK    7  A    between atoms: C_17  and  C_18 
REMARK    8  A    between atoms: C_21  and  O_22 
ROOT
HETATM    1  C   UNL     1      26.061  43.955  49.948  1.00  0.00     0.052 A 
HETATM    2  C   UNL     1      24.669  44.117  50.093  1.00  0.00     0.062 A 
HETATM    3 CL   UNL     1      23.545  42.806  50.251  1.00  0.00    -0.082 Cl
HETATM    4  C   UNL     1      24.092  45.398  50.199  1.00  0.00     0.055 A 
HETATM    5  C   UNL     1      24.870  46.558  50.179  1.00  0.00     0.036 A 
HETATM    6  C   UNL     1      26.246  46.420  50.071  1.00  0.00     0.032 A 
HETATM    7  C   UNL     1      26.820  45.145  49.941  1.00  0.00     0.033 A 
ENDROOT
BRANCH   5   8
HETATM    8  N   UNL     1      24.190  47.781  50.364  1.00  0.00    -0.333 N 
HETATM    9  H   UNL     1      24.282  48.170  51.297  1.00  0.00     0.168 HD
BRANCH   8  10
HETATM   10  C   UNL     1      23.674  48.668  49.491  1.00  0.00     0.179 C 
HETATM   11  S   UNL     1      24.711  49.375  48.378  1.00  0.00    -0.040 SA
BRANCH  10  12
HETATM   12  N   UNL     1      22.375  49.052  49.462  1.00  0.00    -0.299 N 
HETATM   13  C   UNL     1      21.917  50.338  49.724  1.00  0.00     0.257 C 
HETATM   14  O   UNL     1      22.290  51.100  50.604  1.00  0.00    -0.267 OA
HETATM   15  H   UNL     1      21.901  48.610  48.684  1.00  0.00     0.171 HD
BRANCH  13  16
HETATM   16  C   UNL     1      20.767  50.738  48.876  1.00  0.00     0.032 A 
HETATM   17  C   UNL     1      19.884  51.715  49.338  1.00  0.00     0.020 A 
HETATM   18  C   UNL     1      18.791  52.080  48.551  1.00  0.00     0.038 A 
HETATM   19  C   UNL     1      18.595  51.501  47.293  1.00  0.00     0.068 A 
HETATM   20  C   UNL     1      19.483  50.525  46.834  1.00  0.00     0.038 A 
HETATM   21  C   UNL     1      20.571  50.142  47.625  1.00  0.00     0.020 A 
BRANCH  19  22
HETATM   22  O   UNL     1      17.495  51.944  46.613  1.00  0.00    -0.356 OA
HETATM   23  C   UNL     1      16.245  51.756  47.270  1.00  0.00     0.210 C 
ENDBRANCH  19  22
ENDBRANCH  13  16
ENDBRANCH  10  12
ENDBRANCH   8  10
ENDBRANCH   5   8
BRANCH   1  24
HETATM   24  N   UNL     1      26.773  42.759  49.787  1.00  0.00    -0.376 N 
HETATM   25  C   UNL     1      26.583  41.910  48.600  1.00  0.00     0.143 C 
HETATM   26  C   UNL     1      27.787  40.963  48.424  1.00  0.00     0.145 C 
HETATM   27  N   UNL     1      28.108  40.206  49.644  1.00  0.00    -0.349 N 
HETATM   28  C   UNL     1      28.849  39.024  49.636  1.00  0.00     0.219 C 
HETATM   29  C   UNL     1      28.140  41.005  50.877  1.00  0.00     0.145 C 
HETATM   30  O   UNL     1      29.388  38.589  50.653  1.00  0.00    -0.273 OA
HETATM   31  C   UNL     1      26.941  41.962  51.024  1.00  0.00     0.143 C 
BRANCH  28  32
HETATM   32  C   UNL     1      28.942  38.287  48.305  1.00  0.00     0.103 C 
BRANCH  32  33
HETATM   33  C   UNL     1      27.824  37.268  48.083  1.00  0.00     0.005 C 
HETATM   34  C   UNL     1      27.807  36.703  46.669  1.00  0.00     0.005 C 
ENDBRANCH  32  33
ENDBRANCH  28  32
ENDBRANCH   1  24
TORSDOF 8
ENDMDL
MODEL 7
REMARK VINA RESULT:      -8.1      2.810     11.322
REMARK  8 active torsions:
REMARK  status: ('A' for Active; 'I' for Inactive)
REMARK    1  A    between atoms: C_2  and  C_3 
REMARK    2  A    between atoms: C_3  and  C_4 
REMARK       I    between atoms: C_4  and  N_5 
REMARK    3  A    between atoms: N_8  and  C_9 
REMARK    4  A    between atoms: C_13  and  N_14 
REMARK    5  A    between atoms: N_14  and  C_15 
REMARK    6  A    between atoms: C_15  and  N_16 
REMARK       I    between atoms: N_16  and  C_17 
REMARK    7  A    between atoms: C_17  and  C_18 
REMARK    8  A    between atoms: C_21  and  O_22 
ROOT
HETATM    1  C   UNL     1      24.603  45.532  50.108  1.00  0.00     0.052 A 
HETATM    2  C   UNL     1      23.585  45.126  49.224  1.00  0.00     0.062 A 
HETATM    3 CL   UNL     1      23.134  43.474  48.948  1.00  0.00    -0.082 Cl
HETATM    4  C   UNL     1      22.792  46.070  48.544  1.00  0.00     0.055 A 
HETATM    5  C   UNL     1      22.968  47.444  48.724  1.00  0.00     0.036 A 
HETATM    6  C   UNL     1      23.943  47.866  49.616  1.00  0.00     0.032 A 
HETATM    7  C   UNL     1      24.750  46.926  50.277  1.00  0.00     0.033 A 
ENDROOT
BRANCH   5   8
HETATM    8  N   UNL     1      22.069  48.294  48.044  1.00  0.00    -0.333 N 
HETATM    9  H   UNL     1      21.195  47.849  47.783  1.00  0.00     0.168 HD
BRANCH   8  10
HETATM   10  C   UNL     1      22.020  49.633  47.909  1.00  0.00     0.179 C 
HETATM   11  S   UNL     1      23.467  50.482  47.927  1.00  0.00    -0.040 SA
BRANCH  10  12
HETATM   12  N   UNL     1      20.879  50.352  47.784  1.00  0.00    -0.299 N 
HETATM   13  C   UNL     1      19.600  49.812  47.702  1.00  0.00     0.257 C 
HETATM   14  O   UNL     1      19.241  48.831  47.069  1.00  0.00    -0.267 OA
HETATM   15  H   UNL     1      20.926  51.180  48.365  1.00  0.00     0.171 HD
BRANCH  13  16
HETATM   16  C   UNL     1      18.572  50.626  48.397  1.00  0.00     0.032 A 
HETATM   17  C   UNL     1      17.222  50.331  48.205  1.00  0.00     0.020 A 
HETATM   18  C   UNL     1      16.252  51.106  48.842  1.00  0.00     0.038 A 
HETATM   19  C   UNL     1      16.623  52.149  49.697  1.00  0.00     0.068 A 
HETATM   20  C   UNL     1      17.976  52.440  49.887  1.00  0.00     0.038 A 
HETATM   21  C   UNL     1      18.953  51.678  49.239  1.00  0.00     0.020 A 
BRANCH  19  22
HETATM   22  O   UNL     1      15.586  52.832  50.268  1.00  0.00    -0.356 OA
HETATM   23  C   UNL     1      15.497  54.214  49.936  1.00  0.00     0.210 C 
ENDBRANCH  19  22
ENDBRANCH  13  16
ENDBRANCH  10  12
ENDBRANCH   8  10
ENDBRANCH   5   8
BRANCH   1  24
HETATM   24  N   UNL     1      25.497  44.720  50.819  1.00  0.00    -0.376 N 
HETATM   25  C   UNL     1      26.193  45.215  52.017  1.00  0.00     0.143 C 
HETATM   26  C   UNL     1      26.702  44.033  52.866  1.00  0.00     0.145 C 
HETATM   27  N   UNL     1      27.487  43.061  52.088  1.00  0.00    -0.349 N 
HETATM   28  C   UNL     1      28.379  42.161  52.670  1.00  0.00     0.219 C 
HETATM   29  C   UNL     1      26.891  42.673  50.802  1.00  0.00     0.145 C 
HETATM   30  O   UNL     1      28.766  41.155  52.075  1.00  0.00    -0.273 OA
HETATM   31  C   UNL     1      26.367  43.866  49.979  1.00  0.00     0.143 C 
BRANCH  28  32
HETATM   32  C   UNL     1      28.866  42.495  54.075  1.00  0.00     0.103 C 
BRANCH  32  33
HETATM   33  C   UNL     1      30.289  43.053  54.120  1.00  0.00     0.005 C 
HETATM   34  C   UNL     1      30.656  43.633  55.479  1.00  0.00     0.005 C 
ENDBRANCH  32  33
ENDBRANCH  28  32
ENDBRANCH   1  24
TORSDOF 8
ENDMDL
MODEL 8
REMARK VINA RESULT:      -8.0      6.381     13.913
REMARK  8 active torsions:
REMARK  status: ('A' for Active; 'I' for Inactive)
REMARK    1  A    between atoms: C_2  and  C_3 
REMARK    2  A    between atoms: C_3  and  C_4 
REMARK       I    between atoms: C_4  and  N_5 
REMARK    3  A    between atoms: N_8  and  C_9 
REMARK    4  A    between atoms: C_13  and  N_14 
REMARK    5  A    between atoms: N_14  and  C_15 
REMARK    6  A    between atoms: C_15  and  N_16 
REMARK       I    between atoms: N_16  and  C_17 
REMARK    7  A    between atoms: C_17  and  C_18 
REMARK    8  A    between atoms: C_21  and  O_22 
ROOT
HETATM    1  C   UNL     1      18.390  50.834  48.790  1.00  0.00     0.052 A 
HETATM    2  C   UNL     1      17.294  50.369  48.037  1.00  0.00     0.062 A 
HETATM    3 CL   UNL     1      17.286  48.884  47.141  1.00  0.00    -0.082 Cl
HETATM    4  C   UNL     1      16.070  51.065  48.027  1.00  0.00     0.055 A 
HETATM    5  C   UNL     1      15.883  52.234  48.769  1.00  0.00     0.036 A 
HETATM    6  C   UNL     1      16.938  52.692  49.543  1.00  0.00     0.032 A 
HETATM    7  C   UNL     1      18.167  52.012  49.536  1.00  0.00     0.033 A 
ENDROOT
BRANCH   5   8
HETATM    8  N   UNL     1      14.593  52.806  48.736  1.00  0.00    -0.333 N 
HETATM    9  H   UNL     1      13.870  52.223  49.145  1.00  0.00     0.168 HD
BRANCH   8  10
HETATM   10  C   UNL     1      14.169  54.067  48.523  1.00  0.00     0.179 C 
HETATM   11  S   UNL     1      14.045  54.599  46.936  1.00  0.00    -0.040 SA
BRANCH  10  12
HETATM   12  N   UNL     1      13.859  54.950  49.501  1.00  0.00    -0.299 N 
HETATM   13  C   UNL     1      14.048  54.734  50.862  1.00  0.00     0.257 C 
HETATM   14  O   UNL     1      13.830  53.712  51.494  1.00  0.00    -0.267 OA
HETATM   15  H   UNL     1      14.100  55.890  49.209  1.00  0.00     0.171 HD
BRANCH  13  16
HETATM   16  C   UNL     1      14.461  55.953  51.600  1.00  0.00     0.032 A 
HETATM   17  C   UNL     1      14.470  55.937  52.995  1.00  0.00     0.020 A 
HETATM   18  C   UNL     1      14.840  57.088  53.693  1.00  0.00     0.038 A 
HETATM   19  C   UNL     1      15.234  58.241  53.006  1.00  0.00     0.068 A 
HETATM   20  C   UNL     1      15.224  58.251  51.609  1.00  0.00     0.038 A 
HETATM   21  C   UNL     1      14.839  57.107  50.903  1.00  0.00     0.020 A 
BRANCH  19  22
HETATM   22  O   UNL     1      15.580  59.301  53.797  1.00  0.00    -0.356 OA
HETATM   23  C   UNL     1      15.923  58.982  55.142  1.00  0.00     0.210 C 
ENDBRANCH  19  22
ENDBRANCH  13  16
ENDBRANCH  10  12
ENDBRANCH   8  10
ENDBRANCH   5   8
BRANCH   1  24
HETATM   24  N   UNL     1      19.675  50.281  48.867  1.00  0.00    -0.376 N 
HETATM   25  C   UNL     1      19.901  48.951  49.455  1.00  0.00     0.143 C 
HETATM   26  C   UNL     1      21.254  48.382  48.985  1.00  0.00     0.145 C 
HETATM   27  N   UNL     1      22.374  49.315  49.190  1.00  0.00    -0.349 N 
HETATM   28  C   UNL     1      23.707  48.907  49.240  1.00  0.00     0.219 C 
HETATM   29  C   UNL     1      22.114  50.697  48.761  1.00  0.00     0.145 C 
HETATM   30  O   UNL     1      24.634  49.700  49.076  1.00  0.00    -0.273 OA
HETATM   31  C   UNL     1      20.747  51.239  49.221  1.00  0.00     0.143 C 
BRANCH  28  32
HETATM   32  C   UNL     1      23.958  47.431  49.527  1.00  0.00     0.103 C 
BRANCH  32  33
HETATM   33  C   UNL     1      24.988  47.182  50.630  1.00  0.00     0.005 C 
HETATM   34  C   UNL     1      26.334  46.717  50.091  1.00  0.00     0.005 C 
ENDBRANCH  32  33
ENDBRANCH  28  32
ENDBRANCH   1  24
TORSDOF 8
ENDMDL
MODEL 9
REMARK VINA RESULT:      -8.0      5.401      8.971
REMARK  8 active torsions:
REMARK  status: ('A' for Active; 'I' for Inactive)
REMARK    1  A    between atoms: C_2  and  C_3 
REMARK    2  A    between atoms: C_3  and  C_4 
REMARK       I    between atoms: C_4  and  N_5 
REMARK    3  A    between atoms: N_8  and  C_9 
REMARK    4  A    between atoms: C_13  and  N_14 
REMARK    5  A    between atoms: N_14  and  C_15 
REMARK    6  A    between atoms: C_15  and  N_16 
REMARK       I    between atoms: N_16  and  C_17 
REMARK    7  A    between atoms: C_17  and  C_18 
REMARK    8  A    between atoms: C_21  and  O_22 
ROOT
HETATM    1  C   UNL     1      26.384  43.082  51.963  1.00  0.00     0.052 A 
HETATM    2  C   UNL     1      26.668  41.857  51.327  1.00  0.00     0.062 A 
HETATM    3 CL   UNL     1      27.959  40.795  51.789  1.00  0.00    -0.082 Cl
HETATM    4  C   UNL     1      25.848  41.366  50.294  1.00  0.00     0.055 A 
HETATM    5  C   UNL     1      24.714  42.060  49.862  1.00  0.00     0.036 A 
HETATM    6  C   UNL     1      24.397  43.251  50.497  1.00  0.00     0.032 A 
HETATM    7  C   UNL     1      25.227  43.754  51.512  1.00  0.00     0.033 A 
ENDROOT
BRANCH   5   8
HETATM    8  N   UNL     1      23.929  41.437  48.868  1.00  0.00    -0.333 N 
HETATM    9  H   UNL     1      23.010  41.849  48.747  1.00  0.00     0.168 HD
BRANCH   8  10
HETATM   10  C   UNL     1      24.243  40.590  47.869  1.00  0.00     0.179 C 
HETATM   11  S   UNL     1      23.428  40.752  46.411  1.00  0.00    -0.040 SA
BRANCH  10  12
HETATM   12  N   UNL     1      25.156  39.594  47.963  1.00  0.00    -0.299 N 
HETATM   13  C   UNL     1      26.459  39.656  47.478  1.00  0.00     0.257 C 
HETATM   14  O   UNL     1      26.840  40.123  46.416  1.00  0.00    -0.267 OA
HETATM   15  H   UNL     1      25.089  39.147  48.869  1.00  0.00     0.171 HD
BRANCH  13  16
HETATM   16  C   UNL     1      27.443  38.963  48.345  1.00  0.00     0.032 A 
HETATM   17  C   UNL     1      28.767  39.404  48.364  1.00  0.00     0.020 A 
HETATM   18  C   UNL     1      29.700  38.742  49.164  1.00  0.00     0.038 A 
HETATM   19  C   UNL     1      29.311  37.668  49.971  1.00  0.00     0.068 A 
HETATM   20  C   UNL     1      27.984  37.232  49.950  1.00  0.00     0.038 A 
HETATM   21  C   UNL     1      27.047  37.879  49.138  1.00  0.00     0.020 A 
BRANCH  19  22
HETATM   22  O   UNL     1      30.310  37.106  50.714  1.00  0.00    -0.356 OA
HETATM   23  C   UNL     1      29.887  36.285  51.799  1.00  0.00     0.210 C 
ENDBRANCH  19  22
ENDBRANCH  13  16
ENDBRANCH  10  12
ENDBRANCH   8  10
ENDBRANCH   5   8
BRANCH   1  24
HETATM   24  N   UNL     1      27.124  43.718  52.969  1.00  0.00    -0.376 N 
HETATM   25  C   UNL     1      28.472  43.255  53.335  1.00  0.00     0.143 C 
HETATM   26  C   UNL     1      29.238  44.372  54.071  1.00  0.00     0.145 C 
HETATM   27  N   UNL     1      28.484  44.941  55.200  1.00  0.00    -0.349 N 
HETATM   28  C   UNL     1      29.087  45.639  56.245  1.00  0.00     0.219 C 
HETATM   29  C   UNL     1      27.080  45.260  54.907  1.00  0.00     0.145 C 
HETATM   30  O   UNL     1      28.443  46.381  56.986  1.00  0.00    -0.273 OA
HETATM   31  C   UNL     1      26.338  44.141  54.150  1.00  0.00     0.143 C 
BRANCH  28  32
HETATM   32  C   UNL     1      30.584  45.422  56.437  1.00  0.00     0.103 C 
BRANCH  32  33
HETATM   33  C   UNL     1      30.928  44.438  57.556  1.00  0.00     0.005 C 
HETATM   34  C   UNL     1      31.756  43.255  57.073  1.00  0.00     0.005 C 
ENDBRANCH  32  33
ENDBRANCH  28  32
ENDBRANCH   1  24
TORSDOF 8
ENDMDL
MODEL 10
REMARK VINA RESULT:      -7.8      3.835     11.306
REMARK  8 active torsions:
REMARK  status: ('A' for Active; 'I' for Inactive)
REMARK    1  A    between atoms: C_2  and  C_3 
REMARK    2  A    between atoms: C_3  and  C_4 
REMARK       I    between atoms: C_4  and  N_5 
REMARK    3  A    between atoms: N_8  and  C_9 
REMARK    4  A    between atoms: C_13  and  N_14 
REMARK    5  A    between atoms: N_14  and  C_15 
REMARK    6  A    between atoms: C_15  and  N_16 
REMARK       I    between atoms: N_16  and  C_17 
REMARK    7  A    between atoms: C_17  and  C_18 
REMARK    8  A    between atoms: C_21  and  O_22 
ROOT
HETATM    1  C   UNL     1      25.497  43.905  49.468  1.00  0.00     0.052 A 
HETATM    2  C   UNL     1      26.046  45.188  49.661  1.00  0.00     0.062 A 
HETATM    3 CL   UNL     1      27.745  45.518  49.756  1.00  0.00    -0.082 Cl
HETATM    4  C   UNL     1      25.224  46.330  49.712  1.00  0.00     0.055 A 
HETATM    5  C   UNL     1      23.837  46.245  49.563  1.00  0.00     0.036 A 
HETATM    6  C   UNL     1      23.280  44.995  49.338  1.00  0.00     0.032 A 
HETATM    7  C   UNL     1      24.095  43.853  49.310  1.00  0.00     0.033 A 
ENDROOT
BRANCH   5   8
HETATM    8  N   UNL     1      23.124  47.463  49.562  1.00  0.00    -0.333 N 
HETATM    9  H   UNL     1      23.663  48.260  49.885  1.00  0.00     0.168 HD
BRANCH   8  10
HETATM   10  C   UNL     1      21.970  47.834  48.973  1.00  0.00     0.179 C 
HETATM   11  S   UNL     1      21.639  47.235  47.441  1.00  0.00    -0.040 SA
BRANCH  10  12
HETATM   12  N   UNL     1      21.065  48.680  49.519  1.00  0.00    -0.299 N 
HETATM   13  C   UNL     1      21.253  50.046  49.696  1.00  0.00     0.257 C 
HETATM   14  O   UNL     1      22.261  50.618  50.084  1.00  0.00    -0.267 OA
HETATM   15  H   UNL     1      20.133  48.444  49.198  1.00  0.00     0.171 HD
BRANCH  13  16
HETATM   16  C   UNL     1      20.021  50.844  49.477  1.00  0.00     0.032 A 
HETATM   17  C   UNL     1      18.874  50.544  50.212  1.00  0.00     0.020 A 
HETATM   18  C   UNL     1      17.708  51.281  49.995  1.00  0.00     0.038 A 
HETATM   19  C   UNL     1      17.693  52.335  49.076  1.00  0.00     0.068 A 
HETATM   20  C   UNL     1      18.845  52.632  48.344  1.00  0.00     0.038 A 
HETATM   21  C   UNL     1      20.012  51.887  48.544  1.00  0.00     0.020 A 
BRANCH  19  22
HETATM   22  O   UNL     1      16.497  52.986  48.956  1.00  0.00    -0.356 OA
HETATM   23  C   UNL     1      15.797  53.224  50.173  1.00  0.00     0.210 C 
ENDBRANCH  19  22
ENDBRANCH  13  16
ENDBRANCH  10  12
ENDBRANCH   8  10
ENDBRANCH   5   8
BRANCH   1  24
HETATM   24  N   UNL     1      26.175  42.678  49.438  1.00  0.00    -0.376 N 
HETATM   25  C   UNL     1      25.649  41.533  48.677  1.00  0.00     0.143 C 
HETATM   26  C   UNL     1      26.773  40.515  48.400  1.00  0.00     0.145 C 
HETATM   27  N   UNL     1      27.512  40.127  49.613  1.00  0.00    -0.349 N 
HETATM   28  C   UNL     1      28.265  38.958  49.705  1.00  0.00     0.219 C 
HETATM   29  C   UNL     1      27.906  41.246  50.480  1.00  0.00     0.145 C 
HETATM   30  O   UNL     1      29.127  38.809  50.571  1.00  0.00    -0.273 OA
HETATM   31  C   UNL     1      26.776  42.265  50.726  1.00  0.00     0.143 C 
BRANCH  28  32
HETATM   32  C   UNL     1      27.953  37.863  48.691  1.00  0.00     0.103 C 
BRANCH  32  33
HETATM   33  C   UNL     1      28.997  37.733  47.581  1.00  0.00     0.005 C 
HETATM   34  C   UNL     1      28.485  36.961  46.373  1.00  0.00     0.005 C 
ENDBRANCH  32  33
ENDBRANCH  28  32
ENDBRANCH   1  24
TORSDOF 8
ENDMDL
