MODEL 1
REMARK VINA RESULT:     -10.5      0.000      0.000
REMARK  8 active torsions:
REMARK  status: ('A' for Active; 'I' for Inactive)
REMARK    1  A    between atoms: C_2  and  O_3 
REMARK    2  A    between atoms: O_3  and  C_4 
REMARK    3  A    between atoms: C_7  and  N_8 
REMARK       I    between atoms: N_8  and  C_9 
REMARK       I    between atoms: C_9  and  N_10 
REMARK    4  A    between atoms: N_10  and  C_11 
REMARK    5  A    between atoms: C_12  and  N_13 
REMARK    6  A    between atoms: C_29  and  C_30 
REMARK       I    between atoms: C_30  and  N_31 
REMARK    7  A    between atoms: N_31  and  C_32 
REMARK    8  A    between atoms: C_32  and  C_33 
ROOT
HETATM    1  C   UNL     1      26.256  41.528  51.048  1.00  0.00     0.043 A 
HETATM    2  C   UNL     1      26.305  40.704  49.900  1.00  0.00     0.052 A 
HETATM    3  C   UNL     1      25.566  41.175  48.794  1.00  0.00     0.032 A 
HETATM    4  C   UNL     1      24.872  42.399  48.803  1.00  0.00     0.019 A 
HETATM    5  C   UNL     1      24.883  43.205  49.936  1.00  0.00     0.033 A 
HETATM    6  C   UNL     1      25.553  42.750  51.064  1.00  0.00     0.043 A 
ENDROOT
BRANCH   1   7
HETATM    7  N   UNL     1      26.897  41.190  52.274  1.00  0.00    -0.213 NA
HETATM    8  C   UNL     1      28.025  41.948  52.567  1.00  0.00     0.281 C 
HETATM    9  N   UNL     1      28.224  42.097  53.934  1.00  0.00    -0.215 NA
HETATM   10  O   UNL     1      28.692  42.497  51.691  1.00  0.00    -0.260 OA
HETATM   11  H   UNL     1      27.354  41.993  54.438  1.00  0.00     0.138 HD
HETATM   12  H   UNL     1      27.056  40.198  52.389  1.00  0.00     0.138 HD
BRANCH   9  13
HETATM   13  C   UNL     1      29.029  43.202  54.316  1.00  0.00     0.016 C 
HETATM   14  C   UNL     1      30.269  42.950  54.905  1.00  0.00     0.026 C 
HETATM   15  C   UNL     1      30.854  43.934  55.704  1.00  0.00     0.038 C 
HETATM   16  C   UNL     1      30.200  45.154  55.877  1.00  0.00     0.068 C 
HETATM   17  C   UNL     1      29.073  45.477  55.127  1.00  0.00     0.038 C 
HETATM   18  C   UNL     1      28.484  44.493  54.342  1.00  0.00     0.026 C 
BRANCH  16  19
HETATM   19  O   UNL     1      30.629  45.977  56.888  1.00  0.00    -0.352 OA
BRANCH  19  20
HETATM   20  C   UNL     1      29.975  45.595  58.114  1.00  0.00     0.171 C 
HETATM   21  C   UNL     1      28.619  46.267  58.183  1.00  0.00     0.034 C 
ENDBRANCH  19  20
ENDBRANCH  16  19
ENDBRANCH   9  13
ENDBRANCH   1   7
BRANCH   2  22
HETATM   22  N   UNL     1      27.056  39.525  49.832  1.00  0.00    -0.378 N 
HETATM   23  C   UNL     1      26.397  38.219  49.637  1.00  0.00     0.133 C 
HETATM   24  C   UNL     1      26.739  37.558  48.280  1.00  0.00     0.054 C 
HETATM   25  C   UNL     1      28.254  37.447  48.145  1.00  0.00     0.020 C 
HETATM   26  C   UNL     1      26.166  38.301  47.084  1.00  0.00     0.020 A 
HETATM   27  C   UNL     1      28.803  38.863  48.136  1.00  0.00     0.023 C 
HETATM   28  C   UNL     1      28.276  39.631  46.919  1.00  0.00     0.138 C 
HETATM   29  C   UNL     1      28.478  39.590  49.448  1.00  0.00     0.129 C 
HETATM   30  N   UNL     1      26.917  39.316  46.484  1.00  0.00    -0.317 N 
HETATM   31  C   UNL     1      26.457  40.036  45.374  1.00  0.00     0.247 A 
HETATM   32  O   UNL     1      27.095  40.907  44.789  1.00  0.00    -0.268 OA
HETATM   33  C   UNL     1      25.107  39.678  44.874  1.00  0.00     0.074 A 
HETATM   34  C   UNL     1      24.416  38.692  45.453  1.00  0.00     0.007 A 
HETATM   35  C   UNL     1      24.961  37.980  46.579  1.00  0.00     0.026 A 
ENDBRANCH   2  22
BRANCH   5  36
HETATM   36  C   UNL     1      24.155  44.506  49.934  1.00  0.00     0.251 C 
HETATM   37  N   UNL     1      24.890  45.613  50.298  1.00  0.00    -0.353 N 
HETATM   38  H   UNL     1      25.900  45.560  50.293  1.00  0.00     0.163 HD
HETATM   39  O   UNL     1      22.972  44.550  49.616  1.00  0.00    -0.268 OA
BRANCH  37  40
HETATM   40  C   UNL     1      24.311  46.937  50.319  1.00  0.00     0.161 C 
BRANCH  40  41
HETATM   41  C   UNL     1      25.238  47.937  49.673  1.00  0.00    -0.041 A 
HETATM   42  C   UNL     1      26.628  47.828  49.810  1.00  0.00     0.009 A 
HETATM   43  C   UNL     1      27.475  48.753  49.194  1.00  0.00     0.001 A 
HETATM   44  C   UNL     1      26.942  49.796  48.439  1.00  0.00     0.000 A 
HETATM   45  C   UNL     1      25.561  49.917  48.298  1.00  0.00     0.001 A 
HETATM   46  C   UNL     1      24.714  48.993  48.910  1.00  0.00     0.009 A 
ENDBRANCH  40  41
ENDBRANCH  37  40
ENDBRANCH   5  36
TORSDOF 8
ENDMDL
MODEL 2
REMARK VINA RESULT:     -10.0      3.204      4.242
REMARK  8 active torsions:
REMARK  status: ('A' for Active; 'I' for Inactive)
REMARK    1  A    between atoms: C_2  and  O_3 
REMARK    2  A    between atoms: O_3  and  C_4 
REMARK    3  A    between atoms: C_7  and  N_8 
REMARK       I    between atoms: N_8  and  C_9 
REMARK       I    between atoms: C_9  and  N_10 
REMARK    4  A    between atoms: N_10  and  C_11 
REMARK    5  A    between atoms: C_12  and  N_13 
REMARK    6  A    between atoms: C_29  and  C_30 
REMARK       I    between atoms: C_30  and  N_31 
REMARK    7  A    between atoms: N_31  and  C_32 
REMARK    8  A    between atoms: C_32  and  C_33 
ROOT
HETATM    1  C   UNL     1      24.253  43.764  50.219  1.00  0.00     0.043 A 
HETATM    2  C   UNL     1      23.776  43.244  48.993  1.00  0.00     0.052 A 
HETATM    3  C   UNL     1      23.283  44.206  48.087  1.00  0.00     0.032 A 
HETATM    4  C   UNL     1      23.310  45.588  48.349  1.00  0.00     0.019 A 
HETATM    5  C   UNL     1      23.829  46.067  49.547  1.00  0.00     0.033 A 
HETATM    6  C   UNL     1      24.272  45.148  50.490  1.00  0.00     0.043 A 
ENDROOT
BRANCH   1   7
HETATM    7  N   UNL     1      24.739  42.941  51.274  1.00  0.00    -0.213 NA
HETATM    8  C   UNL     1      26.095  43.084  51.544  1.00  0.00     0.281 C 
HETATM    9  N   UNL     1      26.400  42.845  52.878  1.00  0.00    -0.215 NA
HETATM   10  O   UNL     1      26.894  43.479  50.696  1.00  0.00    -0.260 OA
HETATM   11  H   UNL     1      25.593  43.007  53.466  1.00  0.00     0.138 HD
HETATM   12  H   UNL     1      24.460  41.972  51.196  1.00  0.00     0.138 HD
BRANCH   9  13
HETATM   13  C   UNL     1      27.619  43.411  53.337  1.00  0.00     0.016 C 
HETATM   14  C   UNL     1      28.719  42.569  53.511  1.00  0.00     0.026 C 
HETATM   15  C   UNL     1      29.741  42.959  54.378  1.00  0.00     0.038 C 
HETATM   16  C   UNL     1      29.655  44.188  55.031  1.00  0.00     0.068 C 
HETATM   17  C   UNL     1      28.666  45.110  54.698  1.00  0.00     0.038 C 
HETATM   18  C   UNL     1      27.641  44.717  53.844  1.00  0.00     0.026 C 
BRANCH  16  19
HETATM   19  O   UNL     1      30.497  44.416  56.089  1.00  0.00    -0.352 OA
BRANCH  19  20
HETATM   20  C   UNL     1      30.241  45.732  56.618  1.00  0.00     0.171 C 
HETATM   21  C   UNL     1      30.178  45.654  58.130  1.00  0.00     0.034 C 
ENDBRANCH  19  20
ENDBRANCH  16  19
ENDBRANCH   9  13
ENDBRANCH   1   7
BRANCH   2  22
HETATM   22  N   UNL     1      23.815  41.883  48.669  1.00  0.00    -0.378 N 
HETATM   23  C   UNL     1      22.570  41.115  48.479  1.00  0.00     0.133 C 
HETATM   24  C   UNL     1      22.369  40.627  47.024  1.00  0.00     0.054 C 
HETATM   25  C   UNL     1      23.593  39.826  46.591  1.00  0.00     0.020 C 
HETATM   26  C   UNL     1      22.113  41.755  46.038  1.00  0.00     0.020 A 
HETATM   27  C   UNL     1      24.776  40.779  46.613  1.00  0.00     0.023 C 
HETATM   28  C   UNL     1      24.568  41.910  45.600  1.00  0.00     0.138 C 
HETATM   29  C   UNL     1      25.019  41.323  48.027  1.00  0.00     0.129 C 
HETATM   30  N   UNL     1      23.196  42.371  45.406  1.00  0.00    -0.317 N 
HETATM   31  C   UNL     1      23.035  43.410  44.480  1.00  0.00     0.247 A 
HETATM   32  O   UNL     1      23.951  43.955  43.870  1.00  0.00    -0.268 OA
HETATM   33  C   UNL     1      21.641  43.843  44.215  1.00  0.00     0.074 A 
HETATM   34  C   UNL     1      20.620  43.225  44.819  1.00  0.00     0.007 A 
HETATM   35  C   UNL     1      20.860  42.150  45.745  1.00  0.00     0.026 A 
ENDBRANCH   2  22
BRANCH   5  36
HETATM   36  C   UNL     1      23.865  47.533  49.814  1.00  0.00     0.251 C 
HETATM   37  N   UNL     1      22.754  48.249  49.422  1.00  0.00    -0.353 N 
HETATM   38  H   UNL     1      21.893  47.757  49.226  1.00  0.00     0.163 HD
HETATM   39  O   UNL     1      24.841  48.038  50.359  1.00  0.00    -0.268 OA
BRANCH  37  40
HETATM   40  C   UNL     1      22.652  49.674  49.640  1.00  0.00     0.161 C 
BRANCH  40  41
HETATM   41  C   UNL     1      21.433  50.234  48.950  1.00  0.00    -0.041 A 
HETATM   42  C   UNL     1      21.008  49.735  47.712  1.00  0.00     0.009 A 
HETATM   43  C   UNL     1      19.869  50.254  47.092  1.00  0.00     0.001 A 
HETATM   44  C   UNL     1      19.145  51.278  47.700  1.00  0.00     0.000 A 
HETATM   45  C   UNL     1      19.559  51.785  48.930  1.00  0.00     0.001 A 
HETATM   46  C   UNL     1      20.695  51.266  49.552  1.00  0.00     0.009 A 
ENDBRANCH  40  41
ENDBRANCH  37  40
ENDBRANCH   5  36
TORSDOF 8
ENDMDL
MODEL 3
REMARK VINA RESULT:      -9.5      3.694      9.030
REMARK  8 active torsions:
REMARK  status: ('A' for Active; 'I' for Inactive)
REMARK    1  A    between atoms: C_2  and  O_3 
REMARK    2  A    between atoms: O_3  and  C_4 
REMARK    3  A    between atoms: C_7  and  N_8 
REMARK       I    between atoms: N_8  and  C_9 
REMARK       I    between atoms: C_9  and  N_10 
REMARK    4  A    between atoms: N_10  and  C_11 
REMARK    5  A    between atoms: C_12  and  N_13 
REMARK    6  A    between atoms: C_29  and  C_30 
REMARK       I    between atoms: C_30  and  N_31 
REMARK    7  A    between atoms: N_31  and  C_32 
REMARK    8  A    between atoms: C_32  and  C_33 
ROOT
HETATM    1  C   UNL     1      23.117  45.202  49.529  1.00  0.00     0.043 A 
HETATM    2  C   UNL     1      22.373  46.176  48.823  1.00  0.00     0.052 A 
HETATM    3  C   UNL     1      22.764  47.511  49.054  1.00  0.00     0.032 A 
HETATM    4  C   UNL     1      23.848  47.859  49.880  1.00  0.00     0.019 A 
HETATM    5  C   UNL     1      24.587  46.872  50.523  1.00  0.00     0.033 A 
HETATM    6  C   UNL     1      24.198  45.548  50.367  1.00  0.00     0.043 A 
ENDROOT
BRANCH   1   7
HETATM    7  N   UNL     1      22.834  43.809  49.462  1.00  0.00    -0.213 NA
HETATM    8  C   UNL     1      23.818  43.046  48.845  1.00  0.00     0.281 C 
HETATM    9  N   UNL     1      23.879  41.752  49.346  1.00  0.00    -0.215 NA
HETATM   10  O   UNL     1      24.599  43.524  48.022  1.00  0.00    -0.260 OA
HETATM   11  H   UNL     1      23.512  41.713  50.287  1.00  0.00     0.138 HD
HETATM   12  H   UNL     1      21.907  43.599  49.116  1.00  0.00     0.138 HD
BRANCH   9  13
HETATM   13  C   UNL     1      25.109  41.073  49.136  1.00  0.00     0.016 C 
HETATM   14  C   UNL     1      25.213  40.208  48.046  1.00  0.00     0.026 C 
HETATM   15  C   UNL     1      26.176  39.197  48.071  1.00  0.00     0.038 C 
HETATM   16  C   UNL     1      27.027  39.089  49.171  1.00  0.00     0.068 C 
HETATM   17  C   UNL     1      27.058  40.074  50.155  1.00  0.00     0.038 C 
HETATM   18  C   UNL     1      26.091  41.073  50.136  1.00  0.00     0.026 C 
BRANCH  16  19
HETATM   19  O   UNL     1      27.748  37.931  49.316  1.00  0.00    -0.352 OA
BRANCH  19  20
HETATM   20  C   UNL     1      28.929  38.207  50.095  1.00  0.00     0.171 C 
HETATM   21  C   UNL     1      30.147  38.115  49.198  1.00  0.00     0.034 C 
ENDBRANCH  19  20
ENDBRANCH  16  19
ENDBRANCH   9  13
ENDBRANCH   1   7
BRANCH   2  22
HETATM   22  N   UNL     1      21.345  45.856  47.928  1.00  0.00    -0.378 N 
HETATM   23  C   UNL     1      20.023  45.422  48.418  1.00  0.00     0.133 C 
HETATM   24  C   UNL     1      18.891  46.428  48.099  1.00  0.00     0.054 C 
HETATM   25  C   UNL     1      18.871  46.698  46.598  1.00  0.00     0.020 C 
HETATM   26  C   UNL     1      19.015  47.739  48.859  1.00  0.00     0.020 A 
HETATM   27  C   UNL     1      20.198  47.349  46.247  1.00  0.00     0.023 C 
HETATM   28  C   UNL     1      20.338  48.693  46.967  1.00  0.00     0.138 C 
HETATM   29  C   UNL     1      21.372  46.412  46.562  1.00  0.00     0.129 C 
HETATM   30  N   UNL     1      19.751  48.787  48.301  1.00  0.00    -0.317 N 
HETATM   31  C   UNL     1      19.899  50.025  48.940  1.00  0.00     0.247 A 
HETATM   32  O   UNL     1      20.501  50.989  48.472  1.00  0.00    -0.268 OA
HETATM   33  C   UNL     1      19.246  50.162  50.264  1.00  0.00     0.074 A 
HETATM   34  C   UNL     1      18.533  49.151  50.769  1.00  0.00     0.007 A 
HETATM   35  C   UNL     1      18.405  47.912  50.046  1.00  0.00     0.026 A 
ENDBRANCH   2  22
BRANCH   5  36
HETATM   36  C   UNL     1      25.741  47.247  51.388  1.00  0.00     0.251 C 
HETATM   37  N   UNL     1      25.701  46.788  52.687  1.00  0.00    -0.353 N 
HETATM   38  H   UNL     1      25.069  46.035  52.927  1.00  0.00     0.163 HD
HETATM   39  O   UNL     1      26.660  47.921  50.934  1.00  0.00    -0.268 OA
BRANCH  37  40
HETATM   40  C   UNL     1      26.766  47.063  53.624  1.00  0.00     0.161 C 
BRANCH  40  41
HETATM   41  C   UNL     1      27.544  45.808  53.934  1.00  0.00    -0.041 A 
HETATM   42  C   UNL     1      27.285  44.610  53.253  1.00  0.00     0.009 A 
HETATM   43  C   UNL     1      28.023  43.459  53.540  1.00  0.00     0.001 A 
HETATM   44  C   UNL     1      29.022  43.491  54.511  1.00  0.00     0.000 A 
HETATM   45  C   UNL     1      29.287  44.675  55.196  1.00  0.00     0.001 A 
HETATM   46  C   UNL     1      28.553  45.827  54.910  1.00  0.00     0.009 A 
ENDBRANCH  40  41
ENDBRANCH  37  40
ENDBRANCH   5  36
TORSDOF 8
ENDMDL
MODEL 4
REMARK VINA RESULT:      -9.3      2.461      3.437
REMARK  8 active torsions:
REMARK  status: ('A' for Active; 'I' for Inactive)
REMARK    1  A    between atoms: C_2  and  O_3 
REMARK    2  A    between atoms: O_3  and  C_4 
REMARK    3  A    between atoms: C_7  and  N_8 
REMARK       I    between atoms: N_8  and  C_9 
REMARK       I    between atoms: C_9  and  N_10 
REMARK    4  A    between atoms: N_10  and  C_11 
REMARK    5  A    between atoms: C_12  and  N_13 
REMARK    6  A    between atoms: C_29  and  C_30 
REMARK       I    between atoms: C_30  and  N_31 
REMARK    7  A    between atoms: N_31  and  C_32 
REMARK    8  A    between atoms: C_32  and  C_33 
ROOT
HETATM    1  C   UNL     1      25.852  40.895  50.539  1.00  0.00     0.043 A 
HETATM    2  C   UNL     1      26.093  40.186  49.339  1.00  0.00     0.052 A 
HETATM    3  C   UNL     1      25.267  40.549  48.255  1.00  0.00     0.032 A 
HETATM    4  C   UNL     1      24.309  41.576  48.332  1.00  0.00     0.019 A 
HETATM    5  C   UNL     1      24.130  42.282  49.516  1.00  0.00     0.033 A 
HETATM    6  C   UNL     1      24.884  41.917  50.624  1.00  0.00     0.043 A 
ENDROOT
BRANCH   1   7
HETATM    7  N   UNL     1      26.550  40.630  51.751  1.00  0.00    -0.213 NA
HETATM    8  C   UNL     1      27.598  41.503  52.019  1.00  0.00     0.281 C 
HETATM    9  N   UNL     1      27.809  41.677  53.381  1.00  0.00    -0.215 NA
HETATM   10  O   UNL     1      28.184  42.117  51.129  1.00  0.00    -0.260 OA
HETATM   11  H   UNL     1      26.965  41.483  53.904  1.00  0.00     0.138 HD
HETATM   12  H   UNL     1      26.815  39.660  51.864  1.00  0.00     0.138 HD
BRANCH   9  13
HETATM   13  C   UNL     1      28.501  42.862  53.746  1.00  0.00     0.016 C 
HETATM   14  C   UNL     1      29.798  42.747  54.249  1.00  0.00     0.026 C 
HETATM   15  C   UNL     1      30.313  43.777  55.039  1.00  0.00     0.038 C 
HETATM   16  C   UNL     1      29.533  44.905  55.288  1.00  0.00     0.068 C 
HETATM   17  C   UNL     1      28.329  45.108  54.618  1.00  0.00     0.038 C 
HETATM   18  C   UNL     1      27.810  44.077  53.843  1.00  0.00     0.026 C 
BRANCH  16  19
HETATM   19  O   UNL     1      29.927  45.751  56.293  1.00  0.00    -0.352 OA
BRANCH  19  20
HETATM   20  C   UNL     1      30.708  45.010  57.252  1.00  0.00     0.171 C 
HETATM   21  C   UNL     1      30.162  45.269  58.641  1.00  0.00     0.034 C 
ENDBRANCH  19  20
ENDBRANCH  16  19
ENDBRANCH   9  13
ENDBRANCH   1   7
BRANCH   2  22
HETATM   22  N   UNL     1      27.096  39.220  49.207  1.00  0.00    -0.378 N 
HETATM   23  C   UNL     1      26.801  37.789  49.413  1.00  0.00     0.133 C 
HETATM   24  C   UNL     1      26.940  36.943  48.124  1.00  0.00     0.054 C 
HETATM   25  C   UNL     1      28.334  37.149  47.540  1.00  0.00     0.020 C 
HETATM   26  C   UNL     1      25.887  37.261  47.076  1.00  0.00     0.020 A 
HETATM   27  C   UNL     1      28.443  38.615  47.160  1.00  0.00     0.023 C 
HETATM   28  C   UNL     1      27.419  38.962  46.074  1.00  0.00     0.138 C 
HETATM   29  C   UNL     1      28.289  39.517  48.392  1.00  0.00     0.129 C 
HETATM   30  N   UNL     1      26.138  38.263  46.135  1.00  0.00    -0.317 N 
HETATM   31  C   UNL     1      25.217  38.603  45.135  1.00  0.00     0.247 A 
HETATM   32  O   UNL     1      25.408  39.446  44.263  1.00  0.00    -0.268 OA
HETATM   33  C   UNL     1      23.938  37.851  45.137  1.00  0.00     0.074 A 
HETATM   34  C   UNL     1      23.729  36.886  46.037  1.00  0.00     0.007 A 
HETATM   35  C   UNL     1      24.730  36.575  47.025  1.00  0.00     0.026 A 
ENDBRANCH   2  22
BRANCH   5  36
HETATM   36  C   UNL     1      23.120  43.376  49.588  1.00  0.00     0.251 C 
HETATM   37  N   UNL     1      22.947  44.119  48.440  1.00  0.00    -0.353 N 
HETATM   38  H   UNL     1      23.286  43.755  47.560  1.00  0.00     0.163 HD
HETATM   39  O   UNL     1      22.494  43.571  50.625  1.00  0.00    -0.268 OA
BRANCH  37  40
HETATM   40  C   UNL     1      21.985  45.196  48.370  1.00  0.00     0.161 C 
BRANCH  40  41
HETATM   41  C   UNL     1      20.788  44.791  47.546  1.00  0.00    -0.041 A 
HETATM   42  C   UNL     1      19.532  45.374  47.759  1.00  0.00     0.009 A 
HETATM   43  C   UNL     1      18.435  45.000  46.979  1.00  0.00     0.001 A 
HETATM   44  C   UNL     1      18.581  44.037  45.982  1.00  0.00     0.000 A 
HETATM   45  C   UNL     1      19.824  43.447  45.762  1.00  0.00     0.001 A 
HETATM   46  C   UNL     1      20.922  43.822  46.538  1.00  0.00     0.009 A 
ENDBRANCH  40  41
ENDBRANCH  37  40
ENDBRANCH   5  36
TORSDOF 8
ENDMDL
MODEL 5
REMARK VINA RESULT:      -9.1     13.034     16.218
REMARK  8 active torsions:
REMARK  status: ('A' for Active; 'I' for Inactive)
REMARK    1  A    between atoms: C_2  and  O_3 
REMARK    2  A    between atoms: O_3  and  C_4 
REMARK    3  A    between atoms: C_7  and  N_8 
REMARK       I    between atoms: N_8  and  C_9 
REMARK       I    between atoms: C_9  and  N_10 
REMARK    4  A    between atoms: N_10  and  C_11 
REMARK    5  A    between atoms: C_12  and  N_13 
REMARK    6  A    between atoms: C_29  and  C_30 
REMARK       I    between atoms: C_30  and  N_31 
REMARK    7  A    between atoms: N_31  and  C_32 
REMARK    8  A    between atoms: C_32  and  C_33 
ROOT
HETATM    1  C   UNL     1      35.213  51.509  41.746  1.00  0.00     0.043 A 
HETATM    2  C   UNL     1      33.951  51.110  41.247  1.00  0.00     0.052 A 
HETATM    3  C   UNL     1      33.557  51.737  40.047  1.00  0.00     0.032 A 
HETATM    4  C   UNL     1      34.373  52.652  39.357  1.00  0.00     0.019 A 
HETATM    5  C   UNL     1      35.628  52.987  39.854  1.00  0.00     0.033 A 
HETATM    6  C   UNL     1      36.030  52.435  41.063  1.00  0.00     0.043 A 
ENDROOT
BRANCH   1   7
HETATM    7  N   UNL     1      35.753  51.023  42.970  1.00  0.00    -0.213 NA
HETATM    8  C   UNL     1      36.979  51.575  43.322  1.00  0.00     0.281 C 
HETATM    9  N   UNL     1      37.159  51.635  44.698  1.00  0.00    -0.215 NA
HETATM   10  O   UNL     1      37.753  52.042  42.487  1.00  0.00    -0.260 OA
HETATM   11  H   UNL     1      36.268  51.654  45.177  1.00  0.00     0.138 HD
HETATM   12  H   UNL     1      35.746  50.014  43.045  1.00  0.00     0.138 HD
BRANCH   9  13
HETATM   13  C   UNL     1      38.120  52.579  45.148  1.00  0.00     0.016 C 
HETATM   14  C   UNL     1      39.398  52.122  45.475  1.00  0.00     0.026 C 
HETATM   15  C   UNL     1      40.189  52.880  46.340  1.00  0.00     0.038 C 
HETATM   16  C   UNL     1      39.697  54.085  46.840  1.00  0.00     0.068 C 
HETATM   17  C   UNL     1      38.514  54.635  46.352  1.00  0.00     0.038 C 
HETATM   18  C   UNL     1      37.721  53.875  45.501  1.00  0.00     0.026 C 
BRANCH  16  19
HETATM   19  O   UNL     1      40.347  54.655  47.905  1.00  0.00    -0.352 OA
BRANCH  19  20
HETATM   20  C   UNL     1      41.757  54.372  47.800  1.00  0.00     0.171 C 
HETATM   21  C   UNL     1      42.517  55.679  47.699  1.00  0.00     0.034 C 
ENDBRANCH  19  20
ENDBRANCH  16  19
ENDBRANCH   9  13
ENDBRANCH   1   7
BRANCH   2  22
HETATM   22  N   UNL     1      33.154  50.139  41.864  1.00  0.00    -0.378 N 
HETATM   23  C   UNL     1      32.128  50.520  42.854  1.00  0.00     0.133 C 
HETATM   24  C   UNL     1      30.683  50.241  42.375  1.00  0.00     0.054 C 
HETATM   25  C   UNL     1      30.562  48.772  41.980  1.00  0.00     0.020 C 
HETATM   26  C   UNL     1      30.247  51.125  41.219  1.00  0.00     0.020 A 
HETATM   27  C   UNL     1      31.502  48.550  40.807  1.00  0.00     0.023 C 
HETATM   28  C   UNL     1      31.068  49.400  39.609  1.00  0.00     0.138 C 
HETATM   29  C   UNL     1      32.957  48.834  41.205  1.00  0.00     0.129 C 
HETATM   30  N   UNL     1      30.486  50.706  39.907  1.00  0.00    -0.317 N 
HETATM   31  C   UNL     1      30.104  51.465  38.794  1.00  0.00     0.247 A 
HETATM   32  O   UNL     1      30.255  51.121  37.624  1.00  0.00    -0.268 OA
HETATM   33  C   UNL     1      29.444  52.762  39.079  1.00  0.00     0.074 A 
HETATM   34  C   UNL     1      29.211  53.134  40.342  1.00  0.00     0.007 A 
HETATM   35  C   UNL     1      29.613  52.292  41.438  1.00  0.00     0.026 A 
ENDBRANCH   2  22
BRANCH   5  36
HETATM   36  C   UNL     1      36.492  53.949  39.112  1.00  0.00     0.251 C 
HETATM   37  N   UNL     1      35.847  55.009  38.514  1.00  0.00    -0.353 N 
HETATM   38  H   UNL     1      34.905  55.241  38.801  1.00  0.00     0.163 HD
HETATM   39  O   UNL     1      37.706  53.778  39.065  1.00  0.00    -0.268 OA
BRANCH  37  40
HETATM   40  C   UNL     1      36.570  56.024  37.781  1.00  0.00     0.161 C 
BRANCH  40  41
HETATM   41  C   UNL     1      35.929  57.377  37.969  1.00  0.00    -0.041 A 
HETATM   42  C   UNL     1      34.765  57.527  38.735  1.00  0.00     0.009 A 
HETATM   43  C   UNL     1      34.191  58.787  38.912  1.00  0.00     0.001 A 
HETATM   44  C   UNL     1      34.770  59.910  38.324  1.00  0.00     0.000 A 
HETATM   45  C   UNL     1      35.926  59.774  37.558  1.00  0.00     0.001 A 
HETATM   46  C   UNL     1      36.502  58.516  37.381  1.00  0.00     0.009 A 
ENDBRANCH  40  41
ENDBRANCH  37  40
ENDBRANCH   5  36
TORSDOF 8
ENDMDL
MODEL 6
REMARK VINA RESULT:      -9.1      3.467      8.185
REMARK  8 active torsions:
REMARK  status: ('A' for Active; 'I' for Inactive)
REMARK    1  A    between atoms: C_2  and  O_3 
REMARK    2  A    between atoms: O_3  and  C_4 
REMARK    3  A    between atoms: C_7  and  N_8 
REMARK       I    between atoms: N_8  and  C_9 
REMARK       I    between atoms: C_9  and  N_10 
REMARK    4  A    between atoms: N_10  and  C_11 
REMARK    5  A    between atoms: C_12  and  N_13 
REMARK    6  A    between atoms: C_29  and  C_30 
REMARK       I    between atoms: C_30  and  N_31 
REMARK    7  A    between atoms: N_31  and  C_32 
REMARK    8  A    between atoms: C_32  and  C_33 
ROOT
HETATM    1  C   UNL     1      23.392  44.028  48.223  1.00  0.00     0.043 A 
HETATM    2  C   UNL     1      23.577  42.652  47.951  1.00  0.00     0.052 A 
HETATM    3  C   UNL     1      24.253  41.929  48.955  1.00  0.00     0.032 A 
HETATM    4  C   UNL     1      24.669  42.510  50.168  1.00  0.00     0.019 A 
HETATM    5  C   UNL     1      24.430  43.856  50.421  1.00  0.00     0.033 A 
HETATM    6  C   UNL     1      23.818  44.616  49.433  1.00  0.00     0.043 A 
ENDROOT
BRANCH   1   7
HETATM    7  N   UNL     1      22.778  44.926  47.305  1.00  0.00    -0.213 NA
HETATM    8  C   UNL     1      21.493  45.324  47.655  1.00  0.00     0.281 C 
HETATM    9  N   UNL     1      21.190  46.600  47.197  1.00  0.00    -0.215 NA
HETATM   10  O   UNL     1      20.768  44.641  48.376  1.00  0.00    -0.260 OA
HETATM   11  H   UNL     1      22.032  47.144  47.062  1.00  0.00     0.138 HD
HETATM   12  H   UNL     1      22.843  44.628  46.340  1.00  0.00     0.138 HD
BRANCH   9  13
HETATM   13  C   UNL     1      20.135  47.259  47.881  1.00  0.00     0.016 C 
HETATM   14  C   UNL     1      18.967  47.557  47.176  1.00  0.00     0.026 C 
HETATM   15  C   UNL     1      18.139  48.582  47.635  1.00  0.00     0.038 C 
HETATM   16  C   UNL     1      18.481  49.270  48.799  1.00  0.00     0.068 C 
HETATM   17  C   UNL     1      19.528  48.836  49.608  1.00  0.00     0.038 C 
HETATM   18  C   UNL     1      20.360  47.823  49.144  1.00  0.00     0.026 C 
BRANCH  16  19
HETATM   19  O   UNL     1      17.834  50.450  49.064  1.00  0.00    -0.352 OA
BRANCH  19  20
HETATM   20  C   UNL     1      18.790  51.408  49.562  1.00  0.00     0.171 C 
HETATM   21  C   UNL     1      19.173  52.353  48.441  1.00  0.00     0.034 C 
ENDBRANCH  19  20
ENDBRANCH  16  19
ENDBRANCH   9  13
ENDBRANCH   1   7
BRANCH   2  22
HETATM   22  N   UNL     1      23.099  42.029  46.792  1.00  0.00    -0.378 N 
HETATM   23  C   UNL     1      23.710  42.303  45.478  1.00  0.00     0.133 C 
HETATM   24  C   UNL     1      24.429  41.075  44.870  1.00  0.00     0.054 C 
HETATM   25  C   UNL     1      23.451  39.907  44.799  1.00  0.00     0.020 C 
HETATM   26  C   UNL     1      25.674  40.662  45.636  1.00  0.00     0.020 A 
HETATM   27  C   UNL     1      23.061  39.569  46.228  1.00  0.00     0.023 C 
HETATM   28  C   UNL     1      24.289  39.110  47.021  1.00  0.00     0.138 C 
HETATM   29  C   UNL     1      22.362  40.756  46.904  1.00  0.00     0.129 C 
HETATM   30  N   UNL     1      25.560  39.748  46.687  1.00  0.00    -0.317 N 
HETATM   31  C   UNL     1      26.665  39.315  47.430  1.00  0.00     0.247 A 
HETATM   32  O   UNL     1      26.622  38.485  48.335  1.00  0.00    -0.268 OA
HETATM   33  C   UNL     1      27.977  39.899  47.057  1.00  0.00     0.074 A 
HETATM   34  C   UNL     1      28.063  40.758  46.036  1.00  0.00     0.007 A 
HETATM   35  C   UNL     1      26.886  41.142  45.302  1.00  0.00     0.026 A 
ENDBRANCH   2  22
BRANCH   5  36
HETATM   36  C   UNL     1      24.864  44.461  51.712  1.00  0.00     0.251 C 
HETATM   37  N   UNL     1      25.322  43.584  52.671  1.00  0.00    -0.353 N 
HETATM   38  H   UNL     1      25.590  42.648  52.398  1.00  0.00     0.163 HD
HETATM   39  O   UNL     1      24.808  45.676  51.873  1.00  0.00    -0.268 OA
BRANCH  37  40
HETATM   40  C   UNL     1      25.791  44.043  53.959  1.00  0.00     0.161 C 
BRANCH  40  41
HETATM   41  C   UNL     1      27.250  43.706  54.147  1.00  0.00    -0.041 A 
HETATM   42  C   UNL     1      27.779  42.496  53.680  1.00  0.00     0.009 A 
HETATM   43  C   UNL     1      29.135  42.204  53.849  1.00  0.00     0.001 A 
HETATM   44  C   UNL     1      29.973  43.115  54.488  1.00  0.00     0.000 A 
HETATM   45  C   UNL     1      29.458  44.321  54.960  1.00  0.00     0.001 A 
HETATM   46  C   UNL     1      28.105  44.615  54.790  1.00  0.00     0.009 A 
ENDBRANCH  40  41
ENDBRANCH  37  40
ENDBRANCH   5  36
TORSDOF 8
ENDMDL
MODEL 7
REMARK VINA RESULT:      -9.0     13.475     18.119
REMARK  8 active torsions:
REMARK  status: ('A' for Active; 'I' for Inactive)
REMARK    1  A    between atoms: C_2  and  O_3 
REMARK    2  A    between atoms: O_3  and  C_4 
REMARK    3  A    between atoms: C_7  and  N_8 
REMARK       I    between atoms: N_8  and  C_9 
REMARK       I    between atoms: C_9  and  N_10 
REMARK    4  A    between atoms: N_10  and  C_11 
REMARK    5  A    between atoms: C_12  and  N_13 
REMARK    6  A    between atoms: C_29  and  C_30 
REMARK       I    between atoms: C_30  and  N_31 
REMARK    7  A    between atoms: N_31  and  C_32 
REMARK    8  A    between atoms: C_32  and  C_33 
ROOT
HETATM    1  C   UNL     1      39.406  51.119  43.122  1.00  0.00     0.043 A 
HETATM    2  C   UNL     1      39.367  52.116  44.125  1.00  0.00     0.052 A 
HETATM    3  C   UNL     1      40.150  51.847  45.266  1.00  0.00     0.032 A 
HETATM    4  C   UNL     1      40.958  50.701  45.387  1.00  0.00     0.019 A 
HETATM    5  C   UNL     1      41.007  49.764  44.361  1.00  0.00     0.033 A 
HETATM    6  C   UNL     1      40.206  49.964  43.244  1.00  0.00     0.043 A 
ENDROOT
BRANCH   1   7
HETATM    7  N   UNL     1      38.641  51.193  41.924  1.00  0.00    -0.213 NA
HETATM    8  C   UNL     1      37.329  50.750  42.045  1.00  0.00     0.281 C 
HETATM    9  N   UNL     1      36.466  51.402  41.174  1.00  0.00    -0.215 NA
HETATM   10  O   UNL     1      36.987  49.942  42.908  1.00  0.00    -0.260 OA
HETATM   11  H   UNL     1      36.831  52.309  40.916  1.00  0.00     0.138 HD
HETATM   12  H   UNL     1      39.110  50.801  41.117  1.00  0.00     0.138 HD
BRANCH   9  13
HETATM   13  C   UNL     1      35.094  51.372  41.538  1.00  0.00     0.016 C 
HETATM   14  C   UNL     1      34.725  51.878  42.785  1.00  0.00     0.026 C 
HETATM   15  C   UNL     1      33.529  51.449  43.365  1.00  0.00     0.038 C 
HETATM   16  C   UNL     1      32.719  50.547  42.678  1.00  0.00     0.068 C 
HETATM   17  C   UNL     1      32.986  50.206  41.354  1.00  0.00     0.038 C 
HETATM   18  C   UNL     1      34.182  50.623  40.781  1.00  0.00     0.026 C 
BRANCH  16  19
HETATM   19  O   UNL     1      31.722  49.914  43.376  1.00  0.00    -0.352 OA
BRANCH  19  20
HETATM   20  C   UNL     1      31.375  48.692  42.696  1.00  0.00     0.171 C 
HETATM   21  C   UNL     1      29.901  48.722  42.345  1.00  0.00     0.034 C 
ENDBRANCH  19  20
ENDBRANCH  16  19
ENDBRANCH   9  13
ENDBRANCH   1   7
BRANCH   2  22
HETATM   22  N   UNL     1      38.641  53.305  43.997  1.00  0.00    -0.378 N 
HETATM   23  C   UNL     1      37.483  53.582  44.868  1.00  0.00     0.133 C 
HETATM   24  C   UNL     1      37.711  54.773  45.830  1.00  0.00     0.054 C 
HETATM   25  C   UNL     1      38.108  56.002  45.019  1.00  0.00     0.020 C 
HETATM   26  C   UNL     1      38.758  54.496  46.897  1.00  0.00     0.020 A 
HETATM   27  C   UNL     1      39.429  55.678  44.341  1.00  0.00     0.023 C 
HETATM   28  C   UNL     1      40.518  55.432  45.390  1.00  0.00     0.138 C 
HETATM   29  C   UNL     1      39.281  54.486  43.387  1.00  0.00     0.129 C 
HETATM   30  N   UNL     1      40.099  54.789  46.633  1.00  0.00    -0.317 N 
HETATM   31  C   UNL     1      41.115  54.569  47.571  1.00  0.00     0.247 A 
HETATM   32  O   UNL     1      42.299  54.847  47.401  1.00  0.00    -0.268 OA
HETATM   33  C   UNL     1      40.695  53.983  48.868  1.00  0.00     0.074 A 
HETATM   34  C   UNL     1      39.404  53.729  49.103  1.00  0.00     0.007 A 
HETATM   35  C   UNL     1      38.410  54.000  48.098  1.00  0.00     0.026 A 
ENDBRANCH   2  22
BRANCH   5  36
HETATM   36  C   UNL     1      41.874  48.558  44.491  1.00  0.00     0.251 C 
HETATM   37  N   UNL     1      41.589  47.716  45.544  1.00  0.00    -0.353 N 
HETATM   38  H   UNL     1      40.693  47.788  46.007  1.00  0.00     0.163 HD
HETATM   39  O   UNL     1      42.775  48.356  43.684  1.00  0.00    -0.268 OA
BRANCH  37  40
HETATM   40  C   UNL     1      42.340  46.502  45.771  1.00  0.00     0.161 C 
BRANCH  40  41
HETATM   41  C   UNL     1      41.462  45.288  45.592  1.00  0.00    -0.041 A 
HETATM   42  C   UNL     1      40.296  45.347  44.817  1.00  0.00     0.009 A 
HETATM   43  C   UNL     1      39.499  44.212  44.648  1.00  0.00     0.001 A 
HETATM   44  C   UNL     1      39.857  43.009  45.253  1.00  0.00     0.000 A 
HETATM   45  C   UNL     1      41.013  42.938  46.028  1.00  0.00     0.001 A 
HETATM   46  C   UNL     1      41.811  44.070  46.196  1.00  0.00     0.009 A 
ENDBRANCH  40  41
ENDBRANCH  37  40
ENDBRANCH   5  36
TORSDOF 8
ENDMDL
MODEL 8
REMARK VINA RESULT:      -9.0     13.839     18.446
REMARK  8 active torsions:
REMARK  status: ('A' for Active; 'I' for Inactive)
REMARK    1  A    between atoms: C_2  and  O_3 
REMARK    2  A    between atoms: O_3  and  C_4 
REMARK    3  A    between atoms: C_7  and  N_8 
REMARK       I    between atoms: N_8  and  C_9 
REMARK       I    between atoms: C_9  and  N_10 
REMARK    4  A    between atoms: N_10  and  C_11 
REMARK    5  A    between atoms: C_12  and  N_13 
REMARK    6  A    between atoms: C_29  and  C_30 
REMARK       I    between atoms: C_30  and  N_31 
REMARK    7  A    between atoms: N_31  and  C_32 
REMARK    8  A    between atoms: C_32  and  C_33 
ROOT
HETATM    1  C   UNL     1      36.984  52.280  41.844  1.00  0.00     0.043 A 
HETATM    2  C   UNL     1      37.932  52.888  42.700  1.00  0.00     0.052 A 
HETATM    3  C   UNL     1      38.486  54.093  42.219  1.00  0.00     0.032 A 
HETATM    4  C   UNL     1      38.092  54.685  41.005  1.00  0.00     0.019 A 
HETATM    5  C   UNL     1      37.123  54.083  40.210  1.00  0.00     0.033 A 
HETATM    6  C   UNL     1      36.595  52.866  40.621  1.00  0.00     0.043 A 
ENDROOT
BRANCH   1   7
HETATM    7  N   UNL     1      36.359  51.036  42.137  1.00  0.00    -0.213 NA
HETATM    8  C   UNL     1      35.005  51.123  42.437  1.00  0.00     0.281 C 
HETATM    9  N   UNL     1      34.304  49.980  42.071  1.00  0.00    -0.215 NA
HETATM   10  O   UNL     1      34.497  52.151  42.883  1.00  0.00    -0.260 OA
HETATM   11  H   UNL     1      34.781  49.489  41.327  1.00  0.00     0.138 HD
HETATM   12  H   UNL     1      36.868  50.472  42.805  1.00  0.00     0.138 HD
BRANCH   9  13
HETATM   13  C   UNL     1      32.905  50.151  41.897  1.00  0.00     0.016 C 
HETATM   14  C   UNL     1      32.044  49.566  42.826  1.00  0.00     0.026 C 
HETATM   15  C   UNL     1      30.724  49.300  42.455  1.00  0.00     0.038 C 
HETATM   16  C   UNL     1      30.289  49.645  41.176  1.00  0.00     0.068 C 
HETATM   17  C   UNL     1      31.086  50.412  40.330  1.00  0.00     0.038 C 
HETATM   18  C   UNL     1      32.404  50.666  40.694  1.00  0.00     0.026 C 
BRANCH  16  19
HETATM   19  O   UNL     1      29.106  49.112  40.732  1.00  0.00    -0.352 OA
BRANCH  19  20
HETATM   20  C   UNL     1      28.041  49.542  41.603  1.00  0.00     0.171 C 
HETATM   21  C   UNL     1      27.644  50.958  41.237  1.00  0.00     0.034 C 
ENDBRANCH  19  20
ENDBRANCH  16  19
ENDBRANCH   9  13
ENDBRANCH   1   7
BRANCH   2  22
HETATM   22  N   UNL     1      38.281  52.367  43.951  1.00  0.00    -0.378 N 
HETATM   23  C   UNL     1      39.696  52.184  44.326  1.00  0.00     0.133 C 
HETATM   24  C   UNL     1      40.146  53.106  45.485  1.00  0.00     0.054 C 
HETATM   25  C   UNL     1      39.219  52.899  46.678  1.00  0.00     0.020 C 
HETATM   26  C   UNL     1      40.183  54.578  45.107  1.00  0.00     0.020 A 
HETATM   27  C   UNL     1      37.830  53.331  46.240  1.00  0.00     0.023 C 
HETATM   28  C   UNL     1      37.822  54.822  45.888  1.00  0.00     0.138 C 
HETATM   29  C   UNL     1      37.328  52.471  45.072  1.00  0.00     0.129 C 
HETATM   30  N   UNL     1      39.036  55.358  45.278  1.00  0.00    -0.317 N 
HETATM   31  C   UNL     1      39.000  56.721  44.961  1.00  0.00     0.247 A 
HETATM   32  O   UNL     1      38.031  57.456  45.130  1.00  0.00    -0.268 OA
HETATM   33  C   UNL     1      40.249  57.299  44.407  1.00  0.00     0.074 A 
HETATM   34  C   UNL     1      41.339  56.537  44.270  1.00  0.00     0.007 A 
HETATM   35  C   UNL     1      41.309  55.145  44.637  1.00  0.00     0.026 A 
ENDBRANCH   2  22
BRANCH   5  36
HETATM   36  C   UNL     1      36.703  54.721  38.931  1.00  0.00     0.251 C 
HETATM   37  N   UNL     1      37.396  55.853  38.560  1.00  0.00    -0.353 N 
HETATM   38  H   UNL     1      38.288  56.051  38.994  1.00  0.00     0.163 HD
HETATM   39  O   UNL     1      35.791  54.236  38.269  1.00  0.00    -0.268 OA
BRANCH  37  40
HETATM   40  C   UNL     1      37.102  56.557  37.333  1.00  0.00     0.161 C 
BRANCH  40  41
HETATM   41  C   UNL     1      36.357  57.839  37.617  1.00  0.00    -0.041 A 
HETATM   42  C   UNL     1      36.859  59.077  37.194  1.00  0.00     0.009 A 
HETATM   43  C   UNL     1      36.152  60.253  37.452  1.00  0.00     0.001 A 
HETATM   44  C   UNL     1      34.939  60.206  38.136  1.00  0.00     0.000 A 
HETATM   45  C   UNL     1      34.431  58.981  38.565  1.00  0.00     0.001 A 
HETATM   46  C   UNL     1      35.135  57.804  38.306  1.00  0.00     0.009 A 
ENDBRANCH  40  41
ENDBRANCH  37  40
ENDBRANCH   5  36
TORSDOF 8
ENDMDL
MODEL 9
REMARK VINA RESULT:      -8.8      9.576     15.244
REMARK  8 active torsions:
REMARK  status: ('A' for Active; 'I' for Inactive)
REMARK    1  A    between atoms: C_2  and  O_3 
REMARK    2  A    between atoms: O_3  and  C_4 
REMARK    3  A    between atoms: C_7  and  N_8 
REMARK       I    between atoms: N_8  and  C_9 
REMARK       I    between atoms: C_9  and  N_10 
REMARK    4  A    between atoms: N_10  and  C_11 
REMARK    5  A    between atoms: C_12  and  N_13 
REMARK    6  A    between atoms: C_29  and  C_30 
REMARK       I    between atoms: C_30  and  N_31 
REMARK    7  A    between atoms: N_31  and  C_32 
REMARK    8  A    between atoms: C_32  and  C_33 
ROOT
HETATM    1  C   UNL     1      27.004  48.982  38.925  1.00  0.00     0.043 A 
HETATM    2  C   UNL     1      27.769  49.763  39.823  1.00  0.00     0.052 A 
HETATM    3  C   UNL     1      28.652  49.033  40.645  1.00  0.00     0.032 A 
HETATM    4  C   UNL     1      28.811  47.639  40.551  1.00  0.00     0.019 A 
HETATM    5  C   UNL     1      28.075  46.909  39.624  1.00  0.00     0.033 A 
HETATM    6  C   UNL     1      27.152  47.583  38.834  1.00  0.00     0.043 A 
ENDROOT
BRANCH   1   7
HETATM    7  N   UNL     1      26.024  49.537  38.054  1.00  0.00    -0.213 NA
HETATM    8  C   UNL     1      24.709  49.259  38.407  1.00  0.00     0.281 C 
HETATM    9  N   UNL     1      23.831  50.265  38.024  1.00  0.00    -0.215 NA
HETATM   10  O   UNL     1      24.405  48.271  39.075  1.00  0.00    -0.260 OA
HETATM   11  H   UNL     1      24.314  51.149  37.935  1.00  0.00     0.138 HD
HETATM   12  H   UNL     1      26.207  49.365  37.074  1.00  0.00     0.138 HD
BRANCH   9  13
HETATM   13  C   UNL     1      22.601  50.304  38.731  1.00  0.00     0.016 C 
HETATM   14  C   UNL     1      21.462  49.783  38.114  1.00  0.00     0.026 C 
HETATM   15  C   UNL     1      20.204  50.215  38.536  1.00  0.00     0.038 C 
HETATM   16  C   UNL     1      20.109  51.136  39.579  1.00  0.00     0.068 C 
HETATM   17  C   UNL     1      21.230  51.493  40.325  1.00  0.00     0.038 C 
HETATM   18  C   UNL     1      22.484  51.073  39.896  1.00  0.00     0.026 C 
BRANCH  16  19
HETATM   19  O   UNL     1      18.908  51.767  39.774  1.00  0.00    -0.352 OA
BRANCH  19  20
HETATM   20  C   UNL     1      18.788  52.132  41.163  1.00  0.00     0.171 C 
HETATM   21  C   UNL     1      17.740  53.217  41.302  1.00  0.00     0.034 C 
ENDBRANCH  19  20
ENDBRANCH  16  19
ENDBRANCH   9  13
ENDBRANCH   1   7
BRANCH   2  22
HETATM   22  N   UNL     1      27.695  51.159  39.881  1.00  0.00    -0.378 N 
HETATM   23  C   UNL     1      27.720  51.865  41.176  1.00  0.00     0.133 C 
HETATM   24  C   UNL     1      28.987  52.730  41.378  1.00  0.00     0.054 C 
HETATM   25  C   UNL     1      29.121  53.701  40.208  1.00  0.00     0.020 C 
HETATM   26  C   UNL     1      30.261  51.914  41.521  1.00  0.00     0.020 A 
HETATM   27  C   UNL     1      29.312  52.862  38.956  1.00  0.00     0.023 C 
HETATM   28  C   UNL     1      30.610  52.054  39.050  1.00  0.00     0.138 C 
HETATM   29  C   UNL     1      28.098  51.957  38.708  1.00  0.00     0.129 C 
HETATM   30  N   UNL     1      30.990  51.575  40.377  1.00  0.00    -0.317 N 
HETATM   31  C   UNL     1      32.176  50.833  40.434  1.00  0.00     0.247 A 
HETATM   32  O   UNL     1      32.872  50.546  39.464  1.00  0.00    -0.268 OA
HETATM   33  C   UNL     1      32.616  50.401  41.784  1.00  0.00     0.074 A 
HETATM   34  C   UNL     1      31.911  50.752  42.864  1.00  0.00     0.007 A 
HETATM   35  C   UNL     1      30.710  51.535  42.731  1.00  0.00     0.026 A 
ENDBRANCH   2  22
BRANCH   5  36
HETATM   36  C   UNL     1      28.256  45.433  39.521  1.00  0.00     0.251 C 
HETATM   37  N   UNL     1      27.110  44.673  39.606  1.00  0.00    -0.353 N 
HETATM   38  H   UNL     1      26.211  45.117  39.471  1.00  0.00     0.163 HD
HETATM   39  O   UNL     1      29.376  44.958  39.363  1.00  0.00    -0.268 OA
BRANCH  37  40
HETATM   40  C   UNL     1      27.144  43.232  39.501  1.00  0.00     0.161 C 
BRANCH  40  41
HETATM   41  C   UNL     1      27.309  42.600  40.861  1.00  0.00    -0.041 A 
HETATM   42  C   UNL     1      28.299  41.637  41.096  1.00  0.00     0.009 A 
HETATM   43  C   UNL     1      28.450  41.071  42.364  1.00  0.00     0.001 A 
HETATM   44  C   UNL     1      27.613  41.459  43.409  1.00  0.00     0.000 A 
HETATM   45  C   UNL     1      26.623  42.414  43.187  1.00  0.00     0.001 A 
HETATM   46  C   UNL     1      26.472  42.982  41.922  1.00  0.00     0.009 A 
ENDBRANCH  40  41
ENDBRANCH  37  40
ENDBRANCH   5  36
TORSDOF 8
ENDMDL
MODEL 10
REMARK VINA RESULT:      -8.8      4.522      6.287
REMARK  8 active torsions:
REMARK  status: ('A' for Active; 'I' for Inactive)
REMARK    1  A    between atoms: C_2  and  O_3 
REMARK    2  A    between atoms: O_3  and  C_4 
REMARK    3  A    between atoms: C_7  and  N_8 
REMARK       I    between atoms: N_8  and  C_9 
REMARK       I    between atoms: C_9  and  N_10 
REMARK    4  A    between atoms: N_10  and  C_11 
REMARK    5  A    between atoms: C_12  and  N_13 
REMARK    6  A    between atoms: C_29  and  C_30 
REMARK       I    between atoms: C_30  and  N_31 
REMARK    7  A    between atoms: N_31  and  C_32 
REMARK    8  A    between atoms: C_32  and  C_33 
ROOT
HETATM    1  C   UNL     1      22.516  44.568  48.517  1.00  0.00     0.043 A 
HETATM    2  C   UNL     1      22.149  44.313  47.175  1.00  0.00     0.052 A 
HETATM    3  C   UNL     1      21.832  45.458  46.414  1.00  0.00     0.032 A 
HETATM    4  C   UNL     1      21.923  46.766  46.926  1.00  0.00     0.019 A 
HETATM    5  C   UNL     1      22.332  46.981  48.237  1.00  0.00     0.033 A 
HETATM    6  C   UNL     1      22.598  45.877  49.036  1.00  0.00     0.043 A 
ENDROOT
BRANCH   1   7
HETATM    7  N   UNL     1      22.819  43.535  49.448  1.00  0.00    -0.213 NA
HETATM    8  C   UNL     1      24.148  43.488  49.850  1.00  0.00     0.281 C 
HETATM    9  N   UNL     1      24.295  42.999  51.143  1.00  0.00    -0.215 NA
HETATM   10  O   UNL     1      25.060  43.932  49.154  1.00  0.00    -0.260 OA
HETATM   11  H   UNL     1      23.451  43.144  51.681  1.00  0.00     0.138 HD
HETATM   12  H   UNL     1      22.463  42.627  49.178  1.00  0.00     0.138 HD
BRANCH   9  13
HETATM   13  C   UNL     1      25.508  43.350  51.793  1.00  0.00     0.016 C 
HETATM   14  C   UNL     1      26.605  42.498  51.658  1.00  0.00     0.026 C 
HETATM   15  C   UNL     1      27.616  42.535  52.620  1.00  0.00     0.038 C 
HETATM   16  C   UNL     1      27.520  43.435  53.680  1.00  0.00     0.068 C 
HETATM   17  C   UNL     1      26.535  44.419  53.700  1.00  0.00     0.038 C 
HETATM   18  C   UNL     1      25.522  44.374  52.749  1.00  0.00     0.026 C 
BRANCH  16  19
HETATM   19  O   UNL     1      28.348  43.252  54.758  1.00  0.00    -0.352 OA
BRANCH  19  20
HETATM   20  C   UNL     1      29.640  43.819  54.460  1.00  0.00     0.171 C 
HETATM   21  C   UNL     1      30.660  43.264  55.434  1.00  0.00     0.034 C 
ENDBRANCH  19  20
ENDBRANCH  16  19
ENDBRANCH   9  13
ENDBRANCH   1   7
BRANCH   2  22
HETATM   22  N   UNL     1      22.131  43.031  46.614  1.00  0.00    -0.378 N 
HETATM   23  C   UNL     1      20.927  42.520  45.932  1.00  0.00     0.133 C 
HETATM   24  C   UNL     1      21.130  42.303  44.413  1.00  0.00     0.054 C 
HETATM   25  C   UNL     1      22.328  41.386  44.194  1.00  0.00     0.020 C 
HETATM   26  C   UNL     1      21.319  43.596  43.637  1.00  0.00     0.020 A 
HETATM   27  C   UNL     1      23.547  42.113  44.737  1.00  0.00     0.023 C 
HETATM   28  C   UNL     1      23.790  43.405  43.950  1.00  0.00     0.138 C 
HETATM   29  C   UNL     1      23.403  42.384  46.240  1.00  0.00     0.129 C 
HETATM   30  N   UNL     1      22.606  44.113  43.471  1.00  0.00    -0.317 N 
HETATM   31  C   UNL     1      22.856  45.294  42.761  1.00  0.00     0.247 A 
HETATM   32  O   UNL     1      23.971  45.766  42.553  1.00  0.00    -0.268 OA
HETATM   33  C   UNL     1      21.670  45.989  42.204  1.00  0.00     0.074 A 
HETATM   34  C   UNL     1      20.450  45.465  42.361  1.00  0.00     0.007 A 
HETATM   35  C   UNL     1      20.270  44.235  43.086  1.00  0.00     0.026 A 
ENDBRANCH   2  22
BRANCH   5  36
HETATM   36  C   UNL     1      22.437  48.369  48.769  1.00  0.00     0.251 C 
HETATM   37  N   UNL     1      21.629  49.312  48.171  1.00  0.00    -0.353 N 
HETATM   38  H   UNL     1      20.843  49.007  47.612  1.00  0.00     0.163 HD
HETATM   39  O   UNL     1      23.206  48.620  49.691  1.00  0.00    -0.268 OA
BRANCH  37  40
HETATM   40  C   UNL     1      21.619  50.691  48.605  1.00  0.00     0.161 C 
BRANCH  40  41
HETATM   41  C   UNL     1      20.221  51.126  48.970  1.00  0.00    -0.041 A 
HETATM   42  C   UNL     1      19.651  52.275  48.405  1.00  0.00     0.009 A 
HETATM   43  C   UNL     1      18.350  52.659  48.741  1.00  0.00     0.001 A 
HETATM   44  C   UNL     1      17.608  51.902  49.646  1.00  0.00     0.000 A 
HETATM   45  C   UNL     1      18.166  50.759  50.217  1.00  0.00     0.001 A 
HETATM   46  C   UNL     1      19.464  50.373  49.881  1.00  0.00     0.009 A 
ENDBRANCH  40  41
ENDBRANCH  37  40
ENDBRANCH   5  36
TORSDOF 8
ENDMDL
