MODEL 1
REMARK VINA RESULT:      -8.4      0.000      0.000
REMARK  6 active torsions:
REMARK  status: ('A' for Active; 'I' for Inactive)
REMARK    1  A    between atoms: C_2  and  C_3 
REMARK    2  A    between atoms: C_2  and  C_18 
REMARK       I    between atoms: C_3  and  N_4 
REMARK    3  A    between atoms: N_4  and  C_5 
REMARK    4  A    between atoms: C_9  and  C_10 
REMARK    5  A    between atoms: C_18  and  C_19 
REMARK    6  A    between atoms: C_22  and  O_23 
ROOT
HETATM    1  C   UNL     1      26.915  42.319  51.165  1.00  0.00     0.227 C 
HETATM    2  N   UNL     1      27.700  43.420  51.457  1.00  0.00    -0.312 N 
HETATM    3  O   UNL     1      27.011  41.238  51.751  1.00  0.00    -0.273 OA
HETATM    4  H   UNL     1      27.617  44.270  50.916  1.00  0.00     0.170 HD
ENDROOT
BRANCH   2   5
HETATM    5  C   UNL     1      28.639  43.397  52.469  1.00  0.00     0.126 A 
HETATM    6  N   UNL     1      29.743  42.590  52.486  1.00  0.00    -0.262 N 
HETATM    7  H   UNL     1      30.025  41.935  51.761  1.00  0.00     0.191 HD
HETATM    8  N   UNL     1      30.469  42.693  53.614  1.00  0.00    -0.172 NA
HETATM    9  C   UNL     1      29.844  43.643  54.330  1.00  0.00     0.092 A 
HETATM   10  C   UNL     1      28.689  44.112  53.640  1.00  0.00     0.084 A 
BRANCH   9  11
HETATM   11  C   UNL     1      30.336  44.059  55.640  1.00  0.00     0.012 A 
HETATM   12  C   UNL     1      29.931  45.254  56.229  1.00  0.00     0.130 A 
HETATM   13  N   UNL     1      30.334  45.686  57.451  1.00  0.00    -0.272 NA
HETATM   14  C   UNL     1      31.192  44.887  58.120  1.00  0.00     0.116 A 
HETATM   15  C   UNL     1      31.666  43.683  57.626  1.00  0.00     0.020 A 
HETATM   16  C   UNL     1      31.231  43.268  56.367  1.00  0.00     0.017 A 
ENDBRANCH   9  11
ENDBRANCH   2   5
BRANCH   1  17
HETATM   17  C   UNL     1      25.799  42.555  50.148  1.00  0.00     0.078 C 
HETATM   18  C   UNL     1      25.473  41.224  49.468  1.00  0.00     0.020 C 
BRANCH  17  19
HETATM   19  C   UNL     1      24.518  43.189  50.712  1.00  0.00     0.052 C 
BRANCH  19  20
HETATM   20  C   UNL     1      24.382  44.676  50.497  1.00  0.00    -0.057 A 
HETATM   21  C   UNL     1      25.021  45.590  51.343  1.00  0.00     0.010 A 
HETATM   22  C   UNL     1      24.921  46.964  51.103  1.00  0.00     0.037 A 
HETATM   23  C   UNL     1      24.194  47.449  50.016  1.00  0.00     0.068 A 
HETATM   24  C   UNL     1      23.555  46.545  49.169  1.00  0.00     0.037 A 
HETATM   25  C   UNL     1      23.652  45.169  49.406  1.00  0.00     0.010 A 
BRANCH  23  26
HETATM   26  O   UNL     1      24.191  48.810  49.890  1.00  0.00    -0.356 OA
HETATM   27  C   UNL     1      24.743  49.347  48.695  1.00  0.00     0.210 C 
ENDBRANCH  23  26
ENDBRANCH  19  20
ENDBRANCH  17  19
ENDBRANCH   1  17
TORSDOF 6
ENDMDL
MODEL 2
REMARK VINA RESULT:      -8.3      3.145      8.620
REMARK  6 active torsions:
REMARK  status: ('A' for Active; 'I' for Inactive)
REMARK    1  A    between atoms: C_2  and  C_3 
REMARK    2  A    between atoms: C_2  and  C_18 
REMARK       I    between atoms: C_3  and  N_4 
REMARK    3  A    between atoms: N_4  and  C_5 
REMARK    4  A    between atoms: C_9  and  C_10 
REMARK    5  A    between atoms: C_18  and  C_19 
REMARK    6  A    between atoms: C_22  and  O_23 
ROOT
HETATM    1  C   UNL     1      26.872  44.168  50.963  1.00  0.00     0.227 C 
HETATM    2  N   UNL     1      25.741  44.877  51.325  1.00  0.00    -0.312 N 
HETATM    3  O   UNL     1      27.635  44.515  50.059  1.00  0.00    -0.273 OA
HETATM    4  H   UNL     1      25.120  44.526  52.042  1.00  0.00     0.170 HD
ENDROOT
BRANCH   2   5
HETATM    5  C   UNL     1      25.400  46.066  50.711  1.00  0.00     0.126 A 
HETATM    6  N   UNL     1      26.209  47.167  50.645  1.00  0.00    -0.262 N 
HETATM    7  H   UNL     1      27.156  47.245  51.007  1.00  0.00     0.191 HD
HETATM    8  N   UNL     1      25.626  48.229  50.062  1.00  0.00    -0.172 NA
HETATM    9  C   UNL     1      24.415  47.785  49.685  1.00  0.00     0.092 A 
HETATM   10  C   UNL     1      24.238  46.426  50.076  1.00  0.00     0.084 A 
BRANCH   9  11
HETATM   11  C   UNL     1      23.462  48.652  48.998  1.00  0.00     0.012 A 
HETATM   12  C   UNL     1      22.229  48.180  48.555  1.00  0.00     0.130 A 
HETATM   13  N   UNL     1      21.293  48.938  47.931  1.00  0.00    -0.272 NA
HETATM   14  C   UNL     1      21.604  50.237  47.731  1.00  0.00     0.116 A 
HETATM   15  C   UNL     1      22.803  50.809  48.124  1.00  0.00     0.020 A 
HETATM   16  C   UNL     1      23.743  50.001  48.763  1.00  0.00     0.017 A 
ENDBRANCH   9  11
ENDBRANCH   2   5
BRANCH   1  17
HETATM   17  C   UNL     1      27.216  42.974  51.854  1.00  0.00     0.078 C 
HETATM   18  C   UNL     1      26.684  41.704  51.189  1.00  0.00     0.020 C 
BRANCH  17  19
HETATM   19  C   UNL     1      28.707  42.812  52.190  1.00  0.00     0.052 C 
BRANCH  19  20
HETATM   20  C   UNL     1      29.164  43.491  53.457  1.00  0.00    -0.057 A 
HETATM   21  C   UNL     1      28.416  44.525  54.033  1.00  0.00     0.010 A 
HETATM   22  C   UNL     1      28.830  45.114  55.231  1.00  0.00     0.037 A 
HETATM   23  C   UNL     1      29.986  44.679  55.879  1.00  0.00     0.068 A 
HETATM   24  C   UNL     1      30.735  43.650  55.313  1.00  0.00     0.037 A 
HETATM   25  C   UNL     1      30.325  43.058  54.112  1.00  0.00     0.010 A 
BRANCH  23  26
HETATM   26  O   UNL     1      30.266  45.330  57.049  1.00  0.00    -0.356 OA
HETATM   27  C   UNL     1      29.198  46.039  57.662  1.00  0.00     0.210 C 
ENDBRANCH  23  26
ENDBRANCH  19  20
ENDBRANCH  17  19
ENDBRANCH   1  17
TORSDOF 6
ENDMDL
MODEL 3
REMARK VINA RESULT:      -8.1      2.649      8.065
REMARK  6 active torsions:
REMARK  status: ('A' for Active; 'I' for Inactive)
REMARK    1  A    between atoms: C_2  and  C_3 
REMARK    2  A    between atoms: C_2  and  C_18 
REMARK       I    between atoms: C_3  and  N_4 
REMARK    3  A    between atoms: N_4  and  C_5 
REMARK    4  A    between atoms: C_9  and  C_10 
REMARK    5  A    between atoms: C_18  and  C_19 
REMARK    6  A    between atoms: C_22  and  O_23 
ROOT
HETATM    1  C   UNL     1      27.345  42.246  51.783  1.00  0.00     0.227 C 
HETATM    2  N   UNL     1      26.362  43.061  52.314  1.00  0.00    -0.312 N 
HETATM    3  O   UNL     1      27.475  42.030  50.576  1.00  0.00    -0.273 OA
HETATM    4  H   UNL     1      26.266  43.168  53.315  1.00  0.00     0.170 HD
ENDROOT
BRANCH   2   5
HETATM    5  C   UNL     1      25.461  43.731  51.512  1.00  0.00     0.126 A 
HETATM    6  N   UNL     1      24.467  43.130  50.788  1.00  0.00    -0.262 N 
HETATM    7  H   UNL     1      24.250  42.136  50.768  1.00  0.00     0.191 HD
HETATM    8  N   UNL     1      23.765  43.985  50.023  1.00  0.00    -0.172 NA
HETATM    9  C   UNL     1      24.285  45.192  50.303  1.00  0.00     0.092 A 
HETATM   10  C   UNL     1      25.353  45.072  51.238  1.00  0.00     0.084 A 
BRANCH   9  11
HETATM   11  C   UNL     1      23.780  46.407  49.669  1.00  0.00     0.012 A 
HETATM   12  C   UNL     1      24.235  47.669  50.039  1.00  0.00     0.130 A 
HETATM   13  N   UNL     1      23.824  48.833  49.474  1.00  0.00    -0.272 NA
HETATM   14  C   UNL     1      22.902  48.733  48.493  1.00  0.00     0.116 A 
HETATM   15  C   UNL     1      22.375  47.530  48.052  1.00  0.00     0.020 A 
HETATM   16  C   UNL     1      22.821  46.353  48.653  1.00  0.00     0.017 A 
ENDBRANCH   9  11
ENDBRANCH   2   5
BRANCH   1  17
HETATM   17  C   UNL     1      28.378  41.721  52.782  1.00  0.00     0.078 C 
HETATM   18  C   UNL     1      28.706  40.271  52.423  1.00  0.00     0.020 C 
BRANCH  17  19
HETATM   19  C   UNL     1      29.671  42.546  52.886  1.00  0.00     0.052 C 
BRANCH  19  20
HETATM   20  C   UNL     1      29.732  43.509  54.046  1.00  0.00    -0.057 A 
HETATM   21  C   UNL     1      28.809  44.554  54.168  1.00  0.00     0.010 A 
HETATM   22  C   UNL     1      28.853  45.410  55.271  1.00  0.00     0.037 A 
HETATM   23  C   UNL     1      29.808  45.237  56.274  1.00  0.00     0.068 A 
HETATM   24  C   UNL     1      30.730  44.199  56.159  1.00  0.00     0.037 A 
HETATM   25  C   UNL     1      30.691  43.339  55.055  1.00  0.00     0.010 A 
BRANCH  23  26
HETATM   26  O   UNL     1      29.729  46.134  57.303  1.00  0.00    -0.356 OA
HETATM   27  C   UNL     1      30.637  45.957  58.382  1.00  0.00     0.210 C 
ENDBRANCH  23  26
ENDBRANCH  19  20
ENDBRANCH  17  19
ENDBRANCH   1  17
TORSDOF 6
ENDMDL
MODEL 4
REMARK VINA RESULT:      -7.9      4.661      7.266
REMARK  6 active torsions:
REMARK  status: ('A' for Active; 'I' for Inactive)
REMARK    1  A    between atoms: C_2  and  C_3 
REMARK    2  A    between atoms: C_2  and  C_18 
REMARK       I    between atoms: C_3  and  N_4 
REMARK    3  A    between atoms: N_4  and  C_5 
REMARK    4  A    between atoms: C_9  and  C_10 
REMARK    5  A    between atoms: C_18  and  C_19 
REMARK    6  A    between atoms: C_22  and  O_23 
ROOT
HETATM    1  C   UNL     1      22.838  48.704  49.126  1.00  0.00     0.227 C 
HETATM    2  N   UNL     1      24.088  48.497  49.681  1.00  0.00    -0.312 N 
HETATM    3  O   UNL     1      21.951  47.847  49.101  1.00  0.00    -0.273 OA
HETATM    4  H   UNL     1      24.798  49.215  49.634  1.00  0.00     0.170 HD
ENDROOT
BRANCH   2   5
HETATM    5  C   UNL     1      24.425  47.305  50.291  1.00  0.00     0.126 A 
HETATM    6  N   UNL     1      23.879  46.090  49.978  1.00  0.00    -0.262 N 
HETATM    7  H   UNL     1      23.189  45.905  49.254  1.00  0.00     0.191 HD
HETATM    8  N   UNL     1      24.312  45.087  50.762  1.00  0.00    -0.172 NA
HETATM    9  C   UNL     1      25.214  45.661  51.577  1.00  0.00     0.092 A 
HETATM   10  C   UNL     1      25.313  47.057  51.308  1.00  0.00     0.084 A 
BRANCH   9  11
HETATM   11  C   UNL     1      25.929  44.890  52.589  1.00  0.00     0.012 A 
HETATM   12  C   UNL     1      25.335  44.538  53.798  1.00  0.00     0.130 A 
HETATM   13  N   UNL     1      25.937  43.805  54.769  1.00  0.00    -0.272 NA
HETATM   14  C   UNL     1      27.204  43.408  54.525  1.00  0.00     0.116 A 
HETATM   15  C   UNL     1      27.894  43.708  53.361  1.00  0.00     0.020 A 
HETATM   16  C   UNL     1      27.245  44.462  52.384  1.00  0.00     0.017 A 
ENDBRANCH   9  11
ENDBRANCH   2   5
BRANCH   1  17
HETATM   17  C   UNL     1      22.554  50.130  48.654  1.00  0.00     0.078 C 
HETATM   18  C   UNL     1      23.788  50.652  47.917  1.00  0.00     0.020 C 
BRANCH  17  19
HETATM   19  C   UNL     1      21.303  50.295  47.775  1.00  0.00     0.052 C 
BRANCH  19  20
HETATM   20  C   UNL     1      20.063  50.765  48.494  1.00  0.00    -0.057 A 
HETATM   21  C   UNL     1      19.666  52.106  48.449  1.00  0.00     0.010 A 
HETATM   22  C   UNL     1      18.491  52.516  49.085  1.00  0.00     0.037 A 
HETATM   23  C   UNL     1      17.688  51.600  49.766  1.00  0.00     0.068 A 
HETATM   24  C   UNL     1      18.077  50.264  49.815  1.00  0.00     0.037 A 
HETATM   25  C   UNL     1      19.255  49.848  49.181  1.00  0.00     0.010 A 
BRANCH  23  26
HETATM   26  O   UNL     1      16.561  52.132  50.328  1.00  0.00    -0.356 OA
HETATM   27  C   UNL     1      16.177  53.430  49.894  1.00  0.00     0.210 C 
ENDBRANCH  23  26
ENDBRANCH  19  20
ENDBRANCH  17  19
ENDBRANCH   1  17
TORSDOF 6
ENDMDL
MODEL 5
REMARK VINA RESULT:      -7.9      3.885      6.396
REMARK  6 active torsions:
REMARK  status: ('A' for Active; 'I' for Inactive)
REMARK    1  A    between atoms: C_2  and  C_3 
REMARK    2  A    between atoms: C_2  and  C_18 
REMARK       I    between atoms: C_3  and  N_4 
REMARK    3  A    between atoms: N_4  and  C_5 
REMARK    4  A    between atoms: C_9  and  C_10 
REMARK    5  A    between atoms: C_18  and  C_19 
REMARK    6  A    between atoms: C_22  and  O_23 
ROOT
HETATM    1  C   UNL     1      23.720  47.485  49.439  1.00  0.00     0.227 C 
HETATM    2  N   UNL     1      24.609  47.318  50.486  1.00  0.00    -0.312 N 
HETATM    3  O   UNL     1      23.174  46.548  48.852  1.00  0.00    -0.273 OA
HETATM    4  H   UNL     1      25.069  48.116  50.903  1.00  0.00     0.170 HD
ENDROOT
BRANCH   2   5
HETATM    5  C   UNL     1      24.926  46.068  50.979  1.00  0.00     0.126 A 
HETATM    6  N   UNL     1      24.011  45.100  51.289  1.00  0.00    -0.262 N 
HETATM    7  H   UNL     1      23.002  45.162  51.176  1.00  0.00     0.191 HD
HETATM    8  N   UNL     1      24.558  43.994  51.825  1.00  0.00    -0.172 NA
HETATM    9  C   UNL     1      25.880  44.230  51.810  1.00  0.00     0.092 A 
HETATM   10  C   UNL     1      26.151  45.526  51.282  1.00  0.00     0.084 A 
BRANCH   9  11
HETATM   11  C   UNL     1      26.838  43.249  52.311  1.00  0.00     0.012 A 
HETATM   12  C   UNL     1      27.193  42.126  51.568  1.00  0.00     0.130 A 
HETATM   13  N   UNL     1      28.091  41.190  51.967  1.00  0.00    -0.272 NA
HETATM   14  C   UNL     1      28.662  41.379  53.175  1.00  0.00     0.116 A 
HETATM   15  C   UNL     1      28.378  42.456  54.000  1.00  0.00     0.020 A 
HETATM   16  C   UNL     1      27.450  43.400  53.559  1.00  0.00     0.017 A 
ENDBRANCH   9  11
ENDBRANCH   2   5
BRANCH   1  17
HETATM   17  C   UNL     1      23.331  48.930  49.128  1.00  0.00     0.078 C 
HETATM   18  C   UNL     1      24.567  49.663  48.604  1.00  0.00     0.020 C 
BRANCH  17  19
HETATM   19  C   UNL     1      22.160  49.099  48.147  1.00  0.00     0.052 C 
BRANCH  19  20
HETATM   20  C   UNL     1      20.978  49.874  48.677  1.00  0.00    -0.057 A 
HETATM   21  C   UNL     1      20.108  49.312  49.618  1.00  0.00     0.010 A 
HETATM   22  C   UNL     1      19.044  50.059  50.131  1.00  0.00     0.037 A 
HETATM   23  C   UNL     1      18.834  51.377  49.725  1.00  0.00     0.068 A 
HETATM   24  C   UNL     1      19.696  51.943  48.789  1.00  0.00     0.037 A 
HETATM   25  C   UNL     1      20.763  51.198  48.271  1.00  0.00     0.010 A 
BRANCH  23  26
HETATM   26  O   UNL     1      17.769  51.996  50.317  1.00  0.00    -0.356 OA
HETATM   27  C   UNL     1      16.529  51.946  49.623  1.00  0.00     0.210 C 
ENDBRANCH  23  26
ENDBRANCH  19  20
ENDBRANCH  17  19
ENDBRANCH   1  17
TORSDOF 6
ENDMDL
MODEL 6
REMARK VINA RESULT:      -7.8      5.036     10.181
REMARK  6 active torsions:
REMARK  status: ('A' for Active; 'I' for Inactive)
REMARK    1  A    between atoms: C_2  and  C_3 
REMARK    2  A    between atoms: C_2  and  C_18 
REMARK       I    between atoms: C_3  and  N_4 
REMARK    3  A    between atoms: N_4  and  C_5 
REMARK    4  A    between atoms: C_9  and  C_10 
REMARK    5  A    between atoms: C_18  and  C_19 
REMARK    6  A    between atoms: C_22  and  O_23 
ROOT
HETATM    1  C   UNL     1      24.238  46.884  49.999  1.00  0.00     0.227 C 
HETATM    2  N   UNL     1      23.120  47.095  49.213  1.00  0.00    -0.312 N 
HETATM    3  O   UNL     1      24.759  47.760  50.693  1.00  0.00    -0.273 OA
HETATM    4  H   UNL     1      22.758  46.357  48.623  1.00  0.00     0.170 HD
ENDROOT
BRANCH   2   5
HETATM    5  C   UNL     1      22.475  48.315  49.176  1.00  0.00     0.126 A 
HETATM    6  N   UNL     1      23.108  49.528  49.143  1.00  0.00    -0.262 N 
HETATM    7  H   UNL     1      24.113  49.685  49.116  1.00  0.00     0.191 HD
HETATM    8  N   UNL     1      22.267  50.576  49.189  1.00  0.00    -0.172 NA
HETATM    9  C   UNL     1      21.041  50.024  49.194  1.00  0.00     0.092 A 
HETATM   10  C   UNL     1      21.133  48.602  49.184  1.00  0.00     0.084 A 
BRANCH   9  11
HETATM   11  C   UNL     1      19.834  50.845  49.232  1.00  0.00     0.012 A 
HETATM   12  C   UNL     1      18.762  50.533  50.065  1.00  0.00     0.130 A 
HETATM   13  N   UNL     1      17.624  51.266  50.162  1.00  0.00    -0.272 NA
HETATM   14  C   UNL     1      17.547  52.365  49.382  1.00  0.00     0.116 A 
HETATM   15  C   UNL     1      18.548  52.763  48.513  1.00  0.00     0.020 A 
HETATM   16  C   UNL     1      19.706  51.988  48.438  1.00  0.00     0.017 A 
ENDBRANCH   9  11
ENDBRANCH   2   5
BRANCH   1  17
HETATM   17  C   UNL     1      24.727  45.437  50.076  1.00  0.00     0.078 C 
HETATM   18  C   UNL     1      24.060  44.639  48.954  1.00  0.00     0.020 C 
BRANCH  17  19
HETATM   19  C   UNL     1      26.253  45.255  50.019  1.00  0.00     0.052 C 
BRANCH  19  20
HETATM   20  C   UNL     1      26.908  44.878  51.325  1.00  0.00    -0.057 A 
HETATM   21  C   UNL     1      27.978  43.977  51.362  1.00  0.00     0.010 A 
HETATM   22  C   UNL     1      28.603  43.671  52.575  1.00  0.00     0.037 A 
HETATM   23  C   UNL     1      28.181  44.263  53.765  1.00  0.00     0.068 A 
HETATM   24  C   UNL     1      27.117  45.161  53.736  1.00  0.00     0.037 A 
HETATM   25  C   UNL     1      26.487  45.469  52.524  1.00  0.00     0.010 A 
BRANCH  23  26
HETATM   26  O   UNL     1      28.888  43.889  54.874  1.00  0.00    -0.356 OA
HETATM   27  C   UNL     1      29.841  42.847  54.708  1.00  0.00     0.210 C 
ENDBRANCH  23  26
ENDBRANCH  19  20
ENDBRANCH  17  19
ENDBRANCH   1  17
TORSDOF 6
ENDMDL
MODEL 7
REMARK VINA RESULT:      -7.8      4.489      6.437
REMARK  6 active torsions:
REMARK  status: ('A' for Active; 'I' for Inactive)
REMARK    1  A    between atoms: C_2  and  C_3 
REMARK    2  A    between atoms: C_2  and  C_18 
REMARK       I    between atoms: C_3  and  N_4 
REMARK    3  A    between atoms: N_4  and  C_5 
REMARK    4  A    between atoms: C_9  and  C_10 
REMARK    5  A    between atoms: C_18  and  C_19 
REMARK    6  A    between atoms: C_22  and  O_23 
ROOT
HETATM    1  C   UNL     1      28.498  39.864  50.406  1.00  0.00     0.227 C 
HETATM    2  N   UNL     1      29.092  39.879  51.655  1.00  0.00    -0.312 N 
HETATM    3  O   UNL     1      27.664  40.695  50.037  1.00  0.00    -0.273 OA
HETATM    4  H   UNL     1      29.734  39.147  51.929  1.00  0.00     0.170 HD
ENDROOT
BRANCH   2   5
HETATM    5  C   UNL     1      28.815  40.865  52.581  1.00  0.00     0.126 A 
HETATM    6  N   UNL     1      27.592  41.068  53.159  1.00  0.00    -0.262 N 
HETATM    7  H   UNL     1      26.751  40.515  53.006  1.00  0.00     0.191 HD
HETATM    8  N   UNL     1      27.551  42.137  53.972  1.00  0.00    -0.172 NA
HETATM    9  C   UNL     1      28.808  42.613  53.967  1.00  0.00     0.092 A 
HETATM   10  C   UNL     1      29.633  41.836  53.104  1.00  0.00     0.084 A 
BRANCH   9  11
HETATM   11  C   UNL     1      29.184  43.788  54.748  1.00  0.00     0.012 A 
HETATM   12  C   UNL     1      30.385  43.847  55.451  1.00  0.00     0.130 A 
HETATM   13  N   UNL     1      30.801  44.916  56.176  1.00  0.00    -0.272 NA
HETATM   14  C   UNL     1      29.973  45.981  56.209  1.00  0.00     0.116 A 
HETATM   15  C   UNL     1      28.753  46.027  55.555  1.00  0.00     0.020 A 
HETATM   16  C   UNL     1      28.355  44.912  54.817  1.00  0.00     0.017 A 
ENDBRANCH   9  11
ENDBRANCH   2   5
BRANCH   1  17
HETATM   17  C   UNL     1      29.040  38.820  49.430  1.00  0.00     0.078 C 
HETATM   18  C   UNL     1      29.777  37.744  50.230  1.00  0.00     0.020 C 
BRANCH  17  19
HETATM   19  C   UNL     1      27.992  38.172  48.511  1.00  0.00     0.052 C 
BRANCH  19  20
HETATM   20  C   UNL     1      28.125  38.501  47.044  1.00  0.00    -0.057 A 
HETATM   21  C   UNL     1      27.890  39.797  46.570  1.00  0.00     0.010 A 
HETATM   22  C   UNL     1      28.060  40.096  45.216  1.00  0.00     0.037 A 
HETATM   23  C   UNL     1      28.474  39.115  44.314  1.00  0.00     0.068 A 
HETATM   24  C   UNL     1      28.710  37.823  44.778  1.00  0.00     0.037 A 
HETATM   25  C   UNL     1      28.540  37.519  46.134  1.00  0.00     0.010 A 
BRANCH  23  26
HETATM   26  O   UNL     1      28.615  39.546  43.024  1.00  0.00    -0.356 OA
HETATM   27  C   UNL     1      29.098  40.870  42.837  1.00  0.00     0.210 C 
ENDBRANCH  23  26
ENDBRANCH  19  20
ENDBRANCH  17  19
ENDBRANCH   1  17
TORSDOF 6
ENDMDL
MODEL 8
REMARK VINA RESULT:      -7.6     12.886     13.775
REMARK  6 active torsions:
REMARK  status: ('A' for Active; 'I' for Inactive)
REMARK    1  A    between atoms: C_2  and  C_3 
REMARK    2  A    between atoms: C_2  and  C_18 
REMARK       I    between atoms: C_3  and  N_4 
REMARK    3  A    between atoms: N_4  and  C_5 
REMARK    4  A    between atoms: C_9  and  C_10 
REMARK    5  A    between atoms: C_18  and  C_19 
REMARK    6  A    between atoms: C_22  and  O_23 
ROOT
HETATM    1  C   UNL     1      28.887  48.148  40.305  1.00  0.00     0.227 C 
HETATM    2  N   UNL     1      30.012  48.540  39.602  1.00  0.00    -0.312 N 
HETATM    3  O   UNL     1      28.890  47.898  41.513  1.00  0.00    -0.273 OA
HETATM    4  H   UNL     1      29.970  48.686  38.602  1.00  0.00     0.170 HD
ENDROOT
BRANCH   2   5
HETATM    5  C   UNL     1      31.233  48.717  40.222  1.00  0.00     0.126 A 
HETATM    6  N   UNL     1      32.114  47.709  40.506  1.00  0.00    -0.262 N 
HETATM    7  H   UNL     1      32.001  46.724  40.280  1.00  0.00     0.191 HD
HETATM    8  N   UNL     1      33.201  48.120  41.182  1.00  0.00    -0.172 NA
HETATM    9  C   UNL     1      33.048  49.450  41.292  1.00  0.00     0.092 A 
HETATM   10  C   UNL     1      31.821  49.863  40.697  1.00  0.00     0.084 A 
BRANCH   9  11
HETATM   11  C   UNL     1      34.041  50.281  41.968  1.00  0.00     0.012 A 
HETATM   12  C   UNL     1      35.388  50.243  41.619  1.00  0.00     0.130 A 
HETATM   13  N   UNL     1      36.354  51.004  42.192  1.00  0.00    -0.272 NA
HETATM   14  C   UNL     1      35.957  51.844  43.172  1.00  0.00     0.116 A 
HETATM   15  C   UNL     1      34.646  51.957  43.603  1.00  0.00     0.020 A 
HETATM   16  C   UNL     1      33.678  51.161  42.992  1.00  0.00     0.017 A 
ENDBRANCH   9  11
ENDBRANCH   2   5
BRANCH   1  17
HETATM   17  C   UNL     1      27.576  48.173  39.519  1.00  0.00     0.078 C 
HETATM   18  C   UNL     1      26.788  46.904  39.849  1.00  0.00     0.020 C 
BRANCH  17  19
HETATM   19  C   UNL     1      26.698  49.414  39.745  1.00  0.00     0.052 C 
BRANCH  19  20
HETATM   20  C   UNL     1      27.438  50.728  39.811  1.00  0.00    -0.057 A 
HETATM   21  C   UNL     1      27.696  51.351  41.037  1.00  0.00     0.010 A 
HETATM   22  C   UNL     1      28.421  52.545  41.084  1.00  0.00     0.037 A 
HETATM   23  C   UNL     1      28.909  53.132  39.916  1.00  0.00     0.068 A 
HETATM   24  C   UNL     1      28.656  52.517  38.692  1.00  0.00     0.037 A 
HETATM   25  C   UNL     1      27.929  51.322  38.640  1.00  0.00     0.010 A 
BRANCH  23  26
HETATM   26  O   UNL     1      29.614  54.287  40.106  1.00  0.00    -0.356 OA
HETATM   27  C   UNL     1      30.844  54.183  40.810  1.00  0.00     0.210 C 
ENDBRANCH  23  26
ENDBRANCH  19  20
ENDBRANCH  17  19
ENDBRANCH   1  17
TORSDOF 6
ENDMDL
MODEL 9
REMARK VINA RESULT:      -7.5     10.672     15.165
REMARK  6 active torsions:
REMARK  status: ('A' for Active; 'I' for Inactive)
REMARK    1  A    between atoms: C_2  and  C_3 
REMARK    2  A    between atoms: C_2  and  C_18 
REMARK       I    between atoms: C_3  and  N_4 
REMARK    3  A    between atoms: N_4  and  C_5 
REMARK    4  A    between atoms: C_9  and  C_10 
REMARK    5  A    between atoms: C_18  and  C_19 
REMARK    6  A    between atoms: C_22  and  O_23 
ROOT
HETATM    1  C   UNL     1      17.566  51.900  49.305  1.00  0.00     0.227 C 
HETATM    2  N   UNL     1      16.779  53.008  49.046  1.00  0.00    -0.312 N 
HETATM    3  O   UNL     1      17.417  51.172  50.289  1.00  0.00    -0.273 OA
HETATM    4  H   UNL     1      16.971  53.602  48.251  1.00  0.00     0.170 HD
ENDROOT
BRANCH   2   5
HETATM    5  C   UNL     1      15.729  53.363  49.869  1.00  0.00     0.126 A 
HETATM    6  N   UNL     1      14.683  52.542  50.194  1.00  0.00    -0.262 N 
HETATM    7  H   UNL     1      14.558  51.576  49.900  1.00  0.00     0.191 HD
HETATM    8  N   UNL     1      13.745  53.139  50.949  1.00  0.00    -0.172 NA
HETATM    9  C   UNL     1      14.225  54.374  51.171  1.00  0.00     0.092 A 
HETATM   10  C   UNL     1      15.474  54.551  50.508  1.00  0.00     0.084 A 
BRANCH   9  11
HETATM   11  C   UNL     1      13.489  55.348  51.972  1.00  0.00     0.012 A 
HETATM   12  C   UNL     1      13.986  55.828  53.181  1.00  0.00     0.130 A 
HETATM   13  N   UNL     1      13.363  56.748  53.959  1.00  0.00    -0.272 NA
HETATM   14  C   UNL     1      12.175  57.210  53.513  1.00  0.00     0.116 A 
HETATM   15  C   UNL     1      11.585  56.796  52.330  1.00  0.00     0.020 A 
HETATM   16  C   UNL     1      12.253  55.850  51.553  1.00  0.00     0.017 A 
ENDBRANCH   9  11
ENDBRANCH   2   5
BRANCH   1  17
HETATM   17  C   UNL     1      18.567  51.532  48.210  1.00  0.00     0.078 C 
HETATM   18  C   UNL     1      18.083  52.131  46.888  1.00  0.00     0.020 C 
BRANCH  17  19
HETATM   19  C   UNL     1      20.021  51.951  48.480  1.00  0.00     0.052 C 
BRANCH  19  20
HETATM   20  C   UNL     1      20.999  50.816  48.661  1.00  0.00    -0.057 A 
HETATM   21  C   UNL     1      20.554  49.505  48.869  1.00  0.00     0.010 A 
HETATM   22  C   UNL     1      21.472  48.459  48.991  1.00  0.00     0.037 A 
HETATM   23  C   UNL     1      22.844  48.696  48.900  1.00  0.00     0.068 A 
HETATM   24  C   UNL     1      23.294  49.999  48.694  1.00  0.00     0.037 A 
HETATM   25  C   UNL     1      22.378  51.050  48.572  1.00  0.00     0.010 A 
BRANCH  23  26
HETATM   26  O   UNL     1      23.628  47.583  49.022  1.00  0.00    -0.356 OA
HETATM   27  C   UNL     1      24.592  47.586  50.067  1.00  0.00     0.210 C 
ENDBRANCH  23  26
ENDBRANCH  19  20
ENDBRANCH  17  19
ENDBRANCH   1  17
TORSDOF 6
ENDMDL
MODEL 10
REMARK VINA RESULT:      -7.4     12.611     16.402
REMARK  6 active torsions:
REMARK  status: ('A' for Active; 'I' for Inactive)
REMARK    1  A    between atoms: C_2  and  C_3 
REMARK    2  A    between atoms: C_2  and  C_18 
REMARK       I    between atoms: C_3  and  N_4 
REMARK    3  A    between atoms: N_4  and  C_5 
REMARK    4  A    between atoms: C_9  and  C_10 
REMARK    5  A    between atoms: C_18  and  C_19 
REMARK    6  A    between atoms: C_22  and  O_23 
ROOT
HETATM    1  C   UNL     1      14.893  53.446  50.828  1.00  0.00     0.227 C 
HETATM    2  N   UNL     1      15.524  54.549  51.375  1.00  0.00    -0.312 N 
HETATM    3  O   UNL     1      13.724  53.138  51.073  1.00  0.00    -0.273 OA
HETATM    4  H   UNL     1      16.499  54.733  51.181  1.00  0.00     0.170 HD
ENDROOT
BRANCH   2   5
HETATM    5  C   UNL     1      14.867  55.419  52.222  1.00  0.00     0.126 A 
HETATM    6  N   UNL     1      13.552  55.778  52.099  1.00  0.00    -0.262 N 
HETATM    7  H   UNL     1      12.895  55.440  51.400  1.00  0.00     0.191 HD
HETATM    8  N   UNL     1      13.159  56.697  52.998  1.00  0.00    -0.172 NA
HETATM    9  C   UNL     1      14.242  56.900  53.768  1.00  0.00     0.092 A 
HETATM   10  C   UNL     1      15.336  56.110  53.310  1.00  0.00     0.084 A 
BRANCH   9  11
HETATM   11  C   UNL     1      14.220  57.841  54.885  1.00  0.00     0.012 A 
HETATM   12  C   UNL     1      15.011  58.986  54.894  1.00  0.00     0.130 A 
HETATM   13  N   UNL     1      15.020  59.909  55.889  1.00  0.00    -0.272 NA
HETATM   14  C   UNL     1      14.202  59.673  56.937  1.00  0.00     0.116 A 
HETATM   15  C   UNL     1      13.379  58.563  57.035  1.00  0.00     0.020 A 
HETATM   16  C   UNL     1      13.393  57.635  55.994  1.00  0.00     0.017 A 
ENDBRANCH   9  11
ENDBRANCH   2   5
BRANCH   1  17
HETATM   17  C   UNL     1      15.692  52.686  49.770  1.00  0.00     0.078 C 
HETATM   18  C   UNL     1      14.951  52.789  48.435  1.00  0.00     0.020 C 
BRANCH  17  19
HETATM   19  C   UNL     1      17.153  53.135  49.600  1.00  0.00     0.052 C 
BRANCH  19  20
HETATM   20  C   UNL     1      18.159  52.021  49.446  1.00  0.00    -0.057 A 
HETATM   21  C   UNL     1      19.393  52.242  48.825  1.00  0.00     0.010 A 
HETATM   22  C   UNL     1      20.331  51.211  48.730  1.00  0.00     0.037 A 
HETATM   23  C   UNL     1      20.062  49.948  49.258  1.00  0.00     0.068 A 
HETATM   24  C   UNL     1      18.836  49.720  49.878  1.00  0.00     0.037 A 
HETATM   25  C   UNL     1      17.892  50.750  49.975  1.00  0.00     0.010 A 
BRANCH  23  26
HETATM   26  O   UNL     1      21.071  49.038  49.110  1.00  0.00    -0.356 OA
HETATM   27  C   UNL     1      21.928  49.203  47.988  1.00  0.00     0.210 C 
ENDBRANCH  23  26
ENDBRANCH  19  20
ENDBRANCH  17  19
ENDBRANCH   1  17
TORSDOF 6
ENDMDL
