MODEL 1
REMARK VINA RESULT:      -8.2      0.000      0.000
REMARK  6 active torsions:
REMARK  status: ('A' for Active; 'I' for Inactive)
REMARK    1  A    between atoms: C_2  and  N_3 
REMARK    2  A    between atoms: C_2  and  C_16 
REMARK    3  A    between atoms: N_3  and  C_6 
REMARK    4  A    between atoms: C_16  and  C_17 
REMARK       I    between atoms: C_17  and  N_18 
REMARK    5  A    between atoms: N_18  and  C_19 
REMARK    6  A    between atoms: C_21  and  O_22 
ROOT
HETATM    1  C   UNL     1      26.362  43.708  50.015  1.00  0.00     0.040 C 
HETATM    2  C   UNL     1      26.280  45.032  50.765  1.00  0.00     0.191 C 
ENDROOT
BRANCH   2   3
HETATM    3  N   UNL     1      27.273  45.054  51.905  1.00  0.00    -0.063 N 
HETATM    4  H   UNL     1      28.206  44.859  51.480  1.00  0.00     0.278 HD
HETATM    5  H   UNL     1      27.352  46.031  52.215  1.00  0.00     0.278 HD
BRANCH   3   6
HETATM    6  C   UNL     1      27.108  44.172  53.115  1.00  0.00     0.221 C 
HETATM    7  C   UNL     1      28.272  44.212  54.068  1.00  0.00    -0.011 A 
HETATM    8  C   UNL     1      28.495  45.351  54.855  1.00  0.00     0.009 A 
HETATM    9  C   UNL     1      29.140  43.112  54.190  1.00  0.00     0.011 A 
HETATM   10  C   UNL     1      29.607  45.408  55.699  1.00  0.00     0.019 A 
HETATM   11  S   UNL     1      27.418  46.766  54.764  1.00  0.00    -0.129 SA
HETATM   12  C   UNL     1      30.475  44.322  55.796  1.00  0.00     0.001 A 
HETATM   13  C   UNL     1      30.238  43.171  55.049  1.00  0.00     0.001 A 
HETATM   14  C   UNL     1      25.804  45.993  54.415  1.00  0.00     0.082 C 
HETATM   15  C   UNL     1      25.833  44.567  53.869  1.00  0.00     0.048 C 
ENDBRANCH   3   6
ENDBRANCH   2   3
BRANCH   2  16
HETATM   16  C   UNL     1      26.396  46.241  49.829  1.00  0.00     0.135 C 
BRANCH  16  17
HETATM   17  C   UNL     1      25.341  47.277  50.147  1.00  0.00     0.224 C 
HETATM   18  N   UNL     1      24.811  47.870  49.024  1.00  0.00    -0.327 N 
HETATM   19  H   UNL     1      25.277  47.706  48.138  1.00  0.00     0.169 HD
HETATM   20  O   UNL     1      25.086  47.537  51.320  1.00  0.00    -0.273 OA
BRANCH  18  21
HETATM   21  C   UNL     1      23.760  48.812  48.979  1.00  0.00     0.037 A 
HETATM   22  C   UNL     1      22.423  48.496  49.237  1.00  0.00     0.066 A 
HETATM   23  C   UNL     1      21.434  49.480  49.133  1.00  0.00     0.070 A 
HETATM   24  C   UNL     1      21.789  50.793  48.823  1.00  0.00     0.037 A 
HETATM   25  C   UNL     1      23.118  51.116  48.561  1.00  0.00     0.005 A 
HETATM   26  C   UNL     1      24.098  50.125  48.623  1.00  0.00     0.029 A 
BRANCH  23  27
HETATM   27  O   UNL     1      20.097  49.273  49.342  1.00  0.00    -0.356 OA
HETATM   28  C   UNL     1      19.662  47.923  49.216  1.00  0.00     0.210 C 
ENDBRANCH  23  27
ENDBRANCH  18  21
ENDBRANCH  16  17
ENDBRANCH   2  16
TORSDOF 6
ENDMDL
MODEL 2
REMARK VINA RESULT:      -8.2      4.504      8.044
REMARK  6 active torsions:
REMARK  status: ('A' for Active; 'I' for Inactive)
REMARK    1  A    between atoms: C_2  and  N_3 
REMARK    2  A    between atoms: C_2  and  C_16 
REMARK    3  A    between atoms: N_3  and  C_6 
REMARK    4  A    between atoms: C_16  and  C_17 
REMARK       I    between atoms: C_17  and  N_18 
REMARK    5  A    between atoms: N_18  and  C_19 
REMARK    6  A    between atoms: C_21  and  O_22 
ROOT
HETATM    1  C   UNL     1      26.039  40.636  50.525  1.00  0.00     0.040 C 
HETATM    2  C   UNL     1      27.314  41.468  50.473  1.00  0.00     0.191 C 
ENDROOT
BRANCH   2   3
HETATM    3  N   UNL     1      27.008  42.921  50.754  1.00  0.00    -0.063 N 
HETATM    4  H   UNL     1      27.717  43.237  51.451  1.00  0.00     0.278 HD
HETATM    5  H   UNL     1      27.254  43.449  49.908  1.00  0.00     0.278 HD
BRANCH   3   6
HETATM    6  C   UNL     1      25.647  43.365  51.224  1.00  0.00     0.221 C 
HETATM    7  C   UNL     1      25.676  44.532  52.175  1.00  0.00    -0.011 A 
HETATM    8  C   UNL     1      25.996  45.813  51.701  1.00  0.00     0.009 A 
HETATM    9  C   UNL     1      25.374  44.358  53.537  1.00  0.00     0.011 A 
HETATM   10  C   UNL     1      26.075  46.885  52.593  1.00  0.00     0.019 A 
HETATM   11  S   UNL     1      26.364  46.102  49.984  1.00  0.00    -0.129 SA
HETATM   12  C   UNL     1      25.797  46.699  53.947  1.00  0.00     0.001 A 
HETATM   13  C   UNL     1      25.439  45.438  54.418  1.00  0.00     0.001 A 
HETATM   14  C   UNL     1      25.292  44.882  49.155  1.00  0.00     0.082 C 
HETATM   15  C   UNL     1      24.778  43.728  50.015  1.00  0.00     0.048 C 
ENDBRANCH   3   6
ENDBRANCH   2   3
BRANCH   2  16
HETATM   16  C   UNL     1      28.423  40.892  51.363  1.00  0.00     0.135 C 
BRANCH  16  17
HETATM   17  C   UNL     1      28.445  41.575  52.712  1.00  0.00     0.224 C 
HETATM   18  N   UNL     1      29.456  42.501  52.831  1.00  0.00    -0.327 N 
HETATM   19  H   UNL     1      30.173  42.513  52.115  1.00  0.00     0.169 HD
HETATM   20  O   UNL     1      27.637  41.235  53.574  1.00  0.00    -0.273 OA
BRANCH  18  21
HETATM   21  C   UNL     1      29.697  43.356  53.929  1.00  0.00     0.037 A 
HETATM   22  C   UNL     1      30.675  43.117  54.899  1.00  0.00     0.066 A 
HETATM   23  C   UNL     1      30.824  43.994  55.979  1.00  0.00     0.070 A 
HETATM   24  C   UNL     1      30.030  45.138  56.061  1.00  0.00     0.037 A 
HETATM   25  C   UNL     1      29.051  45.382  55.102  1.00  0.00     0.005 A 
HETATM   26  C   UNL     1      28.875  44.485  54.048  1.00  0.00     0.029 A 
BRANCH  23  27
HETATM   27  O   UNL     1      31.732  43.842  56.992  1.00  0.00    -0.356 OA
HETATM   28  C   UNL     1      31.419  44.528  58.200  1.00  0.00     0.210 C 
ENDBRANCH  23  27
ENDBRANCH  18  21
ENDBRANCH  16  17
ENDBRANCH   2  16
TORSDOF 6
ENDMDL
MODEL 3
REMARK VINA RESULT:      -7.7      4.544      7.878
REMARK  6 active torsions:
REMARK  status: ('A' for Active; 'I' for Inactive)
REMARK    1  A    between atoms: C_2  and  N_3 
REMARK    2  A    between atoms: C_2  and  C_16 
REMARK    3  A    between atoms: N_3  and  C_6 
REMARK    4  A    between atoms: C_16  and  C_17 
REMARK       I    between atoms: C_17  and  N_18 
REMARK    5  A    between atoms: N_18  and  C_19 
REMARK    6  A    between atoms: C_21  and  O_22 
ROOT
HETATM    1  C   UNL     1      26.807  45.045  49.638  1.00  0.00     0.040 C 
HETATM    2  C   UNL     1      27.096  43.968  50.676  1.00  0.00     0.191 C 
ENDROOT
BRANCH   2   3
HETATM    3  N   UNL     1      27.354  44.594  52.028  1.00  0.00    -0.063 N 
HETATM    4  H   UNL     1      28.302  45.025  51.971  1.00  0.00     0.278 HD
HETATM    5  H   UNL     1      26.727  45.405  52.107  1.00  0.00     0.278 HD
BRANCH   3   6
HETATM    6  C   UNL     1      27.272  43.791  53.300  1.00  0.00     0.221 C 
HETATM    7  C   UNL     1      28.420  44.018  54.245  1.00  0.00    -0.011 A 
HETATM    8  C   UNL     1      28.522  45.229  54.946  1.00  0.00     0.009 A 
HETATM    9  C   UNL     1      29.395  43.024  54.446  1.00  0.00     0.011 A 
HETATM   10  C   UNL     1      29.617  45.460  55.782  1.00  0.00     0.019 A 
HETATM   11  S   UNL     1      27.308  46.516  54.753  1.00  0.00    -0.129 SA
HETATM   12  C   UNL     1      30.591  44.477  55.957  1.00  0.00     0.001 A 
HETATM   13  C   UNL     1      30.476  43.257  55.297  1.00  0.00     0.001 A 
HETATM   14  C   UNL     1      25.783  45.560  54.465  1.00  0.00     0.082 C 
HETATM   15  C   UNL     1      25.959  44.108  54.024  1.00  0.00     0.048 C 
ENDBRANCH   3   6
ENDBRANCH   2   3
BRANCH   2  16
HETATM   16  C   UNL     1      26.016  42.879  50.701  1.00  0.00     0.135 C 
BRANCH  16  17
HETATM   17  C   UNL     1      26.630  41.502  50.574  1.00  0.00     0.224 C 
HETATM   18  N   UNL     1      27.097  41.236  49.307  1.00  0.00    -0.327 N 
HETATM   19  H   UNL     1      26.838  41.875  48.563  1.00  0.00     0.169 HD
HETATM   20  O   UNL     1      26.621  40.745  51.541  1.00  0.00    -0.273 OA
BRANCH  18  21
HETATM   21  C   UNL     1      27.789  40.079  48.884  1.00  0.00     0.037 A 
HETATM   22  C   UNL     1      28.680  39.370  49.695  1.00  0.00     0.066 A 
HETATM   23  C   UNL     1      29.357  38.255  49.188  1.00  0.00     0.070 A 
HETATM   24  C   UNL     1      29.103  37.818  47.889  1.00  0.00     0.037 A 
HETATM   25  C   UNL     1      28.220  38.521  47.073  1.00  0.00     0.005 A 
HETATM   26  C   UNL     1      27.577  39.658  47.565  1.00  0.00     0.029 A 
BRANCH  23  27
HETATM   27  O   UNL     1      30.264  37.505  49.887  1.00  0.00    -0.356 OA
HETATM   28  C   UNL     1      29.999  37.368  51.280  1.00  0.00     0.210 C 
ENDBRANCH  23  27
ENDBRANCH  18  21
ENDBRANCH  16  17
ENDBRANCH   2  16
TORSDOF 6
ENDMDL
MODEL 4
REMARK VINA RESULT:      -7.6     12.307     14.671
REMARK  6 active torsions:
REMARK  status: ('A' for Active; 'I' for Inactive)
REMARK    1  A    between atoms: C_2  and  N_3 
REMARK    2  A    between atoms: C_2  and  C_16 
REMARK    3  A    between atoms: N_3  and  C_6 
REMARK    4  A    between atoms: C_16  and  C_17 
REMARK       I    between atoms: C_17  and  N_18 
REMARK    5  A    between atoms: N_18  and  C_19 
REMARK    6  A    between atoms: C_21  and  O_22 
ROOT
HETATM    1  C   UNL     1      27.508  52.394  41.444  1.00  0.00     0.040 C 
HETATM    2  C   UNL     1      28.429  52.198  40.246  1.00  0.00     0.191 C 
ENDROOT
BRANCH   2   3
HETATM    3  N   UNL     1      27.659  51.624  39.078  1.00  0.00    -0.063 N 
HETATM    4  H   UNL     1      26.695  51.436  39.431  1.00  0.00     0.278 HD
HETATM    5  H   UNL     1      27.521  52.389  38.405  1.00  0.00     0.278 HD
BRANCH   3   6
HETATM    6  C   UNL     1      28.141  50.405  38.337  1.00  0.00     0.221 C 
HETATM    7  C   UNL     1      29.088  49.541  39.124  1.00  0.00    -0.011 A 
HETATM    8  C   UNL     1      28.609  48.773  40.196  1.00  0.00     0.009 A 
HETATM    9  C   UNL     1      30.454  49.482  38.793  1.00  0.00     0.011 A 
HETATM   10  C   UNL     1      29.499  48.013  40.960  1.00  0.00     0.019 A 
HETATM   11  S   UNL     1      26.888  48.785  40.649  1.00  0.00    -0.129 SA
HETATM   12  C   UNL     1      30.855  47.980  40.639  1.00  0.00     0.001 A 
HETATM   13  C   UNL     1      31.331  48.707  39.551  1.00  0.00     0.001 A 
HETATM   14  C   UNL     1      26.072  49.013  39.035  1.00  0.00     0.082 C 
HETATM   15  C   UNL     1      26.938  49.559  37.902  1.00  0.00     0.048 C 
ENDBRANCH   3   6
ENDBRANCH   2   3
BRANCH   2  16
HETATM   16  C   UNL     1      29.211  53.470  39.898  1.00  0.00     0.135 C 
BRANCH  16  17
HETATM   17  C   UNL     1      30.585  53.453  40.532  1.00  0.00     0.224 C 
HETATM   18  N   UNL     1      31.015  52.186  40.853  1.00  0.00    -0.327 N 
HETATM   19  H   UNL     1      30.338  51.432  40.811  1.00  0.00     0.169 HD
HETATM   20  O   UNL     1      31.161  54.516  40.750  1.00  0.00    -0.273 OA
BRANCH  18  21
HETATM   21  C   UNL     1      32.275  51.827  41.381  1.00  0.00     0.037 A 
HETATM   22  C   UNL     1      33.391  51.533  40.592  1.00  0.00     0.066 A 
HETATM   23  C   UNL     1      34.594  51.147  41.193  1.00  0.00     0.070 A 
HETATM   24  C   UNL     1      34.697  51.106  42.583  1.00  0.00     0.037 A 
HETATM   25  C   UNL     1      33.589  51.393  43.376  1.00  0.00     0.005 A 
HETATM   26  C   UNL     1      32.377  51.737  42.775  1.00  0.00     0.029 A 
BRANCH  23  27
HETATM   27  O   UNL     1      35.737  50.817  40.515  1.00  0.00    -0.356 OA
HETATM   28  C   UNL     1      35.957  51.533  39.304  1.00  0.00     0.210 C 
ENDBRANCH  23  27
ENDBRANCH  18  21
ENDBRANCH  16  17
ENDBRANCH   2  16
TORSDOF 6
ENDMDL
MODEL 5
REMARK VINA RESULT:      -7.5      2.323      3.448
REMARK  6 active torsions:
REMARK  status: ('A' for Active; 'I' for Inactive)
REMARK    1  A    between atoms: C_2  and  N_3 
REMARK    2  A    between atoms: C_2  and  C_16 
REMARK    3  A    between atoms: N_3  and  C_6 
REMARK    4  A    between atoms: C_16  and  C_17 
REMARK       I    between atoms: C_17  and  N_18 
REMARK    5  A    between atoms: N_18  and  C_19 
REMARK    6  A    between atoms: C_21  and  O_22 
ROOT
HETATM    1  C   UNL     1      25.428  42.530  50.006  1.00  0.00     0.040 C 
HETATM    2  C   UNL     1      24.735  43.092  51.240  1.00  0.00     0.191 C 
ENDROOT
BRANCH   2   3
HETATM    3  N   UNL     1      25.754  43.473  52.290  1.00  0.00    -0.063 N 
HETATM    4  H   UNL     1      25.211  43.708  53.149  1.00  0.00     0.278 HD
HETATM    5  H   UNL     1      26.252  42.613  52.551  1.00  0.00     0.278 HD
BRANCH   3   6
HETATM    6  C   UNL     1      26.764  44.565  52.051  1.00  0.00     0.221 C 
HETATM    7  C   UNL     1      27.082  45.385  53.273  1.00  0.00    -0.011 A 
HETATM    8  C   UNL     1      27.841  44.828  54.312  1.00  0.00     0.009 A 
HETATM    9  C   UNL     1      26.636  46.714  53.384  1.00  0.00     0.011 A 
HETATM   10  C   UNL     1      28.091  45.572  55.468  1.00  0.00     0.019 A 
HETATM   11  S   UNL     1      28.456  43.160  54.220  1.00  0.00    -0.129 SA
HETATM   12  C   UNL     1      27.624  46.881  55.579  1.00  0.00     0.001 A 
HETATM   13  C   UNL     1      26.904  47.455  54.535  1.00  0.00     0.001 A 
HETATM   14  C   UNL     1      28.764  42.966  52.434  1.00  0.00     0.082 C 
HETATM   15  C   UNL     1      28.061  43.956  51.508  1.00  0.00     0.048 C 
ENDBRANCH   3   6
ENDBRANCH   2   3
BRANCH   2  16
HETATM   16  C   UNL     1      23.757  44.223  50.896  1.00  0.00     0.135 C 
BRANCH  16  17
HETATM   17  C   UNL     1      24.367  45.183  49.899  1.00  0.00     0.224 C 
HETATM   18  N   UNL     1      24.536  46.451  50.407  1.00  0.00    -0.327 N 
HETATM   19  H   UNL     1      24.092  46.670  51.292  1.00  0.00     0.169 HD
HETATM   20  O   UNL     1      24.606  44.797  48.758  1.00  0.00    -0.273 OA
BRANCH  18  21
HETATM   21  C   UNL     1      25.146  47.548  49.760  1.00  0.00     0.037 A 
HETATM   22  C   UNL     1      24.437  48.526  49.056  1.00  0.00     0.066 A 
HETATM   23  C   UNL     1      25.120  49.561  48.408  1.00  0.00     0.070 A 
HETATM   24  C   UNL     1      26.508  49.649  48.509  1.00  0.00     0.037 A 
HETATM   25  C   UNL     1      27.223  48.677  49.205  1.00  0.00     0.005 A 
HETATM   26  C   UNL     1      26.545  47.622  49.815  1.00  0.00     0.029 A 
BRANCH  23  27
HETATM   27  O   UNL     1      24.527  50.553  47.675  1.00  0.00    -0.356 OA
HETATM   28  C   UNL     1      23.103  50.572  47.715  1.00  0.00     0.210 C 
ENDBRANCH  23  27
ENDBRANCH  18  21
ENDBRANCH  16  17
ENDBRANCH   2  16
TORSDOF 6
ENDMDL
MODEL 6
REMARK VINA RESULT:      -7.4      3.263      9.673
REMARK  6 active torsions:
REMARK  status: ('A' for Active; 'I' for Inactive)
REMARK    1  A    between atoms: C_2  and  N_3 
REMARK    2  A    between atoms: C_2  and  C_16 
REMARK    3  A    between atoms: N_3  and  C_6 
REMARK    4  A    between atoms: C_16  and  C_17 
REMARK       I    between atoms: C_17  and  N_18 
REMARK    5  A    between atoms: N_18  and  C_19 
REMARK    6  A    between atoms: C_21  and  O_22 
ROOT
HETATM    1  C   UNL     1      22.669  49.936  48.312  1.00  0.00     0.040 C 
HETATM    2  C   UNL     1      22.421  48.775  49.266  1.00  0.00     0.191 C 
ENDROOT
BRANCH   2   3
HETATM    3  N   UNL     1      20.948  48.436  49.313  1.00  0.00    -0.063 N 
HETATM    4  H   UNL     1      20.656  48.279  48.324  1.00  0.00     0.278 HD
HETATM    5  H   UNL     1      20.868  47.504  49.737  1.00  0.00     0.278 HD
BRANCH   3   6
HETATM    6  C   UNL     1      19.947  49.354  49.965  1.00  0.00     0.221 C 
HETATM    7  C   UNL     1      19.331  50.357  49.027  1.00  0.00    -0.011 A 
HETATM    8  C   UNL     1      18.405  49.936  48.061  1.00  0.00     0.009 A 
HETATM    9  C   UNL     1      19.662  51.721  49.112  1.00  0.00     0.011 A 
HETATM   10  C   UNL     1      17.874  50.858  47.156  1.00  0.00     0.019 A 
HETATM   11  S   UNL     1      17.925  48.227  47.919  1.00  0.00    -0.129 SA
HETATM   12  C   UNL     1      18.227  52.205  47.233  1.00  0.00     0.001 A 
HETATM   13  C   UNL     1      19.114  52.638  48.216  1.00  0.00     0.001 A 
HETATM   14  C   UNL     1      18.010  47.663  49.650  1.00  0.00     0.082 C 
HETATM   15  C   UNL     1      18.832  48.522  50.609  1.00  0.00     0.048 C 
ENDBRANCH   3   6
ENDBRANCH   2   3
BRANCH   2  16
HETATM   16  C   UNL     1      23.317  47.568  48.961  1.00  0.00     0.135 C 
BRANCH  16  17
HETATM   17  C   UNL     1      24.465  47.483  49.942  1.00  0.00     0.224 C 
HETATM   18  N   UNL     1      24.362  46.412  50.802  1.00  0.00    -0.327 N 
HETATM   19  H   UNL     1      23.482  45.909  50.826  1.00  0.00     0.169 HD
HETATM   20  O   UNL     1      25.330  48.355  49.936  1.00  0.00    -0.273 OA
BRANCH  18  21
HETATM   21  C   UNL     1      25.304  46.013  51.775  1.00  0.00     0.037 A 
HETATM   22  C   UNL     1      25.488  46.675  52.993  1.00  0.00     0.066 A 
HETATM   23  C   UNL     1      26.472  46.240  53.888  1.00  0.00     0.070 A 
HETATM   24  C   UNL     1      27.235  45.112  53.589  1.00  0.00     0.037 A 
HETATM   25  C   UNL     1      27.061  44.449  52.377  1.00  0.00     0.005 A 
HETATM   26  C   UNL     1      26.108  44.908  51.466  1.00  0.00     0.029 A 
BRANCH  23  27
HETATM   27  O   UNL     1      26.749  46.828  55.093  1.00  0.00    -0.356 OA
HETATM   28  C   UNL     1      28.125  46.849  55.459  1.00  0.00     0.210 C 
ENDBRANCH  23  27
ENDBRANCH  18  21
ENDBRANCH  16  17
ENDBRANCH   2  16
TORSDOF 6
ENDMDL
MODEL 7
REMARK VINA RESULT:      -7.3      2.062      3.248
REMARK  6 active torsions:
REMARK  status: ('A' for Active; 'I' for Inactive)
REMARK    1  A    between atoms: C_2  and  N_3 
REMARK    2  A    between atoms: C_2  and  C_16 
REMARK    3  A    between atoms: N_3  and  C_6 
REMARK    4  A    between atoms: C_16  and  C_17 
REMARK       I    between atoms: C_17  and  N_18 
REMARK    5  A    between atoms: N_18  and  C_19 
REMARK    6  A    between atoms: C_21  and  O_22 
ROOT
HETATM    1  C   UNL     1      28.438  41.856  51.278  1.00  0.00     0.040 C 
HETATM    2  C   UNL     1      27.014  42.023  51.794  1.00  0.00     0.191 C 
ENDROOT
BRANCH   2   3
HETATM    3  N   UNL     1      26.908  43.260  52.657  1.00  0.00    -0.063 N 
HETATM    4  H   UNL     1      27.611  43.935  52.284  1.00  0.00     0.278 HD
HETATM    5  H   UNL     1      26.009  43.705  52.434  1.00  0.00     0.278 HD
BRANCH   3   6
HETATM    6  C   UNL     1      27.060  43.195  54.154  1.00  0.00     0.221 C 
HETATM    7  C   UNL     1      28.111  44.120  54.706  1.00  0.00    -0.011 A 
HETATM    8  C   UNL     1      27.884  45.504  54.730  1.00  0.00     0.009 A 
HETATM    9  C   UNL     1      29.322  43.613  55.212  1.00  0.00     0.011 A 
HETATM   10  C   UNL     1      28.881  46.365  55.193  1.00  0.00     0.019 A 
HETATM   11  S   UNL     1      26.362  46.204  54.127  1.00  0.00    -0.129 SA
HETATM   12  C   UNL     1      30.088  45.856  55.671  1.00  0.00     0.001 A 
HETATM   13  C   UNL     1      30.305  44.481  55.689  1.00  0.00     0.001 A 
HETATM   14  C   UNL     1      25.154  44.904  54.544  1.00  0.00     0.082 C 
HETATM   15  C   UNL     1      25.717  43.512  54.821  1.00  0.00     0.048 C 
ENDBRANCH   3   6
ENDBRANCH   2   3
BRANCH   2  16
HETATM   16  C   UNL     1      25.976  41.972  50.666  1.00  0.00     0.135 C 
BRANCH  16  17
HETATM   17  C   UNL     1      25.054  43.170  50.723  1.00  0.00     0.224 C 
HETATM   18  N   UNL     1      25.264  44.062  49.696  1.00  0.00    -0.327 N 
HETATM   19  H   UNL     1      26.096  43.941  49.128  1.00  0.00     0.169 HD
HETATM   20  O   UNL     1      24.264  43.280  51.657  1.00  0.00    -0.273 OA
BRANCH  18  21
HETATM   21  C   UNL     1      24.521  45.231  49.423  1.00  0.00     0.037 A 
HETATM   22  C   UNL     1      24.982  46.523  49.696  1.00  0.00     0.066 A 
HETATM   23  C   UNL     1      24.167  47.630  49.433  1.00  0.00     0.070 A 
HETATM   24  C   UNL     1      22.914  47.449  48.848  1.00  0.00     0.037 A 
HETATM   25  C   UNL     1      22.446  46.166  48.577  1.00  0.00     0.005 A 
HETATM   26  C   UNL     1      23.242  45.060  48.879  1.00  0.00     0.029 A 
BRANCH  23  27
HETATM   27  O   UNL     1      24.510  48.932  49.681  1.00  0.00    -0.356 OA
HETATM   28  C   UNL     1      25.283  49.563  48.665  1.00  0.00     0.210 C 
ENDBRANCH  23  27
ENDBRANCH  18  21
ENDBRANCH  16  17
ENDBRANCH   2  16
TORSDOF 6
ENDMDL
MODEL 8
REMARK VINA RESULT:      -7.3     17.876     20.061
REMARK  6 active torsions:
REMARK  status: ('A' for Active; 'I' for Inactive)
REMARK    1  A    between atoms: C_2  and  N_3 
REMARK    2  A    between atoms: C_2  and  C_16 
REMARK    3  A    between atoms: N_3  and  C_6 
REMARK    4  A    between atoms: C_16  and  C_17 
REMARK       I    between atoms: C_17  and  N_18 
REMARK    5  A    between atoms: N_18  and  C_19 
REMARK    6  A    between atoms: C_21  and  O_22 
ROOT
HETATM    1  C   UNL     1      41.313  48.479  67.682  1.00  0.00     0.040 C 
HETATM    2  C   UNL     1      40.229  48.466  66.612  1.00  0.00     0.191 C 
ENDROOT
BRANCH   2   3
HETATM    3  N   UNL     1      39.814  49.878  66.265  1.00  0.00    -0.063 N 
HETATM    4  H   UNL     1      39.904  50.431  67.145  1.00  0.00     0.278 HD
HETATM    5  H   UNL     1      40.550  50.267  65.662  1.00  0.00     0.278 HD
BRANCH   3   6
HETATM    6  C   UNL     1      38.473  50.179  65.648  1.00  0.00     0.221 C 
HETATM    7  C   UNL     1      37.466  49.070  65.796  1.00  0.00    -0.011 A 
HETATM    8  C   UNL     1      36.897  48.803  67.050  1.00  0.00     0.009 A 
HETATM    9  C   UNL     1      37.077  48.300  64.686  1.00  0.00     0.011 A 
HETATM   10  C   UNL     1      36.003  47.739  67.196  1.00  0.00     0.019 A 
HETATM   11  S   UNL     1      37.330  49.759  68.487  1.00  0.00    -0.129 SA
HETATM   12  C   UNL     1      35.640  46.966  66.094  1.00  0.00     0.001 A 
HETATM   13  C   UNL     1      36.170  47.250  64.838  1.00  0.00     0.001 A 
HETATM   14  C   UNL     1      37.637  51.406  67.770  1.00  0.00     0.082 C 
HETATM   15  C   UNL     1      37.899  51.459  66.267  1.00  0.00     0.048 C 
ENDBRANCH   3   6
ENDBRANCH   2   3
BRANCH   2  16
HETATM   16  C   UNL     1      40.625  47.626  65.391  1.00  0.00     0.135 C 
BRANCH  16  17
HETATM   17  C   UNL     1      39.864  46.319  65.362  1.00  0.00     0.224 C 
HETATM   18  N   UNL     1      39.930  45.684  64.142  1.00  0.00    -0.327 N 
HETATM   19  H   UNL     1      40.304  46.206  63.358  1.00  0.00     0.169 HD
HETATM   20  O   UNL     1      39.235  45.965  66.356  1.00  0.00    -0.273 OA
BRANCH  18  21
HETATM   21  C   UNL     1      39.396  44.418  63.816  1.00  0.00     0.037 A 
HETATM   22  C   UNL     1      40.133  43.231  63.861  1.00  0.00     0.066 A 
HETATM   23  C   UNL     1      39.540  42.021  63.484  1.00  0.00     0.070 A 
HETATM   24  C   UNL     1      38.196  41.990  63.113  1.00  0.00     0.037 A 
HETATM   25  C   UNL     1      37.456  43.168  63.063  1.00  0.00     0.005 A 
HETATM   26  C   UNL     1      38.059  44.380  63.398  1.00  0.00     0.029 A 
BRANCH  23  27
HETATM   27  O   UNL     1      40.176  40.808  63.469  1.00  0.00    -0.356 OA
HETATM   28  C   UNL     1      39.522  39.786  62.725  1.00  0.00     0.210 C 
ENDBRANCH  23  27
ENDBRANCH  18  21
ENDBRANCH  16  17
ENDBRANCH   2  16
TORSDOF 6
ENDMDL
MODEL 9
REMARK VINA RESULT:      -7.3      3.028      9.112
REMARK  6 active torsions:
REMARK  status: ('A' for Active; 'I' for Inactive)
REMARK    1  A    between atoms: C_2  and  N_3 
REMARK    2  A    between atoms: C_2  and  C_16 
REMARK    3  A    between atoms: N_3  and  C_6 
REMARK    4  A    between atoms: C_16  and  C_17 
REMARK       I    between atoms: C_17  and  N_18 
REMARK    5  A    between atoms: N_18  and  C_19 
REMARK    6  A    between atoms: C_21  and  O_22 
ROOT
HETATM    1  C   UNL     1      23.915  50.179  48.175  1.00  0.00     0.040 C 
HETATM    2  C   UNL     1      23.515  49.265  49.327  1.00  0.00     0.191 C 
ENDROOT
BRANCH   2   3
HETATM    3  N   UNL     1      22.015  49.276  49.513  1.00  0.00    -0.063 N 
HETATM    4  H   UNL     1      21.757  48.319  49.838  1.00  0.00     0.278 HD
HETATM    5  H   UNL     1      21.819  49.868  50.330  1.00  0.00     0.278 HD
BRANCH   3   6
HETATM    6  C   UNL     1      21.083  49.666  48.395  1.00  0.00     0.221 C 
HETATM    7  C   UNL     1      19.965  48.687  48.158  1.00  0.00    -0.011 A 
HETATM    8  C   UNL     1      18.913  48.587  49.081  1.00  0.00     0.009 A 
HETATM    9  C   UNL     1      19.953  47.873  47.011  1.00  0.00     0.011 A 
HETATM   10  C   UNL     1      17.904  47.641  48.887  1.00  0.00     0.019 A 
HETATM   11  S   UNL     1      18.859  49.608  50.538  1.00  0.00    -0.129 SA
HETATM   12  C   UNL     1      17.913  46.821  47.759  1.00  0.00     0.001 A 
HETATM   13  C   UNL     1      18.931  46.942  46.817  1.00  0.00     0.001 A 
HETATM   14  C   UNL     1      19.639  51.148  49.954  1.00  0.00     0.082 C 
HETATM   15  C   UNL     1      20.484  51.047  48.685  1.00  0.00     0.048 C 
ENDBRANCH   3   6
ENDBRANCH   2   3
BRANCH   2  16
HETATM   16  C   UNL     1      24.105  47.856  49.184  1.00  0.00     0.135 C 
BRANCH  16  17
HETATM   17  C   UNL     1      25.256  47.649  50.143  1.00  0.00     0.224 C 
HETATM   18  N   UNL     1      24.895  46.957  51.276  1.00  0.00    -0.327 N 
HETATM   19  H   UNL     1      23.907  46.815  51.449  1.00  0.00     0.169 HD
HETATM   20  O   UNL     1      26.354  48.132  49.880  1.00  0.00    -0.273 OA
BRANCH  18  21
HETATM   21  C   UNL     1      25.749  46.537  52.320  1.00  0.00     0.037 A 
HETATM   22  C   UNL     1      26.068  47.330  53.427  1.00  0.00     0.066 A 
HETATM   23  C   UNL     1      26.955  46.855  54.400  1.00  0.00     0.070 A 
HETATM   24  C   UNL     1      27.481  45.568  54.293  1.00  0.00     0.037 A 
HETATM   25  C   UNL     1      27.172  44.773  53.192  1.00  0.00     0.005 A 
HETATM   26  C   UNL     1      26.321  45.263  52.201  1.00  0.00     0.029 A 
BRANCH  23  27
HETATM   27  O   UNL     1      27.350  47.555  55.508  1.00  0.00    -0.356 OA
HETATM   28  C   UNL     1      26.426  48.533  55.973  1.00  0.00     0.210 C 
ENDBRANCH  23  27
ENDBRANCH  18  21
ENDBRANCH  16  17
ENDBRANCH   2  16
TORSDOF 6
ENDMDL
MODEL 10
REMARK VINA RESULT:      -7.1      2.835      4.376
REMARK  6 active torsions:
REMARK  status: ('A' for Active; 'I' for Inactive)
REMARK    1  A    between atoms: C_2  and  N_3 
REMARK    2  A    between atoms: C_2  and  C_16 
REMARK    3  A    between atoms: N_3  and  C_6 
REMARK    4  A    between atoms: C_16  and  C_17 
REMARK       I    between atoms: C_17  and  N_18 
REMARK    5  A    between atoms: N_18  and  C_19 
REMARK    6  A    between atoms: C_21  and  O_22 
ROOT
HETATM    1  C   UNL     1      24.196  48.261  49.605  1.00  0.00     0.040 C 
HETATM    2  C   UNL     1      23.794  46.926  48.991  1.00  0.00     0.191 C 
ENDROOT
BRANCH   2   3
HETATM    3  N   UNL     1      24.563  45.796  49.636  1.00  0.00    -0.063 N 
HETATM    4  H   UNL     1      23.920  45.372  50.340  1.00  0.00     0.278 HD
HETATM    5  H   UNL     1      24.663  45.058  48.928  1.00  0.00     0.278 HD
BRANCH   3   6
HETATM    6  C   UNL     1      25.901  46.024  50.292  1.00  0.00     0.221 C 
HETATM    7  C   UNL     1      25.888  45.862  51.788  1.00  0.00    -0.011 A 
HETATM    8  C   UNL     1      25.762  44.584  52.353  1.00  0.00     0.009 A 
HETATM    9  C   UNL     1      26.012  46.978  52.634  1.00  0.00     0.011 A 
HETATM   10  C   UNL     1      25.695  44.440  53.741  1.00  0.00     0.019 A 
HETATM   11  S   UNL     1      25.625  43.130  51.336  1.00  0.00    -0.129 SA
HETATM   12  C   UNL     1      25.796  45.556  54.571  1.00  0.00     0.001 A 
HETATM   13  C   UNL     1      25.962  46.823  54.019  1.00  0.00     0.001 A 
HETATM   14  C   UNL     1      26.648  43.576  49.895  1.00  0.00     0.082 C 
HETATM   15  C   UNL     1      26.936  45.063  49.695  1.00  0.00     0.048 C 
ENDBRANCH   3   6
ENDBRANCH   2   3
BRANCH   2  16
HETATM   16  C   UNL     1      22.275  46.715  48.997  1.00  0.00     0.135 C 
BRANCH  16  17
HETATM   17  C   UNL     1      21.553  47.951  48.509  1.00  0.00     0.224 C 
HETATM   18  N   UNL     1      20.826  48.576  49.497  1.00  0.00    -0.327 N 
HETATM   19  H   UNL     1      20.693  48.080  50.372  1.00  0.00     0.169 HD
HETATM   20  O   UNL     1      21.621  48.261  47.322  1.00  0.00    -0.273 OA
BRANCH  18  21
HETATM   21  C   UNL     1      20.109  49.787  49.384  1.00  0.00     0.037 A 
HETATM   22  C   UNL     1      18.850  49.999  49.953  1.00  0.00     0.066 A 
HETATM   23  C   UNL     1      18.187  51.217  49.761  1.00  0.00     0.070 A 
HETATM   24  C   UNL     1      18.806  52.241  49.045  1.00  0.00     0.037 A 
HETATM   25  C   UNL     1      20.058  52.037  48.471  1.00  0.00     0.005 A 
HETATM   26  C   UNL     1      20.701  50.808  48.627  1.00  0.00     0.029 A 
BRANCH  23  27
HETATM   27  O   UNL     1      16.947  51.519  50.254  1.00  0.00    -0.356 OA
HETATM   28  C   UNL     1      16.341  52.687  49.709  1.00  0.00     0.210 C 
ENDBRANCH  23  27
ENDBRANCH  18  21
ENDBRANCH  16  17
ENDBRANCH   2  16
TORSDOF 6
ENDMDL
