MODEL 1
REMARK VINA RESULT:      -9.1      0.000      0.000
REMARK  10 active torsions:
REMARK  status: ('A' for Active; 'I' for Inactive)
REMARK    1  A    between atoms: C_3  and  C_4 
REMARK    2  A    between atoms: C_8  and  N_9 
REMARK    3  A    between atoms: N_9  and  C_10 
REMARK    4  A    between atoms: C_10  and  N_11 
REMARK    5  A    between atoms: N_11  and  N_12 
REMARK       I    between atoms: N_12  and  C_13 
REMARK    6  A    between atoms: C_13  and  C_14 
REMARK    7  A    between atoms: C_14  and  C_15 
REMARK    8  A    between atoms: C_15  and  C_16 
REMARK    9  A    between atoms: C_18  and  O_19 
REMARK   10  A    between atoms: C_20  and  O_21 
ROOT
HETATM    1  N   UNL     1      24.450  45.255  51.676  1.00  0.00    -0.274 N 
HETATM    2  H   UNL     1      23.767  45.538  52.381  1.00  0.00     0.189 HD
ENDROOT
BRANCH   1   3
HETATM    3  C   UNL     1      24.297  45.695  50.388  1.00  0.00     0.191 C 
HETATM    4  S   UNL     1      24.233  44.690  49.047  1.00  0.00    -0.039 SA
BRANCH   3   5
HETATM    5  N   UNL     1      24.220  47.046  50.185  1.00  0.00    -0.331 N 
HETATM    6  H   UNL     1      23.379  47.447  50.601  1.00  0.00     0.168 HD
BRANCH   5   7
HETATM    7  C   UNL     1      25.141  47.959  49.616  1.00  0.00     0.049 A 
HETATM    8  C   UNL     1      24.669  49.005  48.797  1.00  0.00     0.074 A 
HETATM    9  C   UNL     1      25.589  49.925  48.250  1.00  0.00     0.018 A 
HETATM   10  C   UNL     1      26.949  49.835  48.532  1.00  0.00     0.001 A 
HETATM   11  C   UNL     1      27.409  48.828  49.368  1.00  0.00     0.002 A 
HETATM   12  C   UNL     1      26.512  47.903  49.912  1.00  0.00     0.030 A 
BRANCH   8  13
HETATM   13  C   UNL     1      23.217  49.146  48.416  1.00  0.00     0.419 C 
HETATM   14  F   UNL     1      22.410  49.452  49.471  1.00  0.00    -0.166 F 
HETATM   15  F   UNL     1      23.015  50.129  47.495  1.00  0.00    -0.166 F 
HETATM   16  F   UNL     1      22.688  48.012  47.870  1.00  0.00    -0.166 F 
ENDBRANCH   8  13
ENDBRANCH   5   7
ENDBRANCH   3   5
ENDBRANCH   1   3
BRANCH   1  17
HETATM   17  N   UNL     1      25.706  44.914  52.189  1.00  0.00    -0.268 N 
HETATM   18  C   UNL     1      25.766  44.332  53.439  1.00  0.00     0.236 C 
HETATM   19  O   UNL     1      24.782  44.212  54.164  1.00  0.00    -0.272 OA
HETATM   20  H   UNL     1      26.505  44.996  51.565  1.00  0.00     0.190 HD
BRANCH  18  21
HETATM   21  C   UNL     1      27.151  43.830  53.788  1.00  0.00     0.109 C 
BRANCH  21  22
HETATM   22  C   UNL     1      28.095  44.980  54.136  1.00  0.00     0.048 C 
BRANCH  22  23
HETATM   23  C   UNL     1      29.197  44.679  55.132  1.00  0.00    -0.055 A 
HETATM   24  C   UNL     1      29.408  45.600  56.176  1.00  0.00     0.046 A 
HETATM   25  C   UNL     1      30.389  45.360  57.133  1.00  0.00     0.099 A 
HETATM   26  C   UNL     1      31.168  44.210  57.066  1.00  0.00     0.098 A 
HETATM   27  C   UNL     1      30.987  43.294  56.044  1.00  0.00     0.040 A 
HETATM   28  C   UNL     1      30.005  43.529  55.076  1.00  0.00     0.010 A 
BRANCH  25  29
HETATM   29  O   UNL     1      30.620  46.226  58.165  1.00  0.00    -0.358 OA
HETATM   30  H   UNL     1      29.775  46.383  58.621  1.00  0.00     0.218 HD
ENDBRANCH  25  29
BRANCH  26  31
HETATM   31  O   UNL     1      32.121  43.975  58.015  1.00  0.00    -0.358 OA
HETATM   32  H   UNL     1      32.605  44.821  58.087  1.00  0.00     0.218 HD
ENDBRANCH  26  31
ENDBRANCH  22  23
ENDBRANCH  21  22
ENDBRANCH  18  21
ENDBRANCH   1  17
TORSDOF 10
ENDMDL
MODEL 2
REMARK VINA RESULT:      -8.9      2.692      3.873
REMARK  10 active torsions:
REMARK  status: ('A' for Active; 'I' for Inactive)
REMARK    1  A    between atoms: C_3  and  C_4 
REMARK    2  A    between atoms: C_8  and  N_9 
REMARK    3  A    between atoms: N_9  and  C_10 
REMARK    4  A    between atoms: C_10  and  N_11 
REMARK    5  A    between atoms: N_11  and  N_12 
REMARK       I    between atoms: N_12  and  C_13 
REMARK    6  A    between atoms: C_13  and  C_14 
REMARK    7  A    between atoms: C_14  and  C_15 
REMARK    8  A    between atoms: C_15  and  C_16 
REMARK    9  A    between atoms: C_18  and  O_19 
REMARK   10  A    between atoms: C_20  and  O_21 
ROOT
HETATM    1  N   UNL     1      25.964  41.819  51.584  1.00  0.00    -0.274 N 
HETATM    2  H   UNL     1      25.227  41.139  51.776  1.00  0.00     0.189 HD
ENDROOT
BRANCH   1   3
HETATM    3  C   UNL     1      25.726  42.823  50.683  1.00  0.00     0.191 C 
HETATM    4  S   UNL     1      26.192  42.777  49.073  1.00  0.00    -0.039 SA
BRANCH   3   5
HETATM    5  N   UNL     1      25.091  43.946  51.139  1.00  0.00    -0.331 N 
HETATM    6  H   UNL     1      24.136  44.014  50.787  1.00  0.00     0.168 HD
BRANCH   5   7
HETATM    7  C   UNL     1      25.490  44.929  52.077  1.00  0.00     0.049 A 
HETATM    8  C   UNL     1      25.949  46.181  51.621  1.00  0.00     0.074 A 
HETATM    9  C   UNL     1      26.324  47.165  52.561  1.00  0.00     0.018 A 
HETATM   10  C   UNL     1      26.220  46.930  53.928  1.00  0.00     0.001 A 
HETATM   11  C   UNL     1      25.733  45.710  54.377  1.00  0.00     0.002 A 
HETATM   12  C   UNL     1      25.364  44.721  53.459  1.00  0.00     0.030 A 
BRANCH   8  13
HETATM   13  C   UNL     1      26.125  46.499  50.158  1.00  0.00     0.419 C 
HETATM   14  F   UNL     1      27.158  45.821  49.579  1.00  0.00    -0.166 F 
HETATM   15  F   UNL     1      25.021  46.192  49.422  1.00  0.00    -0.166 F 
HETATM   16  F   UNL     1      26.377  47.819  49.917  1.00  0.00    -0.166 F 
ENDBRANCH   8  13
ENDBRANCH   5   7
ENDBRANCH   3   5
ENDBRANCH   1   3
BRANCH   1  17
HETATM   17  N   UNL     1      26.898  41.967  52.616  1.00  0.00    -0.268 N 
HETATM   18  C   UNL     1      28.214  41.641  52.359  1.00  0.00     0.236 C 
HETATM   19  O   UNL     1      28.576  41.118  51.308  1.00  0.00    -0.272 OA
HETATM   20  H   UNL     1      26.585  42.426  53.468  1.00  0.00     0.190 HD
BRANCH  18  21
HETATM   21  C   UNL     1      29.148  42.034  53.483  1.00  0.00     0.109 C 
BRANCH  21  22
HETATM   22  C   UNL     1      29.214  43.551  53.655  1.00  0.00     0.048 C 
BRANCH  22  23
HETATM   23  C   UNL     1      29.709  44.064  54.993  1.00  0.00    -0.055 A 
HETATM   24  C   UNL     1      30.717  43.329  55.646  1.00  0.00     0.046 A 
HETATM   25  C   UNL     1      31.227  43.770  56.863  1.00  0.00     0.099 A 
HETATM   26  C   UNL     1      30.744  44.937  57.444  1.00  0.00     0.098 A 
HETATM   27  C   UNL     1      29.747  45.672  56.827  1.00  0.00     0.040 A 
HETATM   28  C   UNL     1      29.227  45.235  55.604  1.00  0.00     0.010 A 
BRANCH  25  29
HETATM   29  O   UNL     1      32.210  43.088  57.525  1.00  0.00    -0.358 OA
HETATM   30  H   UNL     1      32.118  43.276  58.475  1.00  0.00     0.218 HD
ENDBRANCH  25  29
BRANCH  26  31
HETATM   31  O   UNL     1      31.256  45.370  58.633  1.00  0.00    -0.358 OA
HETATM   32  H   UNL     1      32.224  45.273  58.531  1.00  0.00     0.218 HD
ENDBRANCH  26  31
ENDBRANCH  22  23
ENDBRANCH  21  22
ENDBRANCH  18  21
ENDBRANCH   1  17
TORSDOF 10
ENDMDL
MODEL 3
REMARK VINA RESULT:      -8.7      1.853      2.391
REMARK  10 active torsions:
REMARK  status: ('A' for Active; 'I' for Inactive)
REMARK    1  A    between atoms: C_3  and  C_4 
REMARK    2  A    between atoms: C_8  and  N_9 
REMARK    3  A    between atoms: N_9  and  C_10 
REMARK    4  A    between atoms: C_10  and  N_11 
REMARK    5  A    between atoms: N_11  and  N_12 
REMARK       I    between atoms: N_12  and  C_13 
REMARK    6  A    between atoms: C_13  and  C_14 
REMARK    7  A    between atoms: C_14  and  C_15 
REMARK    8  A    between atoms: C_15  and  C_16 
REMARK    9  A    between atoms: C_18  and  O_19 
REMARK   10  A    between atoms: C_20  and  O_21 
ROOT
HETATM    1  N   UNL     1      24.965  46.124  52.061  1.00  0.00    -0.274 N 
HETATM    2  H   UNL     1      24.645  47.016  52.442  1.00  0.00     0.189 HD
ENDROOT
BRANCH   1   3
HETATM    3  C   UNL     1      24.720  45.835  50.746  1.00  0.00     0.191 C 
HETATM    4  S   UNL     1      23.806  44.531  50.218  1.00  0.00    -0.039 SA
BRANCH   3   5
HETATM    5  N   UNL     1      25.283  46.651  49.802  1.00  0.00    -0.331 N 
HETATM    6  H   UNL     1      26.128  46.244  49.402  1.00  0.00     0.168 HD
BRANCH   5   7
HETATM    7  C   UNL     1      24.835  47.866  49.230  1.00  0.00     0.049 A 
HETATM    8  C   UNL     1      25.766  48.885  48.941  1.00  0.00     0.074 A 
HETATM    9  C   UNL     1      25.317  50.085  48.350  1.00  0.00     0.018 A 
HETATM   10  C   UNL     1      23.977  50.267  48.020  1.00  0.00     0.001 A 
HETATM   11  C   UNL     1      23.067  49.249  48.271  1.00  0.00     0.002 A 
HETATM   12  C   UNL     1      23.494  48.057  48.863  1.00  0.00     0.030 A 
BRANCH   8  13
HETATM   13  C   UNL     1      27.225  48.778  49.302  1.00  0.00     0.419 C 
HETATM   14  F   UNL     1      27.912  49.942  49.123  1.00  0.00    -0.166 F 
HETATM   15  F   UNL     1      27.415  48.430  50.604  1.00  0.00    -0.166 F 
HETATM   16  F   UNL     1      27.897  47.843  48.567  1.00  0.00    -0.166 F 
ENDBRANCH   8  13
ENDBRANCH   5   7
ENDBRANCH   3   5
ENDBRANCH   1   3
BRANCH   1  17
HETATM   17  N   UNL     1      26.044  45.556  52.748  1.00  0.00    -0.268 N 
HETATM   18  C   UNL     1      25.790  44.517  53.621  1.00  0.00     0.236 C 
HETATM   19  O   UNL     1      24.653  44.152  53.907  1.00  0.00    -0.272 OA
HETATM   20  H   UNL     1      26.979  45.852  52.478  1.00  0.00     0.190 HD
BRANCH  18  21
HETATM   21  C   UNL     1      27.053  43.863  54.140  1.00  0.00     0.109 C 
BRANCH  21  22
HETATM   22  C   UNL     1      28.229  44.839  54.148  1.00  0.00     0.048 C 
BRANCH  22  23
HETATM   23  C   UNL     1      29.309  44.596  55.184  1.00  0.00    -0.055 A 
HETATM   24  C   UNL     1      29.463  45.550  56.208  1.00  0.00     0.046 A 
HETATM   25  C   UNL     1      30.420  45.363  57.200  1.00  0.00     0.099 A 
HETATM   26  C   UNL     1      31.232  44.235  57.187  1.00  0.00     0.098 A 
HETATM   27  C   UNL     1      31.108  43.288  56.185  1.00  0.00     0.040 A 
HETATM   28  C   UNL     1      30.149  43.468  55.182  1.00  0.00     0.010 A 
BRANCH  25  29
HETATM   29  O   UNL     1      30.595  46.262  58.215  1.00  0.00    -0.358 OA
HETATM   30  H   UNL     1      31.091  45.820  58.926  1.00  0.00     0.218 HD
ENDBRANCH  25  29
BRANCH  26  31
HETATM   31  O   UNL     1      32.163  44.052  58.169  1.00  0.00    -0.358 OA
HETATM   32  H   UNL     1      32.256  44.933  58.582  1.00  0.00     0.218 HD
ENDBRANCH  26  31
ENDBRANCH  22  23
ENDBRANCH  21  22
ENDBRANCH  18  21
ENDBRANCH   1  17
TORSDOF 10
ENDMDL
MODEL 4
REMARK VINA RESULT:      -8.6      5.500      8.076
REMARK  10 active torsions:
REMARK  status: ('A' for Active; 'I' for Inactive)
REMARK    1  A    between atoms: C_3  and  C_4 
REMARK    2  A    between atoms: C_8  and  N_9 
REMARK    3  A    between atoms: N_9  and  C_10 
REMARK    4  A    between atoms: C_10  and  N_11 
REMARK    5  A    between atoms: N_11  and  N_12 
REMARK       I    between atoms: N_12  and  C_13 
REMARK    6  A    between atoms: C_13  and  C_14 
REMARK    7  A    between atoms: C_14  and  C_15 
REMARK    8  A    between atoms: C_15  and  C_16 
REMARK    9  A    between atoms: C_18  and  O_19 
REMARK   10  A    between atoms: C_20  and  O_21 
ROOT
HETATM    1  N   UNL     1      25.827  43.796  53.495  1.00  0.00    -0.274 N 
HETATM    2  H   UNL     1      25.589  43.268  54.336  1.00  0.00     0.189 HD
ENDROOT
BRANCH   1   3
HETATM    3  C   UNL     1      26.501  44.981  53.621  1.00  0.00     0.191 C 
HETATM    4  S   UNL     1      25.761  46.474  53.810  1.00  0.00    -0.039 SA
BRANCH   3   5
HETATM    5  N   UNL     1      27.867  44.942  53.560  1.00  0.00    -0.331 N 
HETATM    6  H   UNL     1      28.215  45.182  52.631  1.00  0.00     0.168 HD
BRANCH   5   7
HETATM    7  C   UNL     1      28.843  44.748  54.568  1.00  0.00     0.049 A 
HETATM    8  C   UNL     1      29.760  43.683  54.454  1.00  0.00     0.074 A 
HETATM    9  C   UNL     1      30.744  43.507  55.450  1.00  0.00     0.018 A 
HETATM   10  C   UNL     1      30.842  44.384  56.525  1.00  0.00     0.001 A 
HETATM   11  C   UNL     1      29.963  45.454  56.618  1.00  0.00     0.002 A 
HETATM   12  C   UNL     1      28.977  45.638  55.644  1.00  0.00     0.030 A 
BRANCH   8  13
HETATM   13  C   UNL     1      29.694  42.670  53.339  1.00  0.00     0.419 C 
HETATM   14  F   UNL     1      29.351  43.213  52.136  1.00  0.00    -0.166 F 
HETATM   15  F   UNL     1      30.884  42.041  53.137  1.00  0.00    -0.166 F 
HETATM   16  F   UNL     1      28.783  41.678  53.563  1.00  0.00    -0.166 F 
ENDBRANCH   8  13
ENDBRANCH   5   7
ENDBRANCH   3   5
ENDBRANCH   1   3
BRANCH   1  17
HETATM   17  N   UNL     1      25.915  43.023  52.331  1.00  0.00    -0.268 N 
HETATM   18  C   UNL     1      24.989  43.238  51.331  1.00  0.00     0.236 C 
HETATM   19  O   UNL     1      24.027  43.990  51.466  1.00  0.00    -0.272 OA
HETATM   20  H   UNL     1      26.732  42.426  52.227  1.00  0.00     0.190 HD
BRANCH  18  21
HETATM   21  C   UNL     1      25.314  42.488  50.057  1.00  0.00     0.109 C 
BRANCH  21  22
HETATM   22  C   UNL     1      26.793  42.611  49.693  1.00  0.00     0.048 C 
BRANCH  22  23
HETATM   23  C   UNL     1      27.537  41.320  49.416  1.00  0.00    -0.055 A 
HETATM   24  C   UNL     1      28.139  40.662  50.506  1.00  0.00     0.046 A 
HETATM   25  C   UNL     1      28.811  39.459  50.312  1.00  0.00     0.099 A 
HETATM   26  C   UNL     1      28.894  38.899  49.042  1.00  0.00     0.098 A 
HETATM   27  C   UNL     1      28.319  39.531  47.953  1.00  0.00     0.040 A 
HETATM   28  C   UNL     1      27.643  40.742  48.138  1.00  0.00     0.010 A 
BRANCH  25  29
HETATM   29  O   UNL     1      29.403  38.786  51.344  1.00  0.00    -0.358 OA
HETATM   30  H   UNL     1      29.158  37.847  51.271  1.00  0.00     0.218 HD
ENDBRANCH  25  29
BRANCH  26  31
HETATM   31  O   UNL     1      29.545  37.713  48.860  1.00  0.00    -0.358 OA
HETATM   32  H   UNL     1      29.938  37.515  49.733  1.00  0.00     0.218 HD
ENDBRANCH  26  31
ENDBRANCH  22  23
ENDBRANCH  21  22
ENDBRANCH  18  21
ENDBRANCH   1  17
TORSDOF 10
ENDMDL
MODEL 5
REMARK VINA RESULT:      -8.5      2.918      3.853
REMARK  10 active torsions:
REMARK  status: ('A' for Active; 'I' for Inactive)
REMARK    1  A    between atoms: C_3  and  C_4 
REMARK    2  A    between atoms: C_8  and  N_9 
REMARK    3  A    between atoms: N_9  and  C_10 
REMARK    4  A    between atoms: C_10  and  N_11 
REMARK    5  A    between atoms: N_11  and  N_12 
REMARK       I    between atoms: N_12  and  C_13 
REMARK    6  A    between atoms: C_13  and  C_14 
REMARK    7  A    between atoms: C_14  and  C_15 
REMARK    8  A    between atoms: C_15  and  C_16 
REMARK    9  A    between atoms: C_18  and  O_19 
REMARK   10  A    between atoms: C_20  and  O_21 
ROOT
HETATM    1  N   UNL     1      26.145  42.030  51.834  1.00  0.00    -0.274 N 
HETATM    2  H   UNL     1      25.479  41.358  52.219  1.00  0.00     0.189 HD
ENDROOT
BRANCH   1   3
HETATM    3  C   UNL     1      25.724  42.903  50.867  1.00  0.00     0.191 C 
HETATM    4  S   UNL     1      26.306  42.924  49.294  1.00  0.00    -0.039 SA
BRANCH   3   5
HETATM    5  N   UNL     1      24.788  43.837  51.220  1.00  0.00    -0.331 N 
HETATM    6  H   UNL     1      24.390  43.649  52.140  1.00  0.00     0.168 HD
BRANCH   5   7
HETATM    7  C   UNL     1      24.384  45.039  50.590  1.00  0.00     0.049 A 
HETATM    8  C   UNL     1      24.943  46.265  51.007  1.00  0.00     0.074 A 
HETATM    9  C   UNL     1      24.554  47.458  50.362  1.00  0.00     0.018 A 
HETATM   10  C   UNL     1      23.652  47.441  49.302  1.00  0.00     0.001 A 
HETATM   11  C   UNL     1      23.130  46.231  48.868  1.00  0.00     0.002 A 
HETATM   12  C   UNL     1      23.499  45.040  49.501  1.00  0.00     0.030 A 
BRANCH   8  13
HETATM   13  C   UNL     1      25.897  46.369  52.170  1.00  0.00     0.419 C 
HETATM   14  F   UNL     1      25.302  46.152  53.377  1.00  0.00    -0.166 F 
HETATM   15  F   UNL     1      26.915  45.469  52.090  1.00  0.00    -0.166 F 
HETATM   16  F   UNL     1      26.491  47.594  52.274  1.00  0.00    -0.166 F 
ENDBRANCH   8  13
ENDBRANCH   5   7
ENDBRANCH   3   5
ENDBRANCH   1   3
BRANCH   1  17
HETATM   17  N   UNL     1      27.216  42.335  52.682  1.00  0.00    -0.268 N 
HETATM   18  C   UNL     1      28.465  41.843  52.361  1.00  0.00     0.236 C 
HETATM   19  O   UNL     1      28.652  41.057  51.436  1.00  0.00    -0.272 OA
HETATM   20  H   UNL     1      27.047  43.008  53.426  1.00  0.00     0.190 HD
BRANCH  18  21
HETATM   21  C   UNL     1      29.562  42.408  53.237  1.00  0.00     0.109 C 
BRANCH  21  22
HETATM   22  C   UNL     1      29.170  43.762  53.827  1.00  0.00     0.048 C 
BRANCH  22  23
HETATM   23  C   UNL     1      29.773  44.120  55.171  1.00  0.00    -0.055 A 
HETATM   24  C   UNL     1      30.762  43.265  55.695  1.00  0.00     0.046 A 
HETATM   25  C   UNL     1      31.368  43.560  56.912  1.00  0.00     0.099 A 
HETATM   26  C   UNL     1      31.001  44.700  57.620  1.00  0.00     0.098 A 
HETATM   27  C   UNL     1      30.025  45.550  57.131  1.00  0.00     0.040 A 
HETATM   28  C   UNL     1      29.408  45.260  55.909  1.00  0.00     0.010 A 
BRANCH  25  29
HETATM   29  O   UNL     1      32.337  42.760  57.451  1.00  0.00    -0.358 OA
HETATM   30  H   UNL     1      33.187  43.229  57.382  1.00  0.00     0.218 HD
ENDBRANCH  25  29
BRANCH  26  31
HETATM   31  O   UNL     1      31.608  44.990  58.809  1.00  0.00    -0.358 OA
HETATM   32  H   UNL     1      32.390  44.405  58.831  1.00  0.00     0.218 HD
ENDBRANCH  26  31
ENDBRANCH  22  23
ENDBRANCH  21  22
ENDBRANCH  18  21
ENDBRANCH   1  17
TORSDOF 10
ENDMDL
MODEL 6
REMARK VINA RESULT:      -8.5      4.263      8.048
REMARK  10 active torsions:
REMARK  status: ('A' for Active; 'I' for Inactive)
REMARK    1  A    between atoms: C_3  and  C_4 
REMARK    2  A    between atoms: C_8  and  N_9 
REMARK    3  A    between atoms: N_9  and  C_10 
REMARK    4  A    between atoms: C_10  and  N_11 
REMARK    5  A    between atoms: N_11  and  N_12 
REMARK       I    between atoms: N_12  and  C_13 
REMARK    6  A    between atoms: C_13  and  C_14 
REMARK    7  A    between atoms: C_14  and  C_15 
REMARK    8  A    between atoms: C_15  and  C_16 
REMARK    9  A    between atoms: C_18  and  O_19 
REMARK   10  A    between atoms: C_20  and  O_21 
ROOT
HETATM    1  N   UNL     1      27.798  43.704  51.241  1.00  0.00    -0.274 N 
HETATM    2  H   UNL     1      28.616  44.004  50.709  1.00  0.00     0.189 HD
ENDROOT
BRANCH   1   3
HETATM    3  C   UNL     1      27.973  42.897  52.333  1.00  0.00     0.191 C 
HETATM    4  S   UNL     1      28.377  41.271  52.252  1.00  0.00    -0.039 SA
BRANCH   3   5
HETATM    5  N   UNL     1      27.778  43.451  53.568  1.00  0.00    -0.331 N 
HETATM    6  H   UNL     1      26.838  43.273  53.922  1.00  0.00     0.168 HD
BRANCH   5   7
HETATM    7  C   UNL     1      28.672  44.104  54.452  1.00  0.00     0.049 A 
HETATM    8  C   UNL     1      28.321  45.355  54.999  1.00  0.00     0.074 A 
HETATM    9  C   UNL     1      29.206  45.991  55.896  1.00  0.00     0.018 A 
HETATM   10  C   UNL     1      30.403  45.390  56.272  1.00  0.00     0.001 A 
HETATM   11  C   UNL     1      30.731  44.141  55.762  1.00  0.00     0.002 A 
HETATM   12  C   UNL     1      29.870  43.501  54.866  1.00  0.00     0.030 A 
BRANCH   8  13
HETATM   13  C   UNL     1      27.061  46.086  54.612  1.00  0.00     0.419 C 
HETATM   14  F   UNL     1      26.812  47.180  55.388  1.00  0.00    -0.166 F 
HETATM   15  F   UNL     1      27.096  46.540  53.329  1.00  0.00    -0.166 F 
HETATM   16  F   UNL     1      25.938  45.314  54.703  1.00  0.00    -0.166 F 
ENDBRANCH   8  13
ENDBRANCH   5   7
ENDBRANCH   3   5
ENDBRANCH   1   3
BRANCH   1  17
HETATM   17  N   UNL     1      26.690  44.551  51.126  1.00  0.00    -0.268 N 
HETATM   18  C   UNL     1      25.776  44.301  50.123  1.00  0.00     0.236 C 
HETATM   19  O   UNL     1      25.953  43.444  49.260  1.00  0.00    -0.272 OA
HETATM   20  H   UNL     1      26.546  45.236  51.864  1.00  0.00     0.190 HD
BRANCH  18  21
HETATM   21  C   UNL     1      24.532  45.157  50.233  1.00  0.00     0.109 C 
BRANCH  21  22
HETATM   22  C   UNL     1      24.824  46.487  50.927  1.00  0.00     0.048 C 
BRANCH  22  23
HETATM   23  C   UNL     1      25.387  47.597  50.062  1.00  0.00    -0.055 A 
HETATM   24  C   UNL     1      24.492  48.299  49.231  1.00  0.00     0.046 A 
HETATM   25  C   UNL     1      24.950  49.346  48.437  1.00  0.00     0.099 A 
HETATM   26  C   UNL     1      26.293  49.705  48.457  1.00  0.00     0.098 A 
HETATM   27  C   UNL     1      27.194  49.024  49.257  1.00  0.00     0.040 A 
HETATM   28  C   UNL     1      26.743  47.969  50.057  1.00  0.00     0.010 A 
BRANCH  25  29
HETATM   29  O   UNL     1      24.113  50.056  47.623  1.00  0.00    -0.358 OA
HETATM   30  H   UNL     1      23.825  50.850  48.107  1.00  0.00     0.218 HD
ENDBRANCH  25  29
BRANCH  26  31
HETATM   31  O   UNL     1      26.734  50.740  47.683  1.00  0.00    -0.358 OA
HETATM   32  H   UNL     1      27.576  50.418  47.304  1.00  0.00     0.218 HD
ENDBRANCH  26  31
ENDBRANCH  22  23
ENDBRANCH  21  22
ENDBRANCH  18  21
ENDBRANCH   1  17
TORSDOF 10
ENDMDL
MODEL 7
REMARK VINA RESULT:      -8.5     11.992     13.383
REMARK  10 active torsions:
REMARK  status: ('A' for Active; 'I' for Inactive)
REMARK    1  A    between atoms: C_3  and  C_4 
REMARK    2  A    between atoms: C_8  and  N_9 
REMARK    3  A    between atoms: N_9  and  C_10 
REMARK    4  A    between atoms: C_10  and  N_11 
REMARK    5  A    between atoms: N_11  and  N_12 
REMARK       I    between atoms: N_12  and  C_13 
REMARK    6  A    between atoms: C_13  and  C_14 
REMARK    7  A    between atoms: C_14  and  C_15 
REMARK    8  A    between atoms: C_15  and  C_16 
REMARK    9  A    between atoms: C_18  and  O_19 
REMARK   10  A    between atoms: C_20  and  O_21 
ROOT
HETATM    1  N   UNL     1      27.168  50.300  40.843  1.00  0.00    -0.274 N 
HETATM    2  H   UNL     1      26.302  50.582  41.304  1.00  0.00     0.189 HD
ENDROOT
BRANCH   1   3
HETATM    3  C   UNL     1      27.409  50.723  39.564  1.00  0.00     0.191 C 
HETATM    4  S   UNL     1      26.631  50.119  38.206  1.00  0.00    -0.039 SA
BRANCH   3   5
HETATM    5  N   UNL     1      28.367  51.683  39.384  1.00  0.00    -0.331 N 
HETATM    6  H   UNL     1      27.993  52.624  39.506  1.00  0.00     0.168 HD
BRANCH   5   7
HETATM    7  C   UNL     1      29.765  51.580  39.181  1.00  0.00     0.049 A 
HETATM    8  C   UNL     1      30.629  52.498  39.813  1.00  0.00     0.074 A 
HETATM    9  C   UNL     1      32.023  52.378  39.625  1.00  0.00     0.018 A 
HETATM   10  C   UNL     1      32.559  51.352  38.852  1.00  0.00     0.001 A 
HETATM   11  C   UNL     1      31.710  50.427  38.261  1.00  0.00     0.002 A 
HETATM   12  C   UNL     1      30.326  50.536  38.430  1.00  0.00     0.030 A 
BRANCH   8  13
HETATM   13  C   UNL     1      30.124  53.657  40.633  1.00  0.00     0.419 C 
HETATM   14  F   UNL     1      29.260  54.464  39.954  1.00  0.00    -0.166 F 
HETATM   15  F   UNL     1      29.456  53.253  41.749  1.00  0.00    -0.166 F 
HETATM   16  F   UNL     1      31.119  54.481  41.075  1.00  0.00    -0.166 F 
ENDBRANCH   8  13
ENDBRANCH   5   7
ENDBRANCH   3   5
ENDBRANCH   1   3
BRANCH   1  17
HETATM   17  N   UNL     1      28.212  49.979  41.718  1.00  0.00    -0.268 N 
HETATM   18  C   UNL     1      28.838  48.758  41.571  1.00  0.00     0.236 C 
HETATM   19  O   UNL     1      28.442  47.898  40.787  1.00  0.00    -0.272 OA
HETATM   20  H   UNL     1      28.543  50.712  42.341  1.00  0.00     0.190 HD
BRANCH  18  21
HETATM   21  C   UNL     1      30.071  48.620  42.438  1.00  0.00     0.109 C 
BRANCH  21  22
HETATM   22  C   UNL     1      31.353  48.808  41.628  1.00  0.00     0.048 C 
BRANCH  22  23
HETATM   23  C   UNL     1      32.376  49.777  42.186  1.00  0.00    -0.055 A 
HETATM   24  C   UNL     1      33.700  49.677  41.715  1.00  0.00     0.046 A 
HETATM   25  C   UNL     1      34.673  50.559  42.173  1.00  0.00     0.099 A 
HETATM   26  C   UNL     1      34.347  51.543  43.099  1.00  0.00     0.098 A 
HETATM   27  C   UNL     1      33.056  51.656  43.585  1.00  0.00     0.040 A 
HETATM   28  C   UNL     1      32.071  50.772  43.131  1.00  0.00     0.010 A 
BRANCH  25  29
HETATM   29  O   UNL     1      35.967  50.500  41.736  1.00  0.00    -0.358 OA
HETATM   30  H   UNL     1      35.954  50.468  40.763  1.00  0.00     0.218 HD
ENDBRANCH  25  29
BRANCH  26  31
HETATM   31  O   UNL     1      35.305  52.413  43.537  1.00  0.00    -0.358 OA
HETATM   32  H   UNL     1      34.883  52.884  44.282  1.00  0.00     0.218 HD
ENDBRANCH  26  31
ENDBRANCH  22  23
ENDBRANCH  21  22
ENDBRANCH  18  21
ENDBRANCH   1  17
TORSDOF 10
ENDMDL
MODEL 8
REMARK VINA RESULT:      -8.5      5.129      8.390
REMARK  10 active torsions:
REMARK  status: ('A' for Active; 'I' for Inactive)
REMARK    1  A    between atoms: C_3  and  C_4 
REMARK    2  A    between atoms: C_8  and  N_9 
REMARK    3  A    between atoms: N_9  and  C_10 
REMARK    4  A    between atoms: C_10  and  N_11 
REMARK    5  A    between atoms: N_11  and  N_12 
REMARK       I    between atoms: N_12  and  C_13 
REMARK    6  A    between atoms: C_13  and  C_14 
REMARK    7  A    between atoms: C_14  and  C_15 
REMARK    8  A    between atoms: C_15  and  C_16 
REMARK    9  A    between atoms: C_18  and  O_19 
REMARK   10  A    between atoms: C_20  and  O_21 
ROOT
HETATM    1  N   UNL     1      25.870  42.792  52.018  1.00  0.00    -0.274 N 
HETATM    2  H   UNL     1      25.280  41.961  51.960  1.00  0.00     0.189 HD
ENDROOT
BRANCH   1   3
HETATM    3  C   UNL     1      27.231  42.644  51.995  1.00  0.00     0.191 C 
HETATM    4  S   UNL     1      28.020  41.202  51.662  1.00  0.00    -0.039 SA
BRANCH   3   5
HETATM    5  N   UNL     1      27.993  43.741  52.292  1.00  0.00    -0.331 N 
HETATM    6  H   UNL     1      28.525  44.066  51.485  1.00  0.00     0.168 HD
BRANCH   5   7
HETATM    7  C   UNL     1      28.067  44.538  53.460  1.00  0.00     0.049 A 
HETATM    8  C   UNL     1      29.067  44.276  54.420  1.00  0.00     0.074 A 
HETATM    9  C   UNL     1      29.150  45.087  55.572  1.00  0.00     0.018 A 
HETATM   10  C   UNL     1      28.283  46.158  55.761  1.00  0.00     0.001 A 
HETATM   11  C   UNL     1      27.323  46.439  54.798  1.00  0.00     0.002 A 
HETATM   12  C   UNL     1      27.221  45.640  53.655  1.00  0.00     0.030 A 
BRANCH   8  13
HETATM   13  C   UNL     1      30.018  43.112  54.305  1.00  0.00     0.419 C 
HETATM   14  F   UNL     1      31.025  43.146  55.223  1.00  0.00    -0.166 F 
HETATM   15  F   UNL     1      29.397  41.913  54.477  1.00  0.00    -0.166 F 
HETATM   16  F   UNL     1      30.638  43.038  53.090  1.00  0.00    -0.166 F 
ENDBRANCH   8  13
ENDBRANCH   5   7
ENDBRANCH   3   5
ENDBRANCH   1   3
BRANCH   1  17
HETATM   17  N   UNL     1      25.253  43.971  51.585  1.00  0.00    -0.268 N 
HETATM   18  C   UNL     1      24.999  44.121  50.237  1.00  0.00     0.236 C 
HETATM   19  O   UNL     1      25.396  43.321  49.393  1.00  0.00    -0.272 OA
HETATM   20  H   UNL     1      24.909  44.608  52.300  1.00  0.00     0.190 HD
BRANCH  18  21
HETATM   21  C   UNL     1      24.154  45.339  49.929  1.00  0.00     0.109 C 
BRANCH  21  22
HETATM   22  C   UNL     1      24.606  46.556  50.735  1.00  0.00     0.048 C 
BRANCH  22  23
HETATM   23  C   UNL     1      25.319  47.653  49.971  1.00  0.00    -0.055 A 
HETATM   24  C   UNL     1      24.540  48.502  49.161  1.00  0.00     0.046 A 
HETATM   25  C   UNL     1      25.140  49.542  48.459  1.00  0.00     0.099 A 
HETATM   26  C   UNL     1      26.512  49.750  48.550  1.00  0.00     0.098 A 
HETATM   27  C   UNL     1      27.301  48.923  49.331  1.00  0.00     0.040 A 
HETATM   28  C   UNL     1      26.706  47.873  50.039  1.00  0.00     0.010 A 
BRANCH  25  29
HETATM   29  O   UNL     1      24.418  50.392  47.668  1.00  0.00    -0.358 OA
HETATM   30  H   UNL     1      24.527  50.108  46.744  1.00  0.00     0.218 HD
ENDBRANCH  25  29
BRANCH  26  31
HETATM   31  O   UNL     1      27.093  50.780  47.866  1.00  0.00    -0.358 OA
HETATM   32  H   UNL     1      27.889  50.383  47.461  1.00  0.00     0.218 HD
ENDBRANCH  26  31
ENDBRANCH  22  23
ENDBRANCH  21  22
ENDBRANCH  18  21
ENDBRANCH   1  17
TORSDOF 10
ENDMDL
MODEL 9
REMARK VINA RESULT:      -8.4     12.318     14.548
REMARK  10 active torsions:
REMARK  status: ('A' for Active; 'I' for Inactive)
REMARK    1  A    between atoms: C_3  and  C_4 
REMARK    2  A    between atoms: C_8  and  N_9 
REMARK    3  A    between atoms: N_9  and  C_10 
REMARK    4  A    between atoms: C_10  and  N_11 
REMARK    5  A    between atoms: N_11  and  N_12 
REMARK       I    between atoms: N_12  and  C_13 
REMARK    6  A    between atoms: C_13  and  C_14 
REMARK    7  A    between atoms: C_14  and  C_15 
REMARK    8  A    between atoms: C_15  and  C_16 
REMARK    9  A    between atoms: C_18  and  O_19 
REMARK   10  A    between atoms: C_20  and  O_21 
ROOT
HETATM    1  N   UNL     1      34.292  50.747  42.337  1.00  0.00    -0.274 N 
HETATM    2  H   UNL     1      34.981  50.590  43.074  1.00  0.00     0.189 HD
ENDROOT
BRANCH   1   3
HETATM    3  C   UNL     1      34.508  51.747  41.427  1.00  0.00     0.191 C 
HETATM    4  S   UNL     1      36.024  52.240  40.905  1.00  0.00    -0.039 SA
BRANCH   3   5
HETATM    5  N   UNL     1      33.413  52.405  40.937  1.00  0.00    -0.331 N 
HETATM    6  H   UNL     1      33.298  53.325  41.363  1.00  0.00     0.168 HD
BRANCH   5   7
HETATM    7  C   UNL     1      32.518  52.077  39.890  1.00  0.00     0.049 A 
HETATM    8  C   UNL     1      31.208  52.598  39.905  1.00  0.00     0.074 A 
HETATM    9  C   UNL     1      30.326  52.286  38.848  1.00  0.00     0.018 A 
HETATM   10  C   UNL     1      30.739  51.500  37.777  1.00  0.00     0.001 A 
HETATM   11  C   UNL     1      32.040  51.018  37.743  1.00  0.00     0.002 A 
HETATM   12  C   UNL     1      32.924  51.311  38.786  1.00  0.00     0.030 A 
BRANCH   8  13
HETATM   13  C   UNL     1      30.675  53.425  41.048  1.00  0.00     0.419 C 
HETATM   14  F   UNL     1      31.199  54.683  41.093  1.00  0.00    -0.166 F 
HETATM   15  F   UNL     1      29.325  53.586  40.988  1.00  0.00    -0.166 F 
HETATM   16  F   UNL     1      30.931  52.881  42.274  1.00  0.00    -0.166 F 
ENDBRANCH   8  13
ENDBRANCH   5   7
ENDBRANCH   3   5
ENDBRANCH   1   3
BRANCH   1  17
HETATM   17  N   UNL     1      33.514  49.627  42.024  1.00  0.00    -0.268 N 
HETATM   18  C   UNL     1      32.272  49.507  42.612  1.00  0.00     0.236 C 
HETATM   19  O   UNL     1      31.873  50.276  43.484  1.00  0.00    -0.272 OA
HETATM   20  H   UNL     1      33.849  49.017  41.281  1.00  0.00     0.190 HD
BRANCH  18  21
HETATM   21  C   UNL     1      31.456  48.368  42.039  1.00  0.00     0.109 C 
BRANCH  21  22
HETATM   22  C   UNL     1      29.973  48.510  42.379  1.00  0.00     0.048 C 
BRANCH  22  23
HETATM   23  C   UNL     1      29.084  49.111  41.309  1.00  0.00    -0.055 A 
HETATM   24  C   UNL     1      28.281  50.212  41.665  1.00  0.00     0.046 A 
HETATM   25  C   UNL     1      27.466  50.819  40.715  1.00  0.00     0.099 A 
HETATM   26  C   UNL     1      27.436  50.343  39.409  1.00  0.00     0.098 A 
HETATM   27  C   UNL     1      28.208  49.256  39.037  1.00  0.00     0.040 A 
HETATM   28  C   UNL     1      29.029  48.637  39.986  1.00  0.00     0.010 A 
BRANCH  25  29
HETATM   29  O   UNL     1      26.678  51.894  41.019  1.00  0.00    -0.358 OA
HETATM   30  H   UNL     1      26.259  51.726  41.881  1.00  0.00     0.218 HD
ENDBRANCH  25  29
BRANCH  26  31
HETATM   31  O   UNL     1      26.642  50.949  38.479  1.00  0.00    -0.358 OA
HETATM   32  H   UNL     1      27.164  51.720  38.179  1.00  0.00     0.218 HD
ENDBRANCH  26  31
ENDBRANCH  22  23
ENDBRANCH  21  22
ENDBRANCH  18  21
ENDBRANCH   1  17
TORSDOF 10
ENDMDL
MODEL 10
REMARK VINA RESULT:      -8.2      3.339      4.374
REMARK  10 active torsions:
REMARK  status: ('A' for Active; 'I' for Inactive)
REMARK    1  A    between atoms: C_3  and  C_4 
REMARK    2  A    between atoms: C_8  and  N_9 
REMARK    3  A    between atoms: N_9  and  C_10 
REMARK    4  A    between atoms: C_10  and  N_11 
REMARK    5  A    between atoms: N_11  and  N_12 
REMARK       I    between atoms: N_12  and  C_13 
REMARK    6  A    between atoms: C_13  and  C_14 
REMARK    7  A    between atoms: C_14  and  C_15 
REMARK    8  A    between atoms: C_15  and  C_16 
REMARK    9  A    between atoms: C_18  and  O_19 
REMARK   10  A    between atoms: C_20  and  O_21 
ROOT
HETATM    1  N   UNL     1      26.524  40.552  51.817  1.00  0.00    -0.274 N 
HETATM    2  H   UNL     1      25.955  40.104  52.536  1.00  0.00     0.189 HD
ENDROOT
BRANCH   1   3
HETATM    3  C   UNL     1      25.904  41.286  50.841  1.00  0.00     0.191 C 
HETATM    4  S   UNL     1      25.945  40.911  49.206  1.00  0.00    -0.039 SA
BRANCH   3   5
HETATM    5  N   UNL     1      25.231  42.413  51.226  1.00  0.00    -0.331 N 
HETATM    6  H   UNL     1      25.393  42.637  52.208  1.00  0.00     0.168 HD
BRANCH   5   7
HETATM    7  C   UNL     1      24.473  43.349  50.482  1.00  0.00     0.049 A 
HETATM    8  C   UNL     1      25.089  44.524  50.005  1.00  0.00     0.074 A 
HETATM    9  C   UNL     1      24.334  45.443  49.245  1.00  0.00     0.018 A 
HETATM   10  C   UNL     1      23.002  45.193  48.933  1.00  0.00     0.001 A 
HETATM   11  C   UNL     1      22.405  44.019  49.371  1.00  0.00     0.002 A 
HETATM   12  C   UNL     1      23.136  43.102  50.131  1.00  0.00     0.030 A 
BRANCH   8  13
HETATM   13  C   UNL     1      26.517  44.882  50.333  1.00  0.00     0.419 C 
HETATM   14  F   UNL     1      26.914  46.068  49.788  1.00  0.00    -0.166 F 
HETATM   15  F   UNL     1      26.729  44.999  51.673  1.00  0.00    -0.166 F 
HETATM   16  F   UNL     1      27.421  43.959  49.892  1.00  0.00    -0.166 F 
ENDBRANCH   8  13
ENDBRANCH   5   7
ENDBRANCH   3   5
ENDBRANCH   1   3
BRANCH   1  17
HETATM   17  N   UNL     1      27.845  40.809  52.199  1.00  0.00    -0.268 N 
HETATM   18  C   UNL     1      28.075  41.780  53.151  1.00  0.00     0.236 C 
HETATM   19  O   UNL     1      27.185  42.506  53.588  1.00  0.00    -0.272 OA
HETATM   20  H   UNL     1      28.564  40.180  51.847  1.00  0.00     0.190 HD
BRANCH  18  21
HETATM   21  C   UNL     1      29.514  41.817  53.619  1.00  0.00     0.109 C 
BRANCH  21  22
HETATM   22  C   UNL     1      30.042  43.248  53.705  1.00  0.00     0.048 C 
BRANCH  22  23
HETATM   23  C   UNL     1      30.332  43.785  55.092  1.00  0.00    -0.055 A 
HETATM   24  C   UNL     1      29.562  44.872  55.550  1.00  0.00     0.046 A 
HETATM   25  C   UNL     1      29.768  45.387  56.826  1.00  0.00     0.099 A 
HETATM   26  C   UNL     1      30.736  44.834  57.657  1.00  0.00     0.098 A 
HETATM   27  C   UNL     1      31.514  43.773  57.226  1.00  0.00     0.040 A 
HETATM   28  C   UNL     1      31.315  43.250  55.944  1.00  0.00     0.010 A 
BRANCH  25  29
HETATM   29  O   UNL     1      29.037  46.435  57.310  1.00  0.00    -0.358 OA
HETATM   30  H   UNL     1      29.493  46.782  58.096  1.00  0.00     0.218 HD
ENDBRANCH  25  29
BRANCH  26  31
HETATM   31  O   UNL     1      30.927  45.337  58.912  1.00  0.00    -0.358 OA
HETATM   32  H   UNL     1      30.527  46.228  58.879  1.00  0.00     0.218 HD
ENDBRANCH  26  31
ENDBRANCH  22  23
ENDBRANCH  21  22
ENDBRANCH  18  21
ENDBRANCH   1  17
TORSDOF 10
ENDMDL
