MODEL 1
REMARK VINA RESULT:     -10.5      0.000      0.000
REMARK  5 active torsions:
REMARK  status: ('A' for Active; 'I' for Inactive)
REMARK    1  A    between atoms: C_3  and  O_4 
REMARK    2  A    between atoms: C_6  and  N_7 
REMARK       I    between atoms: N_7  and  C_8 
REMARK    3  A    between atoms: C_8  and  C_9 
REMARK    4  A    between atoms: C_12  and  C_13 
REMARK    5  A    between atoms: C_18  and  C_19 
ROOT
HETATM    1  C   UNL     1      26.154  43.357  51.196  1.00  0.00     0.096 A 
HETATM    2  C   UNL     1      26.622  44.036  52.305  1.00  0.00     0.138 A 
HETATM    3  N   UNL     1      25.578  44.827  52.723  1.00  0.00    -0.240 N 
HETATM    4  C   UNL     1      25.630  45.737  53.852  1.00  0.00     0.221 C 
HETATM    5  C   UNL     1      26.787  45.340  54.783  1.00  0.00     0.066 C 
HETATM    6  C   UNL     1      28.072  45.072  53.980  1.00  0.00     0.118 C 
HETATM    7  N   UNL     1      27.817  44.042  52.963  1.00  0.00    -0.365 N 
HETATM    8  N   UNL     1      24.465  44.699  51.988  1.00  0.00    -0.181 NA
HETATM    9  C   UNL     1      24.830  43.838  51.034  1.00  0.00     0.160 A 
HETATM   10  H   UNL     1      28.661  43.825  52.426  1.00  0.00     0.161 HD
ENDROOT
BRANCH   1  11
HETATM   11  C   UNL     1      26.814  42.370  50.357  1.00  0.00     0.261 C 
HETATM   12  N   UNL     1      26.909  41.125  50.950  1.00  0.00    -0.323 N 
HETATM   13  H   UNL     1      26.412  41.025  51.828  1.00  0.00     0.169 HD
HETATM   14  O   UNL     1      27.180  42.663  49.226  1.00  0.00    -0.267 OA
BRANCH  12  15
HETATM   15  C   UNL     1      27.510  39.964  50.423  1.00  0.00     0.037 A 
HETATM   16  C   UNL     1      28.844  39.612  50.634  1.00  0.00     0.066 A 
HETATM   17  C   UNL     1      29.352  38.439  50.078  1.00  0.00     0.067 A 
HETATM   18  C   UNL     1      28.552  37.604  49.305  1.00  0.00     0.036 A 
HETATM   19  C   UNL     1      27.219  37.947  49.094  1.00  0.00     0.005 A 
HETATM   20  C   UNL     1      26.699  39.117  49.655  1.00  0.00     0.029 A 
BRANCH  17  21
HETATM   21  O   UNL     1      30.660  38.136  50.321  1.00  0.00    -0.361 OA
HETATM   22  H   UNL     1      30.720  37.215  50.624  1.00  0.00     0.217 HD
ENDBRANCH  17  21
ENDBRANCH  12  15
ENDBRANCH   1  11
BRANCH   4  23
HETATM   23  C   UNL     1      25.755  47.165  53.361  1.00  0.00     0.409 C 
HETATM   24  F   UNL     1      27.008  47.476  52.965  1.00  0.00    -0.169 F 
HETATM   25  F   UNL     1      24.915  47.455  52.347  1.00  0.00    -0.169 F 
HETATM   26  F   UNL     1      25.448  48.023  54.371  1.00  0.00    -0.169 F 
ENDBRANCH   4  23
BRANCH   6  27
HETATM   27  C   UNL     1      29.202  44.629  54.893  1.00  0.00    -0.035 A 
HETATM   28  C   UNL     1      29.863  43.402  54.704  1.00  0.00     0.012 A 
HETATM   29  C   UNL     1      30.877  43.001  55.576  1.00  0.00     0.043 A 
HETATM   30  C   UNL     1      31.230  43.821  56.641  1.00  0.00     0.116 A 
HETATM   31  F   UNL     1      32.199  43.432  57.479  1.00  0.00    -0.206 F 
HETATM   32  C   UNL     1      30.591  45.035  56.850  1.00  0.00     0.043 A 
HETATM   33  C   UNL     1      29.578  45.440  55.979  1.00  0.00     0.012 A 
ENDBRANCH   6  27
TORSDOF 5
ENDMDL
MODEL 2
REMARK VINA RESULT:     -10.4      4.202      7.068
REMARK  5 active torsions:
REMARK  status: ('A' for Active; 'I' for Inactive)
REMARK    1  A    between atoms: C_3  and  O_4 
REMARK    2  A    between atoms: C_6  and  N_7 
REMARK       I    between atoms: N_7  and  C_8 
REMARK    3  A    between atoms: C_8  and  C_9 
REMARK    4  A    between atoms: C_12  and  C_13 
REMARK    5  A    between atoms: C_18  and  C_19 
ROOT
HETATM    1  C   UNL     1      26.144  45.551  50.523  1.00  0.00     0.096 A 
HETATM    2  C   UNL     1      26.919  44.880  51.451  1.00  0.00     0.138 A 
HETATM    3  N   UNL     1      27.374  43.754  50.807  1.00  0.00    -0.240 N 
HETATM    4  C   UNL     1      28.211  42.736  51.413  1.00  0.00     0.221 C 
HETATM    5  C   UNL     1      28.908  43.313  52.657  1.00  0.00     0.066 C 
HETATM    6  C   UNL     1      27.909  44.082  53.539  1.00  0.00     0.118 C 
HETATM    7  N   UNL     1      27.253  45.132  52.749  1.00  0.00    -0.365 N 
HETATM    8  N   UNL     1      26.976  43.653  49.531  1.00  0.00    -0.181 NA
HETATM    9  C   UNL     1      26.193  44.724  49.373  1.00  0.00     0.160 A 
HETATM   10  H   UNL     1      26.598  45.678  53.315  1.00  0.00     0.161 HD
ENDROOT
BRANCH   1  11
HETATM   11  C   UNL     1      25.429  46.811  50.640  1.00  0.00     0.261 C 
HETATM   12  N   UNL     1      24.839  47.218  49.458  1.00  0.00    -0.323 N 
HETATM   13  H   UNL     1      24.876  46.542  48.703  1.00  0.00     0.169 HD
HETATM   14  O   UNL     1      25.351  47.382  51.721  1.00  0.00    -0.267 OA
BRANCH  12  15
HETATM   15  C   UNL     1      24.102  48.395  49.224  1.00  0.00     0.037 A 
HETATM   16  C   UNL     1      22.773  48.574  49.612  1.00  0.00     0.066 A 
HETATM   17  C   UNL     1      22.124  49.779  49.343  1.00  0.00     0.067 A 
HETATM   18  C   UNL     1      22.776  50.816  48.685  1.00  0.00     0.036 A 
HETATM   19  C   UNL     1      24.103  50.646  48.299  1.00  0.00     0.005 A 
HETATM   20  C   UNL     1      24.764  49.445  48.572  1.00  0.00     0.029 A 
BRANCH  17  21
HETATM   21  O   UNL     1      20.828  49.905  49.749  1.00  0.00    -0.361 OA
HETATM   22  H   UNL     1      20.761  50.659  50.358  1.00  0.00     0.217 HD
ENDBRANCH  17  21
ENDBRANCH  12  15
ENDBRANCH   1  11
BRANCH   4  23
HETATM   23  C   UNL     1      27.384  41.510  51.738  1.00  0.00     0.409 C 
HETATM   24  F   UNL     1      27.695  40.968  52.936  1.00  0.00    -0.169 F 
HETATM   25  F   UNL     1      26.056  41.744  51.721  1.00  0.00    -0.169 F 
HETATM   26  F   UNL     1      27.614  40.544  50.809  1.00  0.00    -0.169 F 
ENDBRANCH   4  23
BRANCH   6  27
HETATM   27  C   UNL     1      28.604  44.695  54.741  1.00  0.00    -0.035 A 
HETATM   28  C   UNL     1      29.850  44.223  55.192  1.00  0.00     0.012 A 
HETATM   29  C   UNL     1      30.455  44.781  56.320  1.00  0.00     0.043 A 
HETATM   30  C   UNL     1      29.817  45.808  57.003  1.00  0.00     0.116 A 
HETATM   31  F   UNL     1      30.395  46.338  58.088  1.00  0.00    -0.206 F 
HETATM   32  C   UNL     1      28.585  46.290  56.580  1.00  0.00     0.043 A 
HETATM   33  C   UNL     1      27.978  45.735  55.452  1.00  0.00     0.012 A 
ENDBRANCH   6  27
TORSDOF 5
ENDMDL
MODEL 3
REMARK VINA RESULT:     -10.3      1.435      1.854
REMARK  5 active torsions:
REMARK  status: ('A' for Active; 'I' for Inactive)
REMARK    1  A    between atoms: C_3  and  O_4 
REMARK    2  A    between atoms: C_6  and  N_7 
REMARK       I    between atoms: N_7  and  C_8 
REMARK    3  A    between atoms: C_8  and  C_9 
REMARK    4  A    between atoms: C_12  and  C_13 
REMARK    5  A    between atoms: C_18  and  C_19 
ROOT
HETATM    1  C   UNL     1      26.396  42.362  51.331  1.00  0.00     0.096 A 
HETATM    2  C   UNL     1      26.773  43.305  52.269  1.00  0.00     0.138 A 
HETATM    3  N   UNL     1      25.709  44.168  52.374  1.00  0.00    -0.240 N 
HETATM    4  C   UNL     1      25.672  45.337  53.233  1.00  0.00     0.221 C 
HETATM    5  C   UNL     1      26.733  45.199  54.338  1.00  0.00     0.066 C 
HETATM    6  C   UNL     1      28.081  44.744  53.751  1.00  0.00     0.118 C 
HETATM    7  N   UNL     1      27.903  43.488  53.011  1.00  0.00    -0.365 N 
HETATM    8  N   UNL     1      24.665  43.849  51.596  1.00  0.00    -0.181 NA
HETATM    9  C   UNL     1      25.100  42.775  50.930  1.00  0.00     0.160 A 
HETATM   10  H   UNL     1      28.788  43.146  52.627  1.00  0.00     0.161 HD
ENDROOT
BRANCH   1  11
HETATM   11  C   UNL     1      27.114  41.198  50.836  1.00  0.00     0.261 C 
HETATM   12  N   UNL     1      26.619  40.719  49.638  1.00  0.00    -0.323 N 
HETATM   13  H   UNL     1      25.910  41.298  49.202  1.00  0.00     0.169 HD
HETATM   14  O   UNL     1      28.086  40.765  51.443  1.00  0.00    -0.267 OA
BRANCH  12  15
HETATM   15  C   UNL     1      27.065  39.600  48.908  1.00  0.00     0.037 A 
HETATM   16  C   UNL     1      26.918  38.280  49.336  1.00  0.00     0.066 A 
HETATM   17  C   UNL     1      27.386  37.233  48.542  1.00  0.00     0.067 A 
HETATM   18  C   UNL     1      28.007  37.477  47.322  1.00  0.00     0.036 A 
HETATM   19  C   UNL     1      28.154  38.792  46.887  1.00  0.00     0.005 A 
HETATM   20  C   UNL     1      27.680  39.847  47.672  1.00  0.00     0.029 A 
BRANCH  17  21
HETATM   21  O   UNL     1      27.210  35.961  49.002  1.00  0.00    -0.361 OA
HETATM   22  H   UNL     1      27.552  35.904  49.910  1.00  0.00     0.217 HD
ENDBRANCH  17  21
ENDBRANCH  12  15
ENDBRANCH   1  11
BRANCH   4  23
HETATM   23  C   UNL     1      25.865  46.592  52.409  1.00  0.00     0.409 C 
HETATM   24  F   UNL     1      26.618  46.387  51.307  1.00  0.00    -0.169 F 
HETATM   25  F   UNL     1      24.704  47.157  52.020  1.00  0.00    -0.169 F 
HETATM   26  F   UNL     1      26.517  47.529  53.149  1.00  0.00    -0.169 F 
ENDBRANCH   4  23
BRANCH   6  27
HETATM   27  C   UNL     1      29.116  44.558  54.846  1.00  0.00    -0.035 A 
HETATM   28  C   UNL     1      29.326  45.536  55.835  1.00  0.00     0.012 A 
HETATM   29  C   UNL     1      30.307  45.358  56.813  1.00  0.00     0.043 A 
HETATM   30  C   UNL     1      31.083  44.206  56.804  1.00  0.00     0.116 A 
HETATM   31  F   UNL     1      32.027  44.039  57.739  1.00  0.00    -0.206 F 
HETATM   32  C   UNL     1      30.897  43.227  55.837  1.00  0.00     0.043 A 
HETATM   33  C   UNL     1      29.916  43.401  54.859  1.00  0.00     0.012 A 
ENDBRANCH   6  27
TORSDOF 5
ENDMDL
MODEL 4
REMARK VINA RESULT:      -9.9      3.472      6.943
REMARK  5 active torsions:
REMARK  status: ('A' for Active; 'I' for Inactive)
REMARK    1  A    between atoms: C_3  and  O_4 
REMARK    2  A    between atoms: C_6  and  N_7 
REMARK       I    between atoms: N_7  and  C_8 
REMARK    3  A    between atoms: C_8  and  C_9 
REMARK    4  A    between atoms: C_12  and  C_13 
REMARK    5  A    between atoms: C_18  and  C_19 
ROOT
HETATM    1  C   UNL     1      26.805  45.293  53.267  1.00  0.00     0.096 A 
HETATM    2  C   UNL     1      26.610  44.633  52.067  1.00  0.00     0.138 A 
HETATM    3  N   UNL     1      25.991  45.542  51.242  1.00  0.00    -0.240 N 
HETATM    4  C   UNL     1      25.572  45.271  49.880  1.00  0.00     0.221 C 
HETATM    5  C   UNL     1      26.335  44.051  49.337  1.00  0.00     0.066 C 
HETATM    6  C   UNL     1      26.335  42.903  50.362  1.00  0.00     0.118 C 
HETATM    7  N   UNL     1      26.898  43.372  51.635  1.00  0.00    -0.365 N 
HETATM    8  N   UNL     1      25.790  46.743  51.802  1.00  0.00    -0.181 NA
HETATM    9  C   UNL     1      26.246  46.577  53.047  1.00  0.00     0.160 A 
HETATM   10  H   UNL     1      26.933  42.623  52.331  1.00  0.00     0.161 HD
ENDROOT
BRANCH   1  11
HETATM   11  C   UNL     1      27.433  44.832  54.494  1.00  0.00     0.261 C 
HETATM   12  N   UNL     1      28.777  45.143  54.571  1.00  0.00    -0.323 N 
HETATM   13  H   UNL     1      29.124  45.745  53.833  1.00  0.00     0.169 HD
HETATM   14  O   UNL     1      26.768  44.274  55.359  1.00  0.00    -0.267 OA
BRANCH  12  15
HETATM   15  C   UNL     1      29.678  44.821  55.606  1.00  0.00     0.037 A 
HETATM   16  C   UNL     1      29.890  45.618  56.732  1.00  0.00     0.066 A 
HETATM   17  C   UNL     1      30.799  45.216  57.710  1.00  0.00     0.067 A 
HETATM   18  C   UNL     1      31.510  44.027  57.587  1.00  0.00     0.036 A 
HETATM   19  C   UNL     1      31.299  43.224  56.467  1.00  0.00     0.005 A 
HETATM   20  C   UNL     1      30.384  43.616  55.486  1.00  0.00     0.029 A 
BRANCH  17  21
HETATM   21  O   UNL     1      30.964  46.027  58.795  1.00  0.00    -0.361 OA
HETATM   22  H   UNL     1      30.967  45.482  59.599  1.00  0.00     0.217 HD
ENDBRANCH  17  21
ENDBRANCH  12  15
ENDBRANCH   1  11
BRANCH   4  23
HETATM   23  C   UNL     1      24.071  45.076  49.829  1.00  0.00     0.409 C 
HETATM   24  F   UNL     1      23.680  44.269  48.819  1.00  0.00    -0.169 F 
HETATM   25  F   UNL     1      23.558  44.585  50.975  1.00  0.00    -0.169 F 
HETATM   26  F   UNL     1      23.462  46.274  49.619  1.00  0.00    -0.169 F 
ENDBRANCH   4  23
BRANCH   6  27
HETATM   27  C   UNL     1      27.131  41.716  49.849  1.00  0.00    -0.035 A 
HETATM   28  C   UNL     1      27.693  40.772  50.728  1.00  0.00     0.012 A 
HETATM   29  C   UNL     1      28.450  39.707  50.235  1.00  0.00     0.043 A 
HETATM   30  C   UNL     1      28.651  39.584  48.866  1.00  0.00     0.116 A 
HETATM   31  F   UNL     1      29.382  38.565  48.396  1.00  0.00    -0.206 F 
HETATM   32  C   UNL     1      28.110  40.504  47.979  1.00  0.00     0.043 A 
HETATM   33  C   UNL     1      27.351  41.570  48.468  1.00  0.00     0.012 A 
ENDBRANCH   6  27
TORSDOF 5
ENDMDL
MODEL 5
REMARK VINA RESULT:      -9.6      3.641      7.116
REMARK  5 active torsions:
REMARK  status: ('A' for Active; 'I' for Inactive)
REMARK    1  A    between atoms: C_3  and  O_4 
REMARK    2  A    between atoms: C_6  and  N_7 
REMARK       I    between atoms: N_7  and  C_8 
REMARK    3  A    between atoms: C_8  and  C_9 
REMARK    4  A    between atoms: C_12  and  C_13 
REMARK    5  A    between atoms: C_18  and  C_19 
ROOT
HETATM    1  C   UNL     1      25.870  44.231  52.737  1.00  0.00     0.096 A 
HETATM    2  C   UNL     1      25.755  43.417  51.625  1.00  0.00     0.138 A 
HETATM    3  N   UNL     1      24.901  44.074  50.772  1.00  0.00    -0.240 N 
HETATM    4  C   UNL     1      24.472  43.570  49.481  1.00  0.00     0.221 C 
HETATM    5  C   UNL     1      25.454  42.490  48.995  1.00  0.00     0.066 C 
HETATM    6  C   UNL     1      25.770  41.490  50.120  1.00  0.00     0.118 C 
HETATM    7  N   UNL     1      26.290  42.207  51.293  1.00  0.00    -0.365 N 
HETATM    8  N   UNL     1      24.472  45.258  51.230  1.00  0.00    -0.181 NA
HETATM    9  C   UNL     1      25.027  45.333  52.443  1.00  0.00     0.160 A 
HETATM   10  H   UNL     1      26.532  41.565  52.052  1.00  0.00     0.161 HD
ENDROOT
BRANCH   1  11
HETATM   11  C   UNL     1      26.656  44.055  53.946  1.00  0.00     0.261 C 
HETATM   12  N   UNL     1      27.963  44.486  53.817  1.00  0.00    -0.323 N 
HETATM   13  H   UNL     1      28.174  44.971  52.952  1.00  0.00     0.169 HD
HETATM   14  O   UNL     1      26.139  43.610  54.963  1.00  0.00    -0.267 OA
BRANCH  12  15
HETATM   15  C   UNL     1      28.987  44.433  54.783  1.00  0.00     0.037 A 
HETATM   16  C   UNL     1      29.182  45.404  55.767  1.00  0.00     0.066 A 
HETATM   17  C   UNL     1      30.221  45.265  56.688  1.00  0.00     0.067 A 
HETATM   18  C   UNL     1      31.079  44.172  56.645  1.00  0.00     0.036 A 
HETATM   19  C   UNL     1      30.888  43.197  55.668  1.00  0.00     0.005 A 
HETATM   20  C   UNL     1      29.844  43.324  54.746  1.00  0.00     0.029 A 
BRANCH  17  21
HETATM   21  O   UNL     1      30.364  46.237  57.634  1.00  0.00    -0.361 OA
HETATM   22  H   UNL     1      30.715  47.039  57.212  1.00  0.00     0.217 HD
ENDBRANCH  17  21
ENDBRANCH  12  15
ENDBRANCH   1  11
BRANCH   4  23
HETATM   23  C   UNL     1      23.052  43.053  49.573  1.00  0.00     0.409 C 
HETATM   24  F   UNL     1      22.760  42.530  50.783  1.00  0.00    -0.169 F 
HETATM   25  F   UNL     1      22.125  43.990  49.290  1.00  0.00    -0.169 F 
HETATM   26  F   UNL     1      22.872  42.051  48.670  1.00  0.00    -0.169 F 
ENDBRANCH   4  23
BRANCH   6  27
HETATM   27  C   UNL     1      26.778  40.453  49.659  1.00  0.00    -0.035 A 
HETATM   28  C   UNL     1      27.974  40.823  49.017  1.00  0.00     0.012 A 
HETATM   29  C   UNL     1      28.871  39.850  48.571  1.00  0.00     0.043 A 
HETATM   30  C   UNL     1      28.575  38.506  48.760  1.00  0.00     0.116 A 
HETATM   31  F   UNL     1      29.433  37.574  48.327  1.00  0.00    -0.206 F 
HETATM   32  C   UNL     1      27.400  38.115  49.388  1.00  0.00     0.043 A 
HETATM   33  C   UNL     1      26.502  39.085  49.836  1.00  0.00     0.012 A 
ENDBRANCH   6  27
TORSDOF 5
ENDMDL
MODEL 6
REMARK VINA RESULT:      -9.4      3.829      7.604
REMARK  5 active torsions:
REMARK  status: ('A' for Active; 'I' for Inactive)
REMARK    1  A    between atoms: C_3  and  O_4 
REMARK    2  A    between atoms: C_6  and  N_7 
REMARK       I    between atoms: N_7  and  C_8 
REMARK    3  A    between atoms: C_8  and  C_9 
REMARK    4  A    between atoms: C_12  and  C_13 
REMARK    5  A    between atoms: C_18  and  C_19 
ROOT
HETATM    1  C   UNL     1      26.451  45.018  51.977  1.00  0.00     0.096 A 
HETATM    2  C   UNL     1      27.065  43.787  52.112  1.00  0.00     0.138 A 
HETATM    3  N   UNL     1      27.454  43.710  53.428  1.00  0.00    -0.240 N 
HETATM    4  C   UNL     1      28.165  42.590  54.017  1.00  0.00     0.221 C 
HETATM    5  C   UNL     1      27.984  41.343  53.136  1.00  0.00     0.066 C 
HETATM    6  C   UNL     1      28.215  41.679  51.653  1.00  0.00     0.118 C 
HETATM    7  N   UNL     1      27.317  42.767  51.243  1.00  0.00    -0.365 N 
HETATM    8  N   UNL     1      27.122  44.781  54.162  1.00  0.00    -0.181 NA
HETATM    9  C   UNL     1      26.551  45.595  53.269  1.00  0.00     0.160 A 
HETATM   10  H   UNL     1      27.431  42.998  50.253  1.00  0.00     0.161 HD
ENDROOT
BRANCH   1  11
HETATM   11  C   UNL     1      25.828  45.629  50.814  1.00  0.00     0.261 C 
HETATM   12  N   UNL     1      25.781  47.009  50.880  1.00  0.00    -0.323 N 
HETATM   13  H   UNL     1      26.282  47.421  51.659  1.00  0.00     0.169 HD
HETATM   14  O   UNL     1      25.451  44.936  49.878  1.00  0.00    -0.267 OA
BRANCH  12  15
HETATM   15  C   UNL     1      25.224  47.897  49.939  1.00  0.00     0.037 A 
HETATM   16  C   UNL     1      25.976  48.760  49.140  1.00  0.00     0.066 A 
HETATM   17  C   UNL     1      25.339  49.601  48.230  1.00  0.00     0.067 A 
HETATM   18  C   UNL     1      23.954  49.605  48.101  1.00  0.00     0.036 A 
HETATM   19  C   UNL     1      23.197  48.744  48.893  1.00  0.00     0.005 A 
HETATM   20  C   UNL     1      23.829  47.891  49.802  1.00  0.00     0.029 A 
BRANCH  17  21
HETATM   21  O   UNL     1      26.120  50.420  47.467  1.00  0.00    -0.361 OA
HETATM   22  H   UNL     1      26.983  49.994  47.330  1.00  0.00     0.217 HD
ENDBRANCH  17  21
ENDBRANCH  12  15
ENDBRANCH   1  11
BRANCH   4  23
HETATM   23  C   UNL     1      29.624  42.947  54.210  1.00  0.00     0.409 C 
HETATM   24  F   UNL     1      30.072  42.675  55.455  1.00  0.00    -0.169 F 
HETATM   25  F   UNL     1      30.443  42.335  53.331  1.00  0.00    -0.169 F 
HETATM   26  F   UNL     1      29.796  44.284  54.025  1.00  0.00    -0.169 F 
ENDBRANCH   4  23
BRANCH   6  27
HETATM   27  C   UNL     1      27.987  40.460  50.777  1.00  0.00    -0.035 A 
HETATM   28  C   UNL     1      26.771  40.259  50.098  1.00  0.00     0.012 A 
HETATM   29  C   UNL     1      26.571  39.114  49.324  1.00  0.00     0.043 A 
HETATM   30  C   UNL     1      27.581  38.165  49.230  1.00  0.00     0.116 A 
HETATM   31  F   UNL     1      27.386  37.065  48.492  1.00  0.00    -0.206 F 
HETATM   32  C   UNL     1      28.788  38.339  49.893  1.00  0.00     0.043 A 
HETATM   33  C   UNL     1      28.993  39.483  50.666  1.00  0.00     0.012 A 
ENDBRANCH   6  27
TORSDOF 5
ENDMDL
MODEL 7
REMARK VINA RESULT:      -9.1      5.249      8.958
REMARK  5 active torsions:
REMARK  status: ('A' for Active; 'I' for Inactive)
REMARK    1  A    between atoms: C_3  and  O_4 
REMARK    2  A    between atoms: C_6  and  N_7 
REMARK       I    between atoms: N_7  and  C_8 
REMARK    3  A    between atoms: C_8  and  C_9 
REMARK    4  A    between atoms: C_12  and  C_13 
REMARK    5  A    between atoms: C_18  and  C_19 
ROOT
HETATM    1  C   UNL     1      24.754  47.062  50.055  1.00  0.00     0.096 A 
HETATM    2  C   UNL     1      23.607  47.484  49.408  1.00  0.00     0.138 A 
HETATM    3  N   UNL     1      23.922  48.703  48.856  1.00  0.00    -0.240 N 
HETATM    4  C   UNL     1      23.001  49.530  48.098  1.00  0.00     0.221 C 
HETATM    5  C   UNL     1      21.834  48.669  47.586  1.00  0.00     0.066 C 
HETATM    6  C   UNL     1      21.283  47.770  48.706  1.00  0.00     0.118 C 
HETATM    7  N   UNL     1      22.364  46.943  49.259  1.00  0.00    -0.365 N 
HETATM    8  N   UNL     1      25.185  49.094  49.073  1.00  0.00    -0.181 NA
HETATM    9  C   UNL     1      25.677  48.116  49.839  1.00  0.00     0.160 A 
HETATM   10  H   UNL     1      22.024  46.316  49.992  1.00  0.00     0.161 HD
ENDROOT
BRANCH   1  11
HETATM   11  C   UNL     1      25.013  45.837  50.794  1.00  0.00     0.261 C 
HETATM   12  N   UNL     1      26.226  45.842  51.455  1.00  0.00    -0.323 N 
HETATM   13  H   UNL     1      26.721  46.727  51.441  1.00  0.00     0.169 HD
HETATM   14  O   UNL     1      24.173  44.946  50.829  1.00  0.00    -0.267 OA
BRANCH  12  15
HETATM   15  C   UNL     1      26.788  44.810  52.232  1.00  0.00     0.037 A 
HETATM   16  C   UNL     1      27.704  43.877  51.745  1.00  0.00     0.066 A 
HETATM   17  C   UNL     1      28.213  42.892  52.591  1.00  0.00     0.067 A 
HETATM   18  C   UNL     1      27.821  42.814  53.923  1.00  0.00     0.036 A 
HETATM   19  C   UNL     1      26.910  43.745  54.417  1.00  0.00     0.005 A 
HETATM   20  C   UNL     1      26.401  44.741  53.578  1.00  0.00     0.029 A 
BRANCH  17  21
HETATM   21  O   UNL     1      29.112  42.009  52.068  1.00  0.00    -0.361 OA
HETATM   22  H   UNL     1      29.251  41.287  52.703  1.00  0.00     0.217 HD
ENDBRANCH  17  21
ENDBRANCH  12  15
ENDBRANCH   1  11
BRANCH   4  23
HETATM   23  C   UNL     1      22.527  50.690  48.949  1.00  0.00     0.409 C 
HETATM   24  F   UNL     1      22.276  50.335  50.228  1.00  0.00    -0.169 F 
HETATM   25  F   UNL     1      23.390  51.725  48.967  1.00  0.00    -0.169 F 
HETATM   26  F   UNL     1      21.358  51.174  48.450  1.00  0.00    -0.169 F 
ENDBRANCH   4  23
BRANCH   6  27
HETATM   27  C   UNL     1      20.165  46.882  48.190  1.00  0.00    -0.035 A 
HETATM   28  C   UNL     1      20.430  45.741  47.411  1.00  0.00     0.012 A 
HETATM   29  C   UNL     1      19.384  44.958  46.919  1.00  0.00     0.043 A 
HETATM   30  C   UNL     1      18.070  45.315  47.198  1.00  0.00     0.116 A 
HETATM   31  F   UNL     1      17.068  44.566  46.721  1.00  0.00    -0.206 F 
HETATM   32  C   UNL     1      17.782  46.438  47.962  1.00  0.00     0.043 A 
HETATM   33  C   UNL     1      18.826  47.222  48.457  1.00  0.00     0.012 A 
ENDBRANCH   6  27
TORSDOF 5
ENDMDL
MODEL 8
REMARK VINA RESULT:      -8.8      3.666      6.361
REMARK  5 active torsions:
REMARK  status: ('A' for Active; 'I' for Inactive)
REMARK    1  A    between atoms: C_3  and  O_4 
REMARK    2  A    between atoms: C_6  and  N_7 
REMARK       I    between atoms: N_7  and  C_8 
REMARK    3  A    between atoms: C_8  and  C_9 
REMARK    4  A    between atoms: C_12  and  C_13 
REMARK    5  A    between atoms: C_18  and  C_19 
ROOT
HETATM    1  C   UNL     1      25.322  42.488  50.378  1.00  0.00     0.096 A 
HETATM    2  C   UNL     1      26.170  42.980  51.354  1.00  0.00     0.138 A 
HETATM    3  N   UNL     1      27.336  42.263  51.227  1.00  0.00    -0.240 N 
HETATM    4  C   UNL     1      28.505  42.429  52.070  1.00  0.00     0.221 C 
HETATM    5  C   UNL     1      28.452  43.801  52.763  1.00  0.00     0.066 C 
HETATM    6  C   UNL     1      27.057  44.061  53.359  1.00  0.00     0.118 C 
HETATM    7  N   UNL     1      26.037  43.945  52.308  1.00  0.00    -0.365 N 
HETATM    8  N   UNL     1      27.320  41.363  50.234  1.00  0.00    -0.181 NA
HETATM    9  C   UNL     1      26.081  41.470  49.746  1.00  0.00     0.160 A 
HETATM   10  H   UNL     1      25.099  44.137  52.669  1.00  0.00     0.161 HD
ENDROOT
BRANCH   1  11
HETATM   11  C   UNL     1      23.967  42.884  50.031  1.00  0.00     0.261 C 
HETATM   12  N   UNL     1      23.861  43.420  48.762  1.00  0.00    -0.323 N 
HETATM   13  H   UNL     1      24.702  43.362  48.197  1.00  0.00     0.169 HD
HETATM   14  O   UNL     1      23.045  42.687  50.813  1.00  0.00    -0.267 OA
BRANCH  12  15
HETATM   15  C   UNL     1      22.706  43.923  48.133  1.00  0.00     0.037 A 
HETATM   16  C   UNL     1      21.988  43.234  47.154  1.00  0.00     0.066 A 
HETATM   17  C   UNL     1      20.849  43.809  46.590  1.00  0.00     0.067 A 
HETATM   18  C   UNL     1      20.409  45.069  46.981  1.00  0.00     0.036 A 
HETATM   19  C   UNL     1      21.119  45.760  47.961  1.00  0.00     0.005 A 
HETATM   20  C   UNL     1      22.256  45.187  48.538  1.00  0.00     0.029 A 
BRANCH  17  21
HETATM   21  O   UNL     1      20.179  43.091  45.642  1.00  0.00    -0.361 OA
HETATM   22  H   UNL     1      20.610  43.225  44.782  1.00  0.00     0.217 HD
ENDBRANCH  17  21
ENDBRANCH  12  15
ENDBRANCH   1  11
BRANCH   4  23
HETATM   23  C   UNL     1      28.593  41.289  53.063  1.00  0.00     0.409 C 
HETATM   24  F   UNL     1      27.382  40.868  53.489  1.00  0.00    -0.169 F 
HETATM   25  F   UNL     1      29.261  40.219  52.587  1.00  0.00    -0.169 F 
HETATM   26  F   UNL     1      29.267  41.700  54.171  1.00  0.00    -0.169 F 
ENDBRANCH   4  23
BRANCH   6  27
HETATM   27  C   UNL     1      26.988  45.436  53.999  1.00  0.00    -0.035 A 
HETATM   28  C   UNL     1      25.970  46.350  53.670  1.00  0.00     0.012 A 
HETATM   29  C   UNL     1      25.945  47.622  54.247  1.00  0.00     0.043 A 
HETATM   30  C   UNL     1      26.938  47.986  55.149  1.00  0.00     0.116 A 
HETATM   31  F   UNL     1      26.916  49.208  55.696  1.00  0.00    -0.206 F 
HETATM   32  C   UNL     1      27.954  47.103  55.486  1.00  0.00     0.043 A 
HETATM   33  C   UNL     1      27.981  45.830  54.913  1.00  0.00     0.012 A 
ENDBRANCH   6  27
TORSDOF 5
ENDMDL
MODEL 9
REMARK VINA RESULT:      -8.6     10.574     14.666
REMARK  5 active torsions:
REMARK  status: ('A' for Active; 'I' for Inactive)
REMARK    1  A    between atoms: C_3  and  O_4 
REMARK    2  A    between atoms: C_6  and  N_7 
REMARK       I    between atoms: N_7  and  C_8 
REMARK    3  A    between atoms: C_8  and  C_9 
REMARK    4  A    between atoms: C_12  and  C_13 
REMARK    5  A    between atoms: C_18  and  C_19 
ROOT
HETATM    1  C   UNL     1      16.728  50.878  48.596  1.00  0.00     0.096 A 
HETATM    2  C   UNL     1      17.809  50.052  48.351  1.00  0.00     0.138 A 
HETATM    3  N   UNL     1      17.333  49.052  47.537  1.00  0.00    -0.240 N 
HETATM    4  C   UNL     1      18.123  47.939  47.045  1.00  0.00     0.221 C 
HETATM    5  C   UNL     1      19.618  48.288  47.134  1.00  0.00     0.066 C 
HETATM    6  C   UNL     1      19.959  48.898  48.504  1.00  0.00     0.118 C 
HETATM    7  N   UNL     1      19.113  50.074  48.750  1.00  0.00    -0.365 N 
HETATM    8  N   UNL     1      16.037  49.175  47.217  1.00  0.00    -0.181 NA
HETATM    9  C   UNL     1      15.659  50.262  47.897  1.00  0.00     0.160 A 
HETATM   10  H   UNL     1      19.333  50.517  49.646  1.00  0.00     0.161 HD
ENDROOT
BRANCH   1  11
HETATM   11  C   UNL     1      16.646  52.104  49.374  1.00  0.00     0.261 C 
HETATM   12  N   UNL     1      15.362  52.603  49.476  1.00  0.00    -0.323 N 
HETATM   13  H   UNL     1      14.634  52.002  49.105  1.00  0.00     0.169 HD
HETATM   14  O   UNL     1      17.648  52.569  49.904  1.00  0.00    -0.267 OA
BRANCH  12  15
HETATM   15  C   UNL     1      14.944  53.778  50.132  1.00  0.00     0.037 A 
HETATM   16  C   UNL     1      14.460  53.811  51.440  1.00  0.00     0.066 A 
HETATM   17  C   UNL     1      14.075  55.024  52.011  1.00  0.00     0.067 A 
HETATM   18  C   UNL     1      14.157  56.214  51.296  1.00  0.00     0.036 A 
HETATM   19  C   UNL     1      14.642  56.189  49.990  1.00  0.00     0.005 A 
HETATM   20  C   UNL     1      15.039  54.978  49.414  1.00  0.00     0.029 A 
BRANCH  17  21
HETATM   21  O   UNL     1      13.616  55.003  53.296  1.00  0.00    -0.361 OA
HETATM   22  H   UNL     1      12.840  54.421  53.344  1.00  0.00     0.217 HD
ENDBRANCH  17  21
ENDBRANCH  12  15
ENDBRANCH   1  11
BRANCH   4  23
HETATM   23  C   UNL     1      17.782  46.681  47.815  1.00  0.00     0.409 C 
HETATM   24  F   UNL     1      18.864  45.915  48.076  1.00  0.00    -0.169 F 
HETATM   25  F   UNL     1      17.156  46.925  48.984  1.00  0.00    -0.169 F 
HETATM   26  F   UNL     1      16.936  45.910  47.080  1.00  0.00    -0.169 F 
ENDBRANCH   4  23
BRANCH   6  27
HETATM   27  C   UNL     1      21.424  49.291  48.576  1.00  0.00    -0.035 A 
HETATM   28  C   UNL     1      21.853  50.594  48.267  1.00  0.00     0.012 A 
HETATM   29  C   UNL     1      23.210  50.924  48.307  1.00  0.00     0.043 A 
HETATM   30  C   UNL     1      24.141  49.952  48.651  1.00  0.00     0.116 A 
HETATM   31  F   UNL     1      25.442  50.268  48.683  1.00  0.00    -0.206 F 
HETATM   32  C   UNL     1      23.744  48.658  48.956  1.00  0.00     0.043 A 
HETATM   33  C   UNL     1      22.388  48.325  48.919  1.00  0.00     0.012 A 
ENDBRANCH   6  27
TORSDOF 5
ENDMDL
MODEL 10
REMARK VINA RESULT:      -8.5      7.399      8.997
REMARK  5 active torsions:
REMARK  status: ('A' for Active; 'I' for Inactive)
REMARK    1  A    between atoms: C_3  and  O_4 
REMARK    2  A    between atoms: C_6  and  N_7 
REMARK       I    between atoms: N_7  and  C_8 
REMARK    3  A    between atoms: C_8  and  C_9 
REMARK    4  A    between atoms: C_12  and  C_13 
REMARK    5  A    between atoms: C_18  and  C_19 
ROOT
HETATM    1  C   UNL     1      19.978  46.820  48.558  1.00  0.00     0.096 A 
HETATM    2  C   UNL     1      20.882  47.853  48.727  1.00  0.00     0.138 A 
HETATM    3  N   UNL     1      20.157  48.898  49.247  1.00  0.00    -0.240 N 
HETATM    4  C   UNL     1      20.700  50.206  49.563  1.00  0.00     0.221 C 
HETATM    5  C   UNL     1      22.228  50.109  49.709  1.00  0.00     0.066 C 
HETATM    6  C   UNL     1      22.841  49.306  48.549  1.00  0.00     0.118 C 
HETATM    7  N   UNL     1      22.218  47.977  48.480  1.00  0.00    -0.365 N 
HETATM    8  N   UNL     1      18.861  48.619  49.450  1.00  0.00    -0.181 NA
HETATM    9  C   UNL     1      18.744  47.371  48.990  1.00  0.00     0.160 A 
HETATM   10  H   UNL     1      22.622  47.408  47.732  1.00  0.00     0.161 HD
ENDROOT
BRANCH   1  11
HETATM   11  C   UNL     1      20.185  45.469  48.063  1.00  0.00     0.261 C 
HETATM   12  N   UNL     1      20.113  45.373  46.686  1.00  0.00    -0.323 N 
HETATM   13  H   UNL     1      20.045  46.257  46.195  1.00  0.00     0.169 HD
HETATM   14  O   UNL     1      20.446  44.559  48.840  1.00  0.00    -0.267 OA
BRANCH  12  15
HETATM   15  C   UNL     1      20.240  44.214  45.896  1.00  0.00     0.037 A 
HETATM   16  C   UNL     1      21.447  43.550  45.673  1.00  0.00     0.066 A 
HETATM   17  C   UNL     1      21.477  42.403  44.880  1.00  0.00     0.067 A 
HETATM   18  C   UNL     1      20.319  41.903  44.295  1.00  0.00     0.036 A 
HETATM   19  C   UNL     1      19.109  42.558  44.517  1.00  0.00     0.005 A 
HETATM   20  C   UNL     1      19.070  43.703  45.318  1.00  0.00     0.029 A 
BRANCH  17  21
HETATM   21  O   UNL     1      22.681  41.787  44.700  1.00  0.00    -0.361 OA
HETATM   22  H   UNL     1      22.563  40.828  44.803  1.00  0.00     0.217 HD
ENDBRANCH  17  21
ENDBRANCH  12  15
ENDBRANCH   1  11
BRANCH   4  23
HETATM   23  C   UNL     1      20.289  51.207  48.504  1.00  0.00     0.409 C 
HETATM   24  F   UNL     1      19.983  50.628  47.323  1.00  0.00    -0.169 F 
HETATM   25  F   UNL     1      19.243  51.973  48.873  1.00  0.00    -0.169 F 
HETATM   26  F   UNL     1      21.320  52.060  48.257  1.00  0.00    -0.169 F 
ENDBRANCH   4  23
BRANCH   6  27
HETATM   27  C   UNL     1      24.343  49.165  48.719  1.00  0.00    -0.035 A 
HETATM   28  C   UNL     1      24.901  48.179  49.553  1.00  0.00     0.012 A 
HETATM   29  C   UNL     1      26.285  48.090  49.720  1.00  0.00     0.043 A 
HETATM   30  C   UNL     1      27.114  48.988  49.058  1.00  0.00     0.116 A 
HETATM   31  F   UNL     1      28.440  48.905  49.224  1.00  0.00    -0.206 F 
HETATM   32  C   UNL     1      26.588  49.971  48.232  1.00  0.00     0.043 A 
HETATM   33  C   UNL     1      25.205  50.062  48.062  1.00  0.00     0.012 A 
ENDBRANCH   6  27
TORSDOF 5
ENDMDL
