MODEL 1
REMARK VINA RESULT:      -9.5      0.000      0.000
REMARK  5 active torsions:
REMARK  status: ('A' for Active; 'I' for Inactive)
REMARK    1  A    between atoms: C_2  and  C_3 
REMARK    2  A    between atoms: C_3  and  C_4 
REMARK    3  A    between atoms: C_8  and  N_9 
REMARK       I    between atoms: N_9  and  C_10 
REMARK    4  A    between atoms: C_10  and  C_11 
REMARK    5  A    between atoms: N_13  and  C_14 
ROOT
HETATM    1  C   UNL     1      27.201  44.795  50.579  1.00  0.00     0.106 C 
HETATM    2  C   UNL     1      26.583  45.633  49.469  1.00  0.00     0.148 C 
HETATM    3  N   UNL     1      26.030  46.784  50.131  1.00  0.00    -0.299 N 
HETATM    4  C   UNL     1      25.814  46.519  51.488  1.00  0.00     0.226 C 
HETATM    5  O   UNL     1      25.277  47.195  52.352  1.00  0.00    -0.273 OA
HETATM    6  C   UNL     1      26.319  45.125  51.773  1.00  0.00     0.119 C 
ENDROOT
BRANCH   1   7
HETATM    7  C   UNL     1      27.188  43.318  50.232  1.00  0.00     0.242 C 
HETATM    8  N   UNL     1      27.577  42.368  51.131  1.00  0.00    -0.156 N 
HETATM    9  H   UNL     1      27.452  41.420  50.803  1.00  0.00     0.187 HD
HETATM   10  O   UNL     1      26.800  42.918  49.129  1.00  0.00    -0.272 OA
BRANCH   8  11
HETATM   11  C   UNL     1      28.192  42.588  52.333  1.00  0.00     0.725 A 
HETATM   12  N   UNL     1      27.515  42.515  53.522  1.00  0.00    -0.106 N 
HETATM   13  N   UNL     1      28.318  42.776  54.564  1.00  0.00    -0.144 NA
HETATM   14  H   UNL     1      26.538  42.315  53.688  1.00  0.00     0.208 HD
HETATM   15  C   UNL     1      29.489  42.982  53.952  1.00  0.00     0.166 A 
HETATM   16  N   UNL     1      29.446  42.871  52.585  1.00  0.00    -0.046 NA
BRANCH  15  17
HETATM   17  C   UNL     1      30.741  43.321  54.681  1.00  0.00     0.087 C 
BRANCH  17  18
HETATM   18  C   UNL     1      30.496  43.801  56.125  1.00  0.00    -0.016 C 
HETATM   19  C   UNL     1      30.375  45.324  56.210  1.00  0.00     0.010 C 
HETATM   20  C   UNL     1      31.633  43.325  57.032  1.00  0.00     0.010 C 
ENDBRANCH  17  18
ENDBRANCH  15  17
ENDBRANCH   8  11
ENDBRANCH   1   7
BRANCH   3  21
HETATM   21  C   UNL     1      25.651  47.976  49.516  1.00  0.00     0.165 A 
HETATM   22  N   UNL     1      26.541  48.881  49.099  1.00  0.00    -0.155 NA
HETATM   23  N   UNL     1      25.820  49.857  48.547  1.00  0.00    -0.275 N 
HETATM   24  H   UNL     1      26.316  50.655  48.165  1.00  0.00     0.189 HD
HETATM   25  C   UNL     1      24.474  49.644  48.574  1.00  0.00     0.065 A 
HETATM   26  C   UNL     1      24.314  48.416  49.213  1.00  0.00     0.040 A 
HETATM   27  C   UNL     1      23.409  50.421  48.100  1.00  0.00     0.051 A 
HETATM   28  C   UNL     1      22.997  47.945  49.409  1.00  0.00     0.019 A 
HETATM   29  C   UNL     1      21.910  48.704  48.946  1.00  0.00     0.020 A 
HETATM   30  C   UNL     1      22.122  49.918  48.302  1.00  0.00     0.013 A 
HETATM   31 BR   UNL     1      20.636  50.918  47.688  1.00  0.00    -0.051 Br
ENDBRANCH   3  21
TORSDOF 5
ENDMDL
MODEL 2
REMARK VINA RESULT:      -9.4      4.810      7.729
REMARK  5 active torsions:
REMARK  status: ('A' for Active; 'I' for Inactive)
REMARK    1  A    between atoms: C_2  and  C_3 
REMARK    2  A    between atoms: C_3  and  C_4 
REMARK    3  A    between atoms: C_8  and  N_9 
REMARK       I    between atoms: N_9  and  C_10 
REMARK    4  A    between atoms: C_10  and  C_11 
REMARK    5  A    between atoms: N_13  and  C_14 
ROOT
HETATM    1  C   UNL     1      25.709  43.907  51.037  1.00  0.00     0.106 C 
HETATM    2  C   UNL     1      26.769  44.861  51.569  1.00  0.00     0.148 C 
HETATM    3  N   UNL     1      26.546  44.915  52.988  1.00  0.00    -0.299 N 
HETATM    4  C   UNL     1      25.241  44.520  53.301  1.00  0.00     0.226 C 
HETATM    5  O   UNL     1      24.645  44.524  54.368  1.00  0.00    -0.273 OA
HETATM    6  C   UNL     1      24.563  44.106  52.017  1.00  0.00     0.119 C 
ENDROOT
BRANCH   1   7
HETATM    7  C   UNL     1      25.323  44.247  49.609  1.00  0.00     0.242 C 
HETATM    8  N   UNL     1      25.488  43.355  48.590  1.00  0.00    -0.156 N 
HETATM    9  H   UNL     1      25.124  43.675  47.703  1.00  0.00     0.187 HD
HETATM   10  O   UNL     1      24.819  45.338  49.320  1.00  0.00    -0.272 OA
BRANCH   8  11
HETATM   11  C   UNL     1      26.169  42.170  48.650  1.00  0.00     0.725 A 
HETATM   12  N   UNL     1      25.539  40.978  48.891  1.00  0.00    -0.106 N 
HETATM   13  N   UNL     1      26.406  39.955  48.912  1.00  0.00    -0.144 NA
HETATM   14  H   UNL     1      24.557  40.798  49.059  1.00  0.00     0.208 HD
HETATM   15  C   UNL     1      27.560  40.580  48.654  1.00  0.00     0.166 A 
HETATM   16  N   UNL     1      27.448  41.937  48.486  1.00  0.00    -0.046 NA
BRANCH  15  17
HETATM   17  C   UNL     1      28.868  39.876  48.571  1.00  0.00     0.087 C 
BRANCH  17  18
HETATM   18  C   UNL     1      28.760  38.358  48.813  1.00  0.00    -0.016 C 
HETATM   19  C   UNL     1      29.842  37.852  49.771  1.00  0.00     0.010 C 
HETATM   20  C   UNL     1      28.863  37.610  47.482  1.00  0.00     0.010 C 
ENDBRANCH  17  18
ENDBRANCH  15  17
ENDBRANCH   8  11
ENDBRANCH   1   7
BRANCH   3  21
HETATM   21  C   UNL     1      27.448  45.392  53.939  1.00  0.00     0.165 A 
HETATM   22  N   UNL     1      27.388  46.637  54.421  1.00  0.00    -0.155 NA
HETATM   23  N   UNL     1      28.376  46.718  55.313  1.00  0.00    -0.275 N 
HETATM   24  H   UNL     1      28.505  47.598  55.799  1.00  0.00     0.189 HD
HETATM   25  C   UNL     1      29.100  45.571  55.453  1.00  0.00     0.065 A 
HETATM   26  C   UNL     1      28.527  44.669  54.558  1.00  0.00     0.040 A 
HETATM   27  C   UNL     1      30.192  45.267  56.275  1.00  0.00     0.051 A 
HETATM   28  C   UNL     1      29.102  43.381  54.467  1.00  0.00     0.019 A 
HETATM   29  C   UNL     1      30.199  43.050  55.278  1.00  0.00     0.020 A 
HETATM   30  C   UNL     1      30.726  43.981  56.166  1.00  0.00     0.013 A 
HETATM   31 BR   UNL     1      32.205  43.503  57.248  1.00  0.00    -0.051 Br
ENDBRANCH   3  21
TORSDOF 5
ENDMDL
MODEL 3
REMARK VINA RESULT:      -9.0      4.137      8.806
REMARK  5 active torsions:
REMARK  status: ('A' for Active; 'I' for Inactive)
REMARK    1  A    between atoms: C_2  and  C_3 
REMARK    2  A    between atoms: C_3  and  C_4 
REMARK    3  A    between atoms: C_8  and  N_9 
REMARK       I    between atoms: N_9  and  C_10 
REMARK    4  A    between atoms: C_10  and  C_11 
REMARK    5  A    between atoms: N_13  and  C_14 
ROOT
HETATM    1  C   UNL     1      23.916  44.911  49.931  1.00  0.00     0.106 C 
HETATM    2  C   UNL     1      24.368  44.749  51.375  1.00  0.00     0.148 C 
HETATM    3  N   UNL     1      25.736  45.192  51.392  1.00  0.00    -0.299 N 
HETATM    4  C   UNL     1      26.290  45.139  50.108  1.00  0.00     0.226 C 
HETATM    5  O   UNL     1      27.435  45.335  49.730  1.00  0.00    -0.273 OA
HETATM    6  C   UNL     1      25.206  44.698  49.154  1.00  0.00     0.119 C 
ENDROOT
BRANCH   1   7
HETATM    7  C   UNL     1      22.842  43.902  49.569  1.00  0.00     0.242 C 
HETATM    8  N   UNL     1      21.693  44.275  48.935  1.00  0.00    -0.156 N 
HETATM    9  H   UNL     1      21.093  43.499  48.685  1.00  0.00     0.187 HD
HETATM   10  O   UNL     1      22.980  42.698  49.813  1.00  0.00    -0.272 OA
BRANCH   8  11
HETATM   11  C   UNL     1      21.260  45.555  48.722  1.00  0.00     0.725 A 
HETATM   12  N   UNL     1      20.073  46.017  49.227  1.00  0.00    -0.106 N 
HETATM   13  N   UNL     1      19.854  47.295  48.883  1.00  0.00    -0.144 NA
HETATM   14  H   UNL     1      19.382  45.528  49.781  1.00  0.00     0.208 HD
HETATM   15  C   UNL     1      20.958  47.574  48.182  1.00  0.00     0.166 A 
HETATM   16  N   UNL     1      21.840  46.530  48.066  1.00  0.00    -0.046 NA
BRANCH  15  17
HETATM   17  C   UNL     1      21.212  48.900  47.555  1.00  0.00     0.087 C 
BRANCH  17  18
HETATM   18  C   UNL     1      21.983  49.870  48.471  1.00  0.00    -0.016 C 
HETATM   19  C   UNL     1      21.142  51.094  48.847  1.00  0.00     0.010 C 
HETATM   20  C   UNL     1      23.271  50.324  47.782  1.00  0.00     0.010 C 
ENDBRANCH  17  18
ENDBRANCH  15  17
ENDBRANCH   8  11
ENDBRANCH   1   7
BRANCH   3  21
HETATM   21  C   UNL     1      26.470  45.533  52.527  1.00  0.00     0.165 A 
HETATM   22  N   UNL     1      26.246  46.657  53.214  1.00  0.00    -0.155 NA
HETATM   23  N   UNL     1      27.106  46.627  54.231  1.00  0.00    -0.275 N 
HETATM   24  H   UNL     1      27.099  47.404  54.882  1.00  0.00     0.189 HD
HETATM   25  C   UNL     1      27.904  45.521  54.259  1.00  0.00     0.065 A 
HETATM   26  C   UNL     1      27.524  44.773  53.146  1.00  0.00     0.040 A 
HETATM   27  C   UNL     1      28.909  45.133  55.153  1.00  0.00     0.051 A 
HETATM   28  C   UNL     1      28.214  43.564  52.902  1.00  0.00     0.019 A 
HETATM   29  C   UNL     1      29.227  43.152  53.781  1.00  0.00     0.020 A 
HETATM   30  C   UNL     1      29.561  43.927  54.887  1.00  0.00     0.013 A 
HETATM   31 BR   UNL     1      30.931  43.343  56.055  1.00  0.00    -0.051 Br
ENDBRANCH   3  21
TORSDOF 5
ENDMDL
MODEL 4
REMARK VINA RESULT:      -9.0      4.275      8.126
REMARK  5 active torsions:
REMARK  status: ('A' for Active; 'I' for Inactive)
REMARK    1  A    between atoms: C_2  and  C_3 
REMARK    2  A    between atoms: C_3  and  C_4 
REMARK    3  A    between atoms: C_8  and  N_9 
REMARK       I    between atoms: N_9  and  C_10 
REMARK    4  A    between atoms: C_10  and  C_11 
REMARK    5  A    between atoms: N_13  and  C_14 
ROOT
HETATM    1  C   UNL     1      25.393  46.163  51.093  1.00  0.00     0.106 C 
HETATM    2  C   UNL     1      26.097  46.957  52.184  1.00  0.00     0.148 C 
HETATM    3  N   UNL     1      26.275  46.029  53.268  1.00  0.00    -0.299 N 
HETATM    4  C   UNL     1      25.371  44.965  53.163  1.00  0.00     0.226 C 
HETATM    5  O   UNL     1      25.143  44.040  53.928  1.00  0.00    -0.273 OA
HETATM    6  C   UNL     1      24.582  45.153  51.890  1.00  0.00     0.119 C 
ENDROOT
BRANCH   1   7
HETATM    7  C   UNL     1      24.525  47.059  50.228  1.00  0.00     0.242 C 
HETATM    8  N   UNL     1      23.563  46.547  49.407  1.00  0.00    -0.156 N 
HETATM    9  H   UNL     1      23.006  47.251  48.942  1.00  0.00     0.187 HD
HETATM   10  O   UNL     1      24.640  48.289  50.255  1.00  0.00    -0.272 OA
BRANCH   8  11
HETATM   11  C   UNL     1      23.375  45.228  49.097  1.00  0.00     0.725 A 
HETATM   12  N   UNL     1      22.213  44.567  49.395  1.00  0.00    -0.106 N 
HETATM   13  N   UNL     1      22.260  43.284  49.006  1.00  0.00    -0.144 NA
HETATM   14  H   UNL     1      21.384  44.913  49.860  1.00  0.00     0.208 HD
HETATM   15  C   UNL     1      23.475  43.219  48.451  1.00  0.00     0.166 A 
HETATM   16  N   UNL     1      24.183  44.394  48.489  1.00  0.00    -0.046 NA
BRANCH  15  17
HETATM   17  C   UNL     1      24.033  41.976  47.855  1.00  0.00     0.087 C 
BRANCH  17  18
HETATM   18  C   UNL     1      25.397  41.573  48.448  1.00  0.00    -0.016 C 
HETATM   19  C   UNL     1      25.846  40.191  47.965  1.00  0.00     0.010 C 
HETATM   20  C   UNL     1      25.324  41.583  49.976  1.00  0.00     0.010 C 
ENDBRANCH  17  18
ENDBRANCH  15  17
ENDBRANCH   8  11
ENDBRANCH   1   7
BRANCH   3  21
HETATM   21  C   UNL     1      27.143  46.189  54.346  1.00  0.00     0.165 A 
HETATM   22  N   UNL     1      27.031  47.200  55.212  1.00  0.00    -0.155 NA
HETATM   23  N   UNL     1      28.001  47.010  56.106  1.00  0.00    -0.275 N 
HETATM   24  H   UNL     1      28.090  47.681  56.860  1.00  0.00     0.189 HD
HETATM   25  C   UNL     1      28.764  45.903  55.878  1.00  0.00     0.065 A 
HETATM   26  C   UNL     1      28.239  45.333  54.720  1.00  0.00     0.040 A 
HETATM   27  C   UNL     1      29.854  45.375  56.582  1.00  0.00     0.051 A 
HETATM   28  C   UNL     1      28.862  44.167  54.222  1.00  0.00     0.019 A 
HETATM   29  C   UNL     1      29.957  43.617  54.907  1.00  0.00     0.020 A 
HETATM   30  C   UNL     1      30.436  44.216  56.068  1.00  0.00     0.013 A 
HETATM   31 BR   UNL     1      31.914  43.449  56.969  1.00  0.00    -0.051 Br
ENDBRANCH   3  21
TORSDOF 5
ENDMDL
MODEL 5
REMARK VINA RESULT:      -8.8      3.881      8.804
REMARK  5 active torsions:
REMARK  status: ('A' for Active; 'I' for Inactive)
REMARK    1  A    between atoms: C_2  and  C_3 
REMARK    2  A    between atoms: C_3  and  C_4 
REMARK    3  A    between atoms: C_8  and  N_9 
REMARK       I    between atoms: N_9  and  C_10 
REMARK    4  A    between atoms: C_10  and  C_11 
REMARK    5  A    between atoms: N_13  and  C_14 
ROOT
HETATM    1  C   UNL     1      23.479  44.568  49.665  1.00  0.00     0.106 C 
HETATM    2  C   UNL     1      24.153  43.592  50.620  1.00  0.00     0.148 C 
HETATM    3  N   UNL     1      25.511  44.051  50.730  1.00  0.00    -0.299 N 
HETATM    4  C   UNL     1      25.855  44.850  49.633  1.00  0.00     0.226 C 
HETATM    5  O   UNL     1      26.927  45.339  49.313  1.00  0.00    -0.273 OA
HETATM    6  C   UNL     1      24.628  44.995  48.764  1.00  0.00     0.119 C 
ENDROOT
BRANCH   1   7
HETATM    7  C   UNL     1      22.350  43.904  48.899  1.00  0.00     0.242 C 
HETATM    8  N   UNL     1      21.405  44.635  48.240  1.00  0.00    -0.156 N 
HETATM    9  H   UNL     1      20.752  44.074  47.709  1.00  0.00     0.187 HD
HETATM   10  O   UNL     1      22.259  42.674  48.822  1.00  0.00    -0.272 OA
BRANCH   8  11
HETATM   11  C   UNL     1      21.216  45.987  48.327  1.00  0.00     0.725 A 
HETATM   12  N   UNL     1      20.343  46.544  49.223  1.00  0.00    -0.106 N 
HETATM   13  N   UNL     1      20.317  47.882  49.122  1.00  0.00    -0.144 NA
HETATM   14  H   UNL     1      19.743  46.088  49.898  1.00  0.00     0.208 HD
HETATM   15  C   UNL     1      21.217  48.092  48.156  1.00  0.00     0.166 A 
HETATM   16  N   UNL     1      21.788  46.951  47.650  1.00  0.00    -0.046 NA
BRANCH  15  17
HETATM   17  C   UNL     1      21.568  49.446  47.648  1.00  0.00     0.087 C 
BRANCH  17  18
HETATM   18  C   UNL     1      21.591  50.523  48.749  1.00  0.00    -0.016 C 
HETATM   19  C   UNL     1      20.493  51.571  48.549  1.00  0.00     0.010 C 
HETATM   20  C   UNL     1      22.957  51.212  48.776  1.00  0.00     0.010 C 
ENDBRANCH  17  18
ENDBRANCH  15  17
ENDBRANCH   8  11
ENDBRANCH   1   7
BRANCH   3  21
HETATM   21  C   UNL     1      26.420  43.685  51.721  1.00  0.00     0.165 A 
HETATM   22  N   UNL     1      27.003  42.483  51.750  1.00  0.00    -0.155 NA
HETATM   23  N   UNL     1      27.814  42.509  52.807  1.00  0.00    -0.275 N 
HETATM   24  H   UNL     1      28.357  41.677  53.009  1.00  0.00     0.189 HD
HETATM   25  C   UNL     1      27.804  43.687  53.494  1.00  0.00     0.065 A 
HETATM   26  C   UNL     1      26.889  44.493  52.817  1.00  0.00     0.040 A 
HETATM   27  C   UNL     1      28.507  44.095  54.634  1.00  0.00     0.051 A 
HETATM   28  C   UNL     1      26.649  45.787  53.331  1.00  0.00     0.019 A 
HETATM   29  C   UNL     1      27.339  46.221  54.474  1.00  0.00     0.020 A 
HETATM   30  C   UNL     1      28.253  45.384  55.106  1.00  0.00     0.013 A 
HETATM   31 BR   UNL     1      29.168  46.000  56.645  1.00  0.00    -0.051 Br
ENDBRANCH   3  21
TORSDOF 5
ENDMDL
MODEL 6
REMARK VINA RESULT:      -8.7      4.144      9.254
REMARK  5 active torsions:
REMARK  status: ('A' for Active; 'I' for Inactive)
REMARK    1  A    between atoms: C_2  and  C_3 
REMARK    2  A    between atoms: C_3  and  C_4 
REMARK    3  A    between atoms: C_8  and  N_9 
REMARK       I    between atoms: N_9  and  C_10 
REMARK    4  A    between atoms: C_10  and  C_11 
REMARK    5  A    between atoms: N_13  and  C_14 
ROOT
HETATM    1  C   UNL     1      23.274  46.318  49.565  1.00  0.00     0.106 C 
HETATM    2  C   UNL     1      24.185  45.191  50.031  1.00  0.00     0.148 C 
HETATM    3  N   UNL     1      25.269  45.843  50.714  1.00  0.00    -0.299 N 
HETATM    4  C   UNL     1      25.377  47.179  50.311  1.00  0.00     0.226 C 
HETATM    5  O   UNL     1      26.217  48.024  50.582  1.00  0.00    -0.273 OA
HETATM    6  C   UNL     1      24.250  47.464  49.347  1.00  0.00     0.119 C 
ENDROOT
BRANCH   1   7
HETATM    7  C   UNL     1      22.526  45.939  48.300  1.00  0.00     0.242 C 
HETATM    8  N   UNL     1      21.381  46.580  47.926  1.00  0.00    -0.156 N 
HETATM    9  H   UNL     1      21.022  46.284  47.028  1.00  0.00     0.187 HD
HETATM   10  O   UNL     1      22.941  45.051  47.547  1.00  0.00    -0.272 OA
BRANCH   8  11
HETATM   11  C   UNL     1      20.661  47.465  48.680  1.00  0.00     0.725 A 
HETATM   12  N   UNL     1      19.592  47.072  49.442  1.00  0.00    -0.106 N 
HETATM   13  N   UNL     1      19.037  48.109  50.086  1.00  0.00    -0.144 NA
HETATM   14  H   UNL     1      19.193  46.149  49.553  1.00  0.00     0.208 HD
HETATM   15  C   UNL     1      19.826  49.117  49.697  1.00  0.00     0.166 A 
HETATM   16  N   UNL     1      20.831  48.754  48.837  1.00  0.00    -0.046 NA
BRANCH  15  17
HETATM   17  C   UNL     1      19.628  50.524  50.138  1.00  0.00     0.087 C 
BRANCH  17  18
HETATM   18  C   UNL     1      18.775  51.356  49.162  1.00  0.00    -0.016 C 
HETATM   19  C   UNL     1      19.639  52.146  48.175  1.00  0.00     0.010 C 
HETATM   20  C   UNL     1      17.879  52.319  49.943  1.00  0.00     0.010 C 
ENDBRANCH  17  18
ENDBRANCH  15  17
ENDBRANCH   8  11
ENDBRANCH   1   7
BRANCH   3  21
HETATM   21  C   UNL     1      26.172  45.233  51.583  1.00  0.00     0.165 A 
HETATM   22  N   UNL     1      26.786  44.083  51.286  1.00  0.00    -0.155 NA
HETATM   23  N   UNL     1      27.581  43.829  52.325  1.00  0.00    -0.275 N 
HETATM   24  H   UNL     1      28.142  42.985  52.298  1.00  0.00     0.189 HD
HETATM   25  C   UNL     1      27.530  44.766  53.314  1.00  0.00     0.065 A 
HETATM   26  C   UNL     1      26.605  45.710  52.870  1.00  0.00     0.040 A 
HETATM   27  C   UNL     1      28.206  44.852  54.537  1.00  0.00     0.051 A 
HETATM   28  C   UNL     1      26.323  46.803  53.721  1.00  0.00     0.019 A 
HETATM   29  C   UNL     1      26.985  46.913  54.954  1.00  0.00     0.020 A 
HETATM   30  C   UNL     1      27.911  45.951  55.346  1.00  0.00     0.013 A 
HETATM   31 BR   UNL     1      28.787  46.130  57.015  1.00  0.00    -0.051 Br
ENDBRANCH   3  21
TORSDOF 5
ENDMDL
MODEL 7
REMARK VINA RESULT:      -8.5      3.784      5.796
REMARK  5 active torsions:
REMARK  status: ('A' for Active; 'I' for Inactive)
REMARK    1  A    between atoms: C_2  and  C_3 
REMARK    2  A    between atoms: C_3  and  C_4 
REMARK    3  A    between atoms: C_8  and  N_9 
REMARK       I    between atoms: N_9  and  C_10 
REMARK    4  A    between atoms: C_10  and  C_11 
REMARK    5  A    between atoms: N_13  and  C_14 
ROOT
HETATM    1  C   UNL     1      23.448  48.472  49.474  1.00  0.00     0.106 C 
HETATM    2  C   UNL     1      22.483  49.645  49.383  1.00  0.00     0.148 C 
HETATM    3  N   UNL     1      21.190  49.052  49.172  1.00  0.00    -0.299 N 
HETATM    4  C   UNL     1      21.317  47.757  48.656  1.00  0.00     0.226 C 
HETATM    5  O   UNL     1      20.467  46.976  48.258  1.00  0.00    -0.273 OA
HETATM    6  C   UNL     1      22.789  47.431  48.581  1.00  0.00     0.119 C 
ENDROOT
BRANCH   1   7
HETATM    7  C   UNL     1      24.836  48.857  48.997  1.00  0.00     0.242 C 
HETATM    8  N   UNL     1      25.951  48.206  49.437  1.00  0.00    -0.156 N 
HETATM    9  H   UNL     1      26.806  48.508  48.988  1.00  0.00     0.187 HD
HETATM   10  O   UNL     1      25.007  49.760  48.170  1.00  0.00    -0.272 OA
BRANCH   8  11
HETATM   11  C   UNL     1      26.014  47.301  50.461  1.00  0.00     0.725 A 
HETATM   12  N   UNL     1      25.966  45.949  50.244  1.00  0.00    -0.106 N 
HETATM   13  N   UNL     1      26.035  45.261  51.393  1.00  0.00    -0.144 NA
HETATM   14  H   UNL     1      25.876  45.447  49.371  1.00  0.00     0.208 HD
HETATM   15  C   UNL     1      26.147  46.249  52.288  1.00  0.00     0.166 A 
HETATM   16  N   UNL     1      26.139  47.510  51.749  1.00  0.00    -0.046 NA
BRANCH  15  17
HETATM   17  C   UNL     1      26.253  46.013  53.753  1.00  0.00     0.087 C 
BRANCH  17  18
HETATM   18  C   UNL     1      27.268  46.939  54.449  1.00  0.00    -0.016 C 
HETATM   19  C   UNL     1      28.273  46.155  55.296  1.00  0.00     0.010 C 
HETATM   20  C   UNL     1      26.532  47.950  55.331  1.00  0.00     0.010 C 
ENDBRANCH  17  18
ENDBRANCH  15  17
ENDBRANCH   8  11
ENDBRANCH   1   7
BRANCH   3  21
HETATM   21  C   UNL     1      19.962  49.688  49.345  1.00  0.00     0.165 A 
HETATM   22  N   UNL     1      19.401  49.846  50.548  1.00  0.00    -0.155 NA
HETATM   23  N   UNL     1      18.267  50.510  50.324  1.00  0.00    -0.275 N 
HETATM   24  H   UNL     1      17.682  50.732  51.121  1.00  0.00     0.189 HD
HETATM   25  C   UNL     1      18.041  50.809  49.013  1.00  0.00     0.065 A 
HETATM   26  C   UNL     1      19.132  50.277  48.327  1.00  0.00     0.040 A 
HETATM   27  C   UNL     1      16.984  51.485  48.391  1.00  0.00     0.051 A 
HETATM   28  C   UNL     1      19.154  50.415  46.921  1.00  0.00     0.019 A 
HETATM   29  C   UNL     1      18.106  51.087  46.272  1.00  0.00     0.020 A 
HETATM   30  C   UNL     1      17.045  51.613  47.002  1.00  0.00     0.013 A 
HETATM   31 BR   UNL     1      15.649  52.515  46.097  1.00  0.00    -0.051 Br
ENDBRANCH   3  21
TORSDOF 5
ENDMDL
MODEL 8
REMARK VINA RESULT:      -8.5      2.493      3.385
REMARK  5 active torsions:
REMARK  status: ('A' for Active; 'I' for Inactive)
REMARK    1  A    between atoms: C_2  and  C_3 
REMARK    2  A    between atoms: C_3  and  C_4 
REMARK    3  A    between atoms: C_8  and  N_9 
REMARK       I    between atoms: N_9  and  C_10 
REMARK    4  A    between atoms: C_10  and  C_11 
REMARK    5  A    between atoms: N_13  and  C_14 
ROOT
HETATM    1  C   UNL     1      24.154  44.909  49.262  1.00  0.00     0.106 C 
HETATM    2  C   UNL     1      23.268  46.068  48.827  1.00  0.00     0.148 C 
HETATM    3  N   UNL     1      23.766  47.210  49.545  1.00  0.00    -0.299 N 
HETATM    4  C   UNL     1      24.487  46.810  50.675  1.00  0.00     0.226 C 
HETATM    5  O   UNL     1      24.976  47.472  51.579  1.00  0.00    -0.273 OA
HETATM    6  C   UNL     1      24.538  45.301  50.680  1.00  0.00     0.119 C 
ENDROOT
BRANCH   1   7
HETATM    7  C   UNL     1      23.408  43.589  49.202  1.00  0.00     0.242 C 
HETATM    8  N   UNL     1      24.008  42.412  49.546  1.00  0.00    -0.156 N 
HETATM    9  H   UNL     1      23.383  41.616  49.534  1.00  0.00     0.187 HD
HETATM   10  O   UNL     1      22.221  43.533  48.863  1.00  0.00    -0.272 OA
BRANCH   8  11
HETATM   11  C   UNL     1      25.340  42.217  49.786  1.00  0.00     0.725 A 
HETATM   12  N   UNL     1      26.278  42.281  48.790  1.00  0.00    -0.106 N 
HETATM   13  N   UNL     1      27.513  42.050  49.257  1.00  0.00    -0.144 NA
HETATM   14  H   UNL     1      26.147  42.457  47.802  1.00  0.00     0.208 HD
HETATM   15  C   UNL     1      27.274  41.871  50.561  1.00  0.00     0.166 A 
HETATM   16  N   UNL     1      25.953  41.969  50.917  1.00  0.00    -0.046 NA
BRANCH  15  17
HETATM   17  C   UNL     1      28.343  41.570  51.551  1.00  0.00     0.087 C 
BRANCH  17  18
HETATM   18  C   UNL     1      28.663  42.755  52.483  1.00  0.00    -0.016 C 
HETATM   19  C   UNL     1      30.121  42.738  52.952  1.00  0.00     0.010 C 
HETATM   20  C   UNL     1      27.733  42.728  53.698  1.00  0.00     0.010 C 
ENDBRANCH  17  18
ENDBRANCH  15  17
ENDBRANCH   8  11
ENDBRANCH   1   7
BRANCH   3  21
HETATM   21  C   UNL     1      23.496  48.545  49.244  1.00  0.00     0.165 A 
HETATM   22  N   UNL     1      24.464  49.434  49.001  1.00  0.00    -0.155 NA
HETATM   23  N   UNL     1      23.834  50.577  48.730  1.00  0.00    -0.275 N 
HETATM   24  H   UNL     1      24.399  51.391  48.517  1.00  0.00     0.189 HD
HETATM   25  C   UNL     1      22.473  50.492  48.778  1.00  0.00     0.065 A 
HETATM   26  C   UNL     1      22.204  49.169  49.122  1.00  0.00     0.040 A 
HETATM   27  C   UNL     1      21.483  51.457  48.555  1.00  0.00     0.051 A 
HETATM   28  C   UNL     1      20.851  48.792  49.273  1.00  0.00     0.019 A 
HETATM   29  C   UNL     1      19.838  49.740  49.058  1.00  0.00     0.020 A 
HETATM   30  C   UNL     1      20.157  51.046  48.702  1.00  0.00     0.013 A 
HETATM   31 BR   UNL     1      18.767  52.299  48.416  1.00  0.00    -0.051 Br
ENDBRANCH   3  21
TORSDOF 5
ENDMDL
MODEL 9
REMARK VINA RESULT:      -8.4      3.767      9.270
REMARK  5 active torsions:
REMARK  status: ('A' for Active; 'I' for Inactive)
REMARK    1  A    between atoms: C_2  and  C_3 
REMARK    2  A    between atoms: C_3  and  C_4 
REMARK    3  A    between atoms: C_8  and  N_9 
REMARK       I    between atoms: N_9  and  C_10 
REMARK    4  A    between atoms: C_10  and  C_11 
REMARK    5  A    between atoms: N_13  and  C_14 
ROOT
HETATM    1  C   UNL     1      25.560  46.625  50.287  1.00  0.00     0.106 C 
HETATM    2  C   UNL     1      26.921  46.028  50.618  1.00  0.00     0.148 C 
HETATM    3  N   UNL     1      26.702  45.222  51.789  1.00  0.00    -0.299 N 
HETATM    4  C   UNL     1      25.545  45.630  52.462  1.00  0.00     0.226 C 
HETATM    5  O   UNL     1      25.082  45.267  53.533  1.00  0.00    -0.273 OA
HETATM    6  C   UNL     1      24.905  46.734  51.655  1.00  0.00     0.119 C 
ENDROOT
BRANCH   1   7
HETATM    7  C   UNL     1      25.697  47.968  49.595  1.00  0.00     0.242 C 
HETATM    8  N   UNL     1      24.618  48.617  49.070  1.00  0.00    -0.156 N 
HETATM    9  H   UNL     1      24.831  49.535  48.703  1.00  0.00     0.187 HD
HETATM   10  O   UNL     1      26.790  48.538  49.504  1.00  0.00    -0.272 OA
BRANCH   8  11
HETATM   11  C   UNL     1      23.359  48.105  48.911  1.00  0.00     0.725 A 
HETATM   12  N   UNL     1      23.138  46.876  48.347  1.00  0.00    -0.106 N 
HETATM   13  N   UNL     1      21.830  46.588  48.287  1.00  0.00    -0.144 NA
HETATM   14  H   UNL     1      23.808  46.213  47.981  1.00  0.00     0.208 HD
HETATM   15  C   UNL     1      21.292  47.673  48.853  1.00  0.00     0.166 A 
HETATM   16  N   UNL     1      22.203  48.621  49.249  1.00  0.00    -0.046 NA
BRANCH  15  17
HETATM   17  C   UNL     1      19.826  47.860  49.029  1.00  0.00     0.087 C 
BRANCH  17  18
HETATM   18  C   UNL     1      19.467  49.059  49.927  1.00  0.00    -0.016 C 
HETATM   19  C   UNL     1      18.622  48.640  51.133  1.00  0.00     0.010 C 
HETATM   20  C   UNL     1      18.713  50.112  49.114  1.00  0.00     0.010 C 
ENDBRANCH  17  18
ENDBRANCH  15  17
ENDBRANCH   8  11
ENDBRANCH   1   7
BRANCH   3  21
HETATM   21  C   UNL     1      27.560  44.236  52.273  1.00  0.00     0.165 A 
HETATM   22  N   UNL     1      27.734  43.068  51.648  1.00  0.00    -0.155 NA
HETATM   23  N   UNL     1      28.631  42.406  52.378  1.00  0.00    -0.275 N 
HETATM   24  H   UNL     1      28.904  41.480  52.070  1.00  0.00     0.189 HD
HETATM   25  C   UNL     1      29.074  43.086  53.475  1.00  0.00     0.065 A 
HETATM   26  C   UNL     1      28.386  44.299  53.451  1.00  0.00     0.040 A 
HETATM   27  C   UNL     1      29.999  42.734  54.465  1.00  0.00     0.051 A 
HETATM   28  C   UNL     1      28.629  45.211  54.502  1.00  0.00     0.019 A 
HETATM   29  C   UNL     1      29.550  44.883  55.509  1.00  0.00     0.020 A 
HETATM   30  C   UNL     1      30.222  43.665  55.481  1.00  0.00     0.013 A 
HETATM   31 BR   UNL     1      31.460  43.253  56.853  1.00  0.00    -0.051 Br
ENDBRANCH   3  21
TORSDOF 5
ENDMDL
MODEL 10
REMARK VINA RESULT:      -8.3      3.212      4.595
REMARK  5 active torsions:
REMARK  status: ('A' for Active; 'I' for Inactive)
REMARK    1  A    between atoms: C_2  and  C_3 
REMARK    2  A    between atoms: C_3  and  C_4 
REMARK    3  A    between atoms: C_8  and  N_9 
REMARK       I    between atoms: N_9  and  C_10 
REMARK    4  A    between atoms: C_10  and  C_11 
REMARK    5  A    between atoms: N_13  and  C_14 
ROOT
HETATM    1  C   UNL     1      25.868  46.514  50.562  1.00  0.00     0.106 C 
HETATM    2  C   UNL     1      24.370  46.735  50.411  1.00  0.00     0.148 C 
HETATM    3  N   UNL     1      24.239  47.733  49.385  1.00  0.00    -0.299 N 
HETATM    4  C   UNL     1      25.425  48.465  49.250  1.00  0.00     0.226 C 
HETATM    5  O   UNL     1      25.678  49.446  48.568  1.00  0.00    -0.273 OA
HETATM    6  C   UNL     1      26.442  47.875  50.198  1.00  0.00     0.119 C 
ENDROOT
BRANCH   1   7
HETATM    7  C   UNL     1      26.227  46.087  51.973  1.00  0.00     0.242 C 
HETATM    8  N   UNL     1      26.564  44.798  52.267  1.00  0.00    -0.156 N 
HETATM    9  H   UNL     1      26.852  44.660  53.227  1.00  0.00     0.187 HD
HETATM   10  O   UNL     1      26.251  46.898  52.906  1.00  0.00    -0.272 OA
BRANCH   8  11
HETATM   11  C   UNL     1      26.443  43.716  51.439  1.00  0.00     0.725 A 
HETATM   12  N   UNL     1      25.419  42.815  51.561  1.00  0.00    -0.106 N 
HETATM   13  N   UNL     1      25.510  41.836  50.648  1.00  0.00    -0.144 NA
HETATM   14  H   UNL     1      24.659  42.800  52.229  1.00  0.00     0.208 HD
HETATM   15  C   UNL     1      26.605  42.203  49.974  1.00  0.00     0.166 A 
HETATM   16  N   UNL     1      27.199  43.352  50.432  1.00  0.00    -0.046 NA
BRANCH  15  17
HETATM   17  C   UNL     1      27.156  41.427  48.831  1.00  0.00     0.087 C 
BRANCH  17  18
HETATM   18  C   UNL     1      27.400  39.942  49.161  1.00  0.00    -0.016 C 
HETATM   19  C   UNL     1      28.448  39.764  50.263  1.00  0.00     0.010 C 
HETATM   20  C   UNL     1      27.847  39.195  47.903  1.00  0.00     0.010 C 
ENDBRANCH  17  18
ENDBRANCH  15  17
ENDBRANCH   8  11
ENDBRANCH   1   7
BRANCH   3  21
HETATM   21  C   UNL     1      23.076  48.030  48.677  1.00  0.00     0.165 A 
HETATM   22  N   UNL     1      22.565  47.202  47.759  1.00  0.00    -0.155 NA
HETATM   23  N   UNL     1      21.456  47.799  47.323  1.00  0.00    -0.275 N 
HETATM   24  H   UNL     1      20.913  47.327  46.609  1.00  0.00     0.189 HD
HETATM   25  C   UNL     1      21.195  49.000  47.915  1.00  0.00     0.065 A 
HETATM   26  C   UNL     1      22.244  49.197  48.811  1.00  0.00     0.040 A 
HETATM   27  C   UNL     1      20.145  49.908  47.731  1.00  0.00     0.051 A 
HETATM   28  C   UNL     1      22.252  50.396  49.558  1.00  0.00     0.019 A 
HETATM   29  C   UNL     1      21.213  51.325  49.393  1.00  0.00     0.020 A 
HETATM   30  C   UNL     1      20.180  51.076  48.495  1.00  0.00     0.013 A 
HETATM   31 BR   UNL     1      18.792  52.349  48.296  1.00  0.00    -0.051 Br
ENDBRANCH   3  21
TORSDOF 5
ENDMDL
