MODEL 1
REMARK VINA RESULT:     -10.8      0.000      0.000
REMARK  7 active torsions:
REMARK  status: ('A' for Active; 'I' for Inactive)
REMARK    1  A    between atoms: C_3  and  O_4 
REMARK    2  A    between atoms: C_9  and  N_10 
REMARK    3  A    between atoms: C_13  and  C_14 
REMARK       I    between atoms: C_14  and  N_15 
REMARK    4  A    between atoms: N_15  and  C_16 
REMARK    5  A    between atoms: C_16  and  C_17 
REMARK    6  A    between atoms: C_17  and  N_18 
REMARK       I    between atoms: N_18  and  C_19 
REMARK    7  A    between atoms: C_19  and  C_20 
ROOT
HETATM    1  N   UNL     1      27.152  44.588  53.120  1.00  0.00    -0.268 NA
HETATM    2  C   UNL     1      27.399  44.004  51.793  1.00  0.00     0.098 C 
HETATM    3  C   UNL     1      26.124  44.081  50.955  1.00  0.00     0.029 C 
HETATM    4  C   UNL     1      25.595  45.516  50.849  1.00  0.00     0.080 C 
HETATM    5  C   UNL     1      25.456  46.130  52.248  1.00  0.00     0.029 C 
HETATM    6  C   UNL     1      26.738  46.000  53.076  1.00  0.00     0.098 C 
ENDROOT
BRANCH   4   7
HETATM    7  C   UNL     1      26.455  46.393  49.940  1.00  0.00     0.221 C 
HETATM    8  N   UNL     1      26.190  47.739  50.036  1.00  0.00    -0.359 N 
HETATM    9  H   UNL     1      25.428  48.076  50.607  1.00  0.00     0.162 HD
HETATM   10  O   UNL     1      27.337  45.949  49.212  1.00  0.00    -0.273 OA
BRANCH   8  11
HETATM   11  C   UNL     1      26.913  48.717  49.240  1.00  0.00     0.142 C 
BRANCH  11  12
HETATM   12  C   UNL     1      25.984  49.688  48.499  1.00  0.00     0.142 C 
BRANCH  12  13
HETATM   13  N   UNL     1      24.601  49.643  48.956  1.00  0.00    -0.355 N 
HETATM   14  C   UNL     1      23.567  50.029  48.128  1.00  0.00     0.251 C 
HETATM   15  O   UNL     1      23.750  50.528  47.023  1.00  0.00    -0.268 OA
HETATM   16  H   UNL     1      24.411  49.065  49.763  1.00  0.00     0.162 HD
BRANCH  14  17
HETATM   17  C   UNL     1      22.177  49.787  48.612  1.00  0.00     0.033 A 
HETATM   18  C   UNL     1      21.266  50.824  48.846  1.00  0.00     0.036 A 
HETATM   19  C   UNL     1      19.982  50.522  49.302  1.00  0.00     0.012 A 
HETATM   20 BR   UNL     1      18.753  51.923  49.630  1.00  0.00    -0.051 Br
HETATM   21  C   UNL     1      19.591  49.201  49.519  1.00  0.00     0.019 A 
HETATM   22  C   UNL     1      20.490  48.166  49.274  1.00  0.00     0.002 A 
HETATM   23  C   UNL     1      21.777  48.458  48.819  1.00  0.00     0.017 A 
ENDBRANCH  14  17
ENDBRANCH  12  13
ENDBRANCH  11  12
ENDBRANCH   8  11
ENDBRANCH   4   7
BRANCH   1  24
HETATM   24  C   UNL     1      28.230  44.358  54.008  1.00  0.00     0.106 A 
HETATM   25  N   UNL     1      28.318  45.069  55.154  1.00  0.00    -0.233 NA
HETATM   26  C   UNL     1      29.356  44.887  56.002  1.00  0.00     0.102 A 
HETATM   27  C   UNL     1      29.471  45.620  57.193  1.00  0.00     0.095 A 
HETATM   28  C   UNL     1      30.376  43.956  55.723  1.00  0.00    -0.004 A 
HETATM   29  C   UNL     1      30.539  45.444  58.080  1.00  0.00     0.039 A 
HETATM   30  C   UNL     1      31.529  44.513  57.788  1.00  0.00     0.004 A 
HETATM   31  C   UNL     1      31.450  43.771  56.613  1.00  0.00     0.014 A 
HETATM   32  C   UNL     1      30.294  43.231  54.534  1.00  0.00     0.017 A 
HETATM   33  C   UNL     1      29.223  43.444  53.670  1.00  0.00     0.045 A 
BRANCH  27  34
HETATM   34  O   UNL     1      28.503  46.550  57.502  1.00  0.00    -0.358 OA
HETATM   35  H   UNL     1      28.907  47.273  58.004  1.00  0.00     0.218 HD
ENDBRANCH  27  34
ENDBRANCH   1  24
TORSDOF 7
ENDMDL
MODEL 2
REMARK VINA RESULT:     -10.1      1.809      2.247
REMARK  7 active torsions:
REMARK  status: ('A' for Active; 'I' for Inactive)
REMARK    1  A    between atoms: C_3  and  O_4 
REMARK    2  A    between atoms: C_9  and  N_10 
REMARK    3  A    between atoms: C_13  and  C_14 
REMARK       I    between atoms: C_14  and  N_15 
REMARK    4  A    between atoms: N_15  and  C_16 
REMARK    5  A    between atoms: C_16  and  C_17 
REMARK    6  A    between atoms: C_17  and  N_18 
REMARK       I    between atoms: N_18  and  C_19 
REMARK    7  A    between atoms: C_19  and  C_20 
ROOT
HETATM    1  N   UNL     1      26.947  43.630  51.952  1.00  0.00    -0.268 NA
HETATM    2  C   UNL     1      27.476  44.060  50.649  1.00  0.00     0.098 C 
HETATM    3  C   UNL     1      26.440  43.787  49.560  1.00  0.00     0.029 C 
HETATM    4  C   UNL     1      25.096  44.454  49.869  1.00  0.00     0.080 C 
HETATM    5  C   UNL     1      24.629  44.070  51.280  1.00  0.00     0.029 C 
HETATM    6  C   UNL     1      25.705  44.318  52.341  1.00  0.00     0.098 C 
ENDROOT
BRANCH   4   7
HETATM    7  C   UNL     1      25.139  45.972  49.692  1.00  0.00     0.221 C 
HETATM    8  N   UNL     1      23.928  46.597  49.869  1.00  0.00    -0.359 N 
HETATM    9  H   UNL     1      23.086  46.059  50.019  1.00  0.00     0.162 HD
HETATM   10  O   UNL     1      26.169  46.593  49.451  1.00  0.00    -0.273 OA
BRANCH   8  11
HETATM   11  C   UNL     1      23.787  48.038  49.735  1.00  0.00     0.142 C 
BRANCH  11  12
HETATM   12  C   UNL     1      23.132  48.452  48.410  1.00  0.00     0.142 C 
BRANCH  12  13
HETATM   13  N   UNL     1      21.847  49.118  48.571  1.00  0.00    -0.355 N 
HETATM   14  C   UNL     1      21.761  50.494  48.613  1.00  0.00     0.251 C 
HETATM   15  O   UNL     1      22.747  51.223  48.632  1.00  0.00    -0.268 OA
HETATM   16  H   UNL     1      21.025  48.568  48.362  1.00  0.00     0.162 HD
BRANCH  14  17
HETATM   17  C   UNL     1      20.395  51.095  48.605  1.00  0.00     0.033 A 
HETATM   18  C   UNL     1      19.643  51.246  47.434  1.00  0.00     0.036 A 
HETATM   19  C   UNL     1      18.372  51.821  47.504  1.00  0.00     0.012 A 
HETATM   20 BR   UNL     1      17.358  52.038  45.921  1.00  0.00    -0.051 Br
HETATM   21  C   UNL     1      17.839  52.236  48.723  1.00  0.00     0.019 A 
HETATM   22  C   UNL     1      18.579  52.073  49.892  1.00  0.00     0.002 A 
HETATM   23  C   UNL     1      19.851  51.502  49.833  1.00  0.00     0.017 A 
ENDBRANCH  14  17
ENDBRANCH  12  13
ENDBRANCH  11  12
ENDBRANCH   8  11
ENDBRANCH   4   7
BRANCH   1  24
HETATM   24  C   UNL     1      27.936  43.665  52.962  1.00  0.00     0.106 A 
HETATM   25  N   UNL     1      27.901  44.638  53.900  1.00  0.00    -0.233 NA
HETATM   26  C   UNL     1      28.855  44.709  54.858  1.00  0.00     0.102 A 
HETATM   27  C   UNL     1      28.842  45.715  55.836  1.00  0.00     0.095 A 
HETATM   28  C   UNL     1      29.911  43.778  54.911  1.00  0.00    -0.004 A 
HETATM   29  C   UNL     1      29.820  45.803  56.833  1.00  0.00     0.039 A 
HETATM   30  C   UNL     1      30.848  44.868  56.871  1.00  0.00     0.004 A 
HETATM   31  C   UNL     1      30.895  43.858  55.913  1.00  0.00     0.014 A 
HETATM   32  C   UNL     1      29.956  42.782  53.936  1.00  0.00     0.017 A 
HETATM   33  C   UNL     1      28.971  42.735  52.952  1.00  0.00     0.045 A 
BRANCH  27  34
HETATM   34  O   UNL     1      27.834  46.653  55.817  1.00  0.00    -0.358 OA
HETATM   35  H   UNL     1      28.218  47.527  55.650  1.00  0.00     0.218 HD
ENDBRANCH  27  34
ENDBRANCH   1  24
TORSDOF 7
ENDMDL
MODEL 3
REMARK VINA RESULT:      -9.9     12.316     13.710
REMARK  7 active torsions:
REMARK  status: ('A' for Active; 'I' for Inactive)
REMARK    1  A    between atoms: C_3  and  O_4 
REMARK    2  A    between atoms: C_9  and  N_10 
REMARK    3  A    between atoms: C_13  and  C_14 
REMARK       I    between atoms: C_14  and  N_15 
REMARK    4  A    between atoms: N_15  and  C_16 
REMARK    5  A    between atoms: C_16  and  C_17 
REMARK    6  A    between atoms: C_17  and  N_18 
REMARK       I    between atoms: N_18  and  C_19 
REMARK    7  A    between atoms: C_19  and  C_20 
ROOT
HETATM    1  N   UNL     1      30.914  48.291  41.464  1.00  0.00    -0.268 NA
HETATM    2  C   UNL     1      31.217  47.825  40.103  1.00  0.00     0.098 C 
HETATM    3  C   UNL     1      30.296  46.660  39.744  1.00  0.00     0.029 C 
HETATM    4  C   UNL     1      28.817  47.033  39.895  1.00  0.00     0.080 C 
HETATM    5  C   UNL     1      28.562  47.618  41.291  1.00  0.00     0.029 C 
HETATM    6  C   UNL     1      29.528  48.756  41.635  1.00  0.00     0.098 C 
ENDROOT
BRANCH   4   7
HETATM    7  C   UNL     1      28.335  47.982  38.798  1.00  0.00     0.221 C 
HETATM    8  N   UNL     1      26.979  48.213  38.805  1.00  0.00    -0.359 N 
HETATM    9  H   UNL     1      26.374  47.715  39.443  1.00  0.00     0.162 HD
HETATM   10  O   UNL     1      29.089  48.526  37.999  1.00  0.00    -0.273 OA
BRANCH   8  11
HETATM   11  C   UNL     1      26.350  49.087  37.829  1.00  0.00     0.142 C 
BRANCH  11  12
HETATM   12  C   UNL     1      26.184  50.526  38.338  1.00  0.00     0.142 C 
BRANCH  12  13
HETATM   13  N   UNL     1      27.445  51.213  38.585  1.00  0.00    -0.355 N 
HETATM   14  C   UNL     1      27.878  51.462  39.871  1.00  0.00     0.251 C 
HETATM   15  O   UNL     1      27.192  51.229  40.861  1.00  0.00    -0.268 OA
HETATM   16  H   UNL     1      28.104  51.235  37.818  1.00  0.00     0.162 HD
BRANCH  14  17
HETATM   17  C   UNL     1      29.255  52.011  40.035  1.00  0.00     0.033 A 
HETATM   18  C   UNL     1      30.351  51.534  39.307  1.00  0.00     0.036 A 
HETATM   19  C   UNL     1      31.613  52.095  39.517  1.00  0.00     0.012 A 
HETATM   20 BR   UNL     1      33.098  51.442  38.544  1.00  0.00    -0.051 Br
HETATM   21  C   UNL     1      31.793  53.131  40.433  1.00  0.00     0.019 A 
HETATM   22  C   UNL     1      30.701  53.619  41.147  1.00  0.00     0.002 A 
HETATM   23  C   UNL     1      29.437  53.063  40.946  1.00  0.00     0.017 A 
ENDBRANCH  14  17
ENDBRANCH  12  13
ENDBRANCH  11  12
ENDBRANCH   8  11
ENDBRANCH   4   7
BRANCH   1  24
HETATM   24  C   UNL     1      31.870  49.226  41.927  1.00  0.00     0.106 A 
HETATM   25  N   UNL     1      33.113  49.232  41.397  1.00  0.00    -0.233 NA
HETATM   26  C   UNL     1      34.052  50.097  41.846  1.00  0.00     0.102 A 
HETATM   27  C   UNL     1      35.351  50.115  41.317  1.00  0.00     0.095 A 
HETATM   28  C   UNL     1      33.768  51.017  42.875  1.00  0.00    -0.004 A 
HETATM   29  C   UNL     1      36.333  51.002  41.770  1.00  0.00     0.039 A 
HETATM   30  C   UNL     1      36.028  51.907  42.780  1.00  0.00     0.004 A 
HETATM   31  C   UNL     1      34.749  51.915  43.333  1.00  0.00     0.014 A 
HETATM   32  C   UNL     1      32.489  51.003  43.432  1.00  0.00     0.017 A 
HETATM   33  C   UNL     1      31.543  50.096  42.963  1.00  0.00     0.045 A 
BRANCH  27  34
HETATM   34  O   UNL     1      35.677  49.225  40.316  1.00  0.00    -0.358 OA
HETATM   35  H   UNL     1      36.638  49.222  40.197  1.00  0.00     0.218 HD
ENDBRANCH  27  34
ENDBRANCH   1  24
TORSDOF 7
ENDMDL
MODEL 4
REMARK VINA RESULT:      -9.7      3.633     10.618
REMARK  7 active torsions:
REMARK  status: ('A' for Active; 'I' for Inactive)
REMARK    1  A    between atoms: C_3  and  O_4 
REMARK    2  A    between atoms: C_9  and  N_10 
REMARK    3  A    between atoms: C_13  and  C_14 
REMARK       I    between atoms: C_14  and  N_15 
REMARK    4  A    between atoms: N_15  and  C_16 
REMARK    5  A    between atoms: C_16  and  C_17 
REMARK    6  A    between atoms: C_17  and  N_18 
REMARK       I    between atoms: N_18  and  C_19 
REMARK    7  A    between atoms: C_19  and  C_20 
ROOT
HETATM    1  N   UNL     1      23.475  47.619  48.664  1.00  0.00    -0.268 NA
HETATM    2  C   UNL     1      22.740  46.350  48.770  1.00  0.00     0.098 C 
HETATM    3  C   UNL     1      23.696  45.183  48.529  1.00  0.00     0.029 C 
HETATM    4  C   UNL     1      24.896  45.221  49.483  1.00  0.00     0.080 C 
HETATM    5  C   UNL     1      25.570  46.598  49.426  1.00  0.00     0.029 C 
HETATM    6  C   UNL     1      24.578  47.746  49.631  1.00  0.00     0.098 C 
ENDROOT
BRANCH   4   7
HETATM    7  C   UNL     1      24.519  44.844  50.915  1.00  0.00     0.221 C 
HETATM    8  N   UNL     1      25.273  45.468  51.881  1.00  0.00    -0.359 N 
HETATM    9  H   UNL     1      26.056  46.054  51.627  1.00  0.00     0.162 HD
HETATM   10  O   UNL     1      23.599  44.082  51.192  1.00  0.00    -0.273 OA
BRANCH   8  11
HETATM   11  C   UNL     1      25.052  45.223  53.297  1.00  0.00     0.142 C 
BRANCH  11  12
HETATM   12  C   UNL     1      25.800  46.215  54.198  1.00  0.00     0.142 C 
BRANCH  12  13
HETATM   13  N   UNL     1      26.907  45.622  54.935  1.00  0.00    -0.355 N 
HETATM   14  C   UNL     1      27.969  45.039  54.276  1.00  0.00     0.251 C 
HETATM   15  O   UNL     1      27.994  44.886  53.059  1.00  0.00    -0.268 OA
HETATM   16  H   UNL     1      27.007  45.903  55.901  1.00  0.00     0.162 HD
BRANCH  14  17
HETATM   17  C   UNL     1      29.137  44.613  55.101  1.00  0.00     0.033 A 
HETATM   18  C   UNL     1      29.493  45.251  56.295  1.00  0.00     0.036 A 
HETATM   19  C   UNL     1      30.602  44.798  57.012  1.00  0.00     0.012 A 
HETATM   20 BR   UNL     1      31.092  45.668  58.620  1.00  0.00    -0.051 Br
HETATM   21  C   UNL     1      31.352  43.713  56.562  1.00  0.00     0.019 A 
HETATM   22  C   UNL     1      30.992  43.066  55.382  1.00  0.00     0.002 A 
HETATM   23  C   UNL     1      29.887  43.513  54.656  1.00  0.00     0.017 A 
ENDBRANCH  14  17
ENDBRANCH  12  13
ENDBRANCH  11  12
ENDBRANCH   8  11
ENDBRANCH   4   7
BRANCH   1  24
HETATM   24  C   UNL     1      22.606  48.736  48.672  1.00  0.00     0.106 A 
HETATM   25  N   UNL     1      21.470  48.695  49.403  1.00  0.00    -0.233 NA
HETATM   26  C   UNL     1      20.608  49.739  49.400  1.00  0.00     0.102 A 
HETATM   27  C   UNL     1      19.420  49.715  50.145  1.00  0.00     0.095 A 
HETATM   28  C   UNL     1      20.865  50.898  48.642  1.00  0.00    -0.004 A 
HETATM   29  C   UNL     1      18.519  50.786  50.153  1.00  0.00     0.039 A 
HETATM   30  C   UNL     1      18.796  51.923  49.403  1.00  0.00     0.004 A 
HETATM   31  C   UNL     1      19.965  51.980  48.648  1.00  0.00     0.014 A 
HETATM   32  C   UNL     1      22.030  50.936  47.876  1.00  0.00     0.017 A 
HETATM   33  C   UNL     1      22.895  49.845  47.884  1.00  0.00     0.045 A 
BRANCH  27  34
HETATM   34  O   UNL     1      19.122  48.597  50.893  1.00  0.00    -0.358 OA
HETATM   35  H   UNL     1      19.136  48.833  51.833  1.00  0.00     0.218 HD
ENDBRANCH  27  34
ENDBRANCH   1  24
TORSDOF 7
ENDMDL
MODEL 5
REMARK VINA RESULT:      -9.7      2.644      3.579
REMARK  7 active torsions:
REMARK  status: ('A' for Active; 'I' for Inactive)
REMARK    1  A    between atoms: C_3  and  O_4 
REMARK    2  A    between atoms: C_9  and  N_10 
REMARK    3  A    between atoms: C_13  and  C_14 
REMARK       I    between atoms: C_14  and  N_15 
REMARK    4  A    between atoms: N_15  and  C_16 
REMARK    5  A    between atoms: C_16  and  C_17 
REMARK    6  A    between atoms: C_17  and  N_18 
REMARK       I    between atoms: N_18  and  C_19 
REMARK    7  A    between atoms: C_19  and  C_20 
ROOT
HETATM    1  N   UNL     1      28.024  43.176  51.639  1.00  0.00    -0.268 NA
HETATM    2  C   UNL     1      27.362  44.384  51.125  1.00  0.00     0.098 C 
HETATM    3  C   UNL     1      26.822  44.114  49.722  1.00  0.00     0.029 C 
HETATM    4  C   UNL     1      25.883  42.903  49.694  1.00  0.00     0.080 C 
HETATM    5  C   UNL     1      26.568  41.691  50.339  1.00  0.00     0.029 C 
HETATM    6  C   UNL     1      27.134  42.006  51.726  1.00  0.00     0.098 C 
ENDROOT
BRANCH   4   7
HETATM    7  C   UNL     1      24.532  43.191  50.348  1.00  0.00     0.221 C 
HETATM    8  N   UNL     1      23.550  43.586  49.471  1.00  0.00    -0.359 N 
HETATM    9  H   UNL     1      23.762  43.742  48.495  1.00  0.00     0.162 HD
HETATM   10  O   UNL     1      24.321  43.049  51.549  1.00  0.00    -0.273 OA
BRANCH   8  11
HETATM   11  C   UNL     1      22.206  43.903  49.924  1.00  0.00     0.142 C 
BRANCH  11  12
HETATM   12  C   UNL     1      21.442  44.801  48.941  1.00  0.00     0.142 C 
BRANCH  12  13
HETATM   13  N   UNL     1      22.074  46.093  48.711  1.00  0.00    -0.355 N 
HETATM   14  C   UNL     1      21.317  47.231  48.526  1.00  0.00     0.251 C 
HETATM   15  O   UNL     1      20.094  47.210  48.433  1.00  0.00    -0.268 OA
HETATM   16  H   UNL     1      23.047  46.173  48.975  1.00  0.00     0.162 HD
BRANCH  14  17
HETATM   17  C   UNL     1      22.041  48.534  48.471  1.00  0.00     0.033 A 
HETATM   18  C   UNL     1      23.437  48.621  48.394  1.00  0.00     0.036 A 
HETATM   19  C   UNL     1      24.046  49.877  48.349  1.00  0.00     0.012 A 
HETATM   20 BR   UNL     1      25.932  49.996  48.258  1.00  0.00    -0.051 Br
HETATM   21  C   UNL     1      23.284  51.044  48.370  1.00  0.00     0.019 A 
HETATM   22  C   UNL     1      21.894  50.961  48.431  1.00  0.00     0.002 A 
HETATM   23  C   UNL     1      21.276  49.711  48.478  1.00  0.00     0.017 A 
ENDBRANCH  14  17
ENDBRANCH  12  13
ENDBRANCH  11  12
ENDBRANCH   8  11
ENDBRANCH   4   7
BRANCH   1  24
HETATM   24  C   UNL     1      28.722  43.427  52.844  1.00  0.00     0.106 A 
HETATM   25  N   UNL     1      28.306  44.416  53.665  1.00  0.00    -0.233 NA
HETATM   26  C   UNL     1      28.977  44.695  54.807  1.00  0.00     0.102 A 
HETATM   27  C   UNL     1      28.567  45.722  55.670  1.00  0.00     0.095 A 
HETATM   28  C   UNL     1      30.125  43.967  55.178  1.00  0.00    -0.004 A 
HETATM   29  C   UNL     1      29.250  46.023  56.854  1.00  0.00     0.039 A 
HETATM   30  C   UNL     1      30.375  45.286  57.204  1.00  0.00     0.004 A 
HETATM   31  C   UNL     1      30.813  44.261  56.369  1.00  0.00     0.014 A 
HETATM   32  C   UNL     1      30.563  42.955  54.325  1.00  0.00     0.017 A 
HETATM   33  C   UNL     1      29.865  42.694  53.149  1.00  0.00     0.045 A 
BRANCH  27  34
HETATM   34  O   UNL     1      27.456  46.467  55.342  1.00  0.00    -0.358 OA
HETATM   35  H   UNL     1      27.478  46.669  54.395  1.00  0.00     0.218 HD
ENDBRANCH  27  34
ENDBRANCH   1  24
TORSDOF 7
ENDMDL
MODEL 6
REMARK VINA RESULT:      -9.5      3.735     10.481
REMARK  7 active torsions:
REMARK  status: ('A' for Active; 'I' for Inactive)
REMARK    1  A    between atoms: C_3  and  O_4 
REMARK    2  A    between atoms: C_9  and  N_10 
REMARK    3  A    between atoms: C_13  and  C_14 
REMARK       I    between atoms: C_14  and  N_15 
REMARK    4  A    between atoms: N_15  and  C_16 
REMARK    5  A    between atoms: C_16  and  C_17 
REMARK    6  A    between atoms: C_17  and  N_18 
REMARK       I    between atoms: N_18  and  C_19 
REMARK    7  A    between atoms: C_19  and  C_20 
ROOT
HETATM    1  N   UNL     1      24.462  48.661  49.824  1.00  0.00    -0.268 NA
HETATM    2  C   UNL     1      25.569  48.399  48.892  1.00  0.00     0.098 C 
HETATM    3  C   UNL     1      26.872  48.248  49.675  1.00  0.00     0.029 C 
HETATM    4  C   UNL     1      26.771  47.159  50.749  1.00  0.00     0.080 C 
HETATM    5  C   UNL     1      25.541  47.405  51.633  1.00  0.00     0.029 C 
HETATM    6  C   UNL     1      24.260  47.592  50.816  1.00  0.00     0.098 C 
ENDROOT
BRANCH   4   7
HETATM    7  C   UNL     1      26.758  45.750  50.158  1.00  0.00     0.221 C 
HETATM    8  N   UNL     1      25.950  44.863  50.828  1.00  0.00    -0.359 N 
HETATM    9  H   UNL     1      25.484  45.132  51.683  1.00  0.00     0.162 HD
HETATM   10  O   UNL     1      27.383  45.437  49.150  1.00  0.00    -0.273 OA
BRANCH   8  11
HETATM   11  C   UNL     1      25.822  43.478  50.403  1.00  0.00     0.142 C 
BRANCH  11  12
HETATM   12  C   UNL     1      26.664  42.514  51.250  1.00  0.00     0.142 C 
BRANCH  12  13
HETATM   13  N   UNL     1      27.201  43.113  52.465  1.00  0.00    -0.355 N 
HETATM   14  C   UNL     1      28.496  42.863  52.867  1.00  0.00     0.251 C 
HETATM   15  O   UNL     1      29.224  42.051  52.303  1.00  0.00    -0.268 OA
HETATM   16  H   UNL     1      26.707  43.917  52.827  1.00  0.00     0.162 HD
BRANCH  14  17
HETATM   17  C   UNL     1      29.018  43.650  54.022  1.00  0.00     0.033 A 
HETATM   18  C   UNL     1      30.046  43.186  54.851  1.00  0.00     0.036 A 
HETATM   19  C   UNL     1      30.480  43.978  55.916  1.00  0.00     0.012 A 
HETATM   20 BR   UNL     1      31.862  43.348  57.045  1.00  0.00    -0.051 Br
HETATM   21  C   UNL     1      29.911  45.227  56.159  1.00  0.00     0.019 A 
HETATM   22  C   UNL     1      28.898  45.698  55.327  1.00  0.00     0.002 A 
HETATM   23  C   UNL     1      28.455  44.913  54.261  1.00  0.00     0.017 A 
ENDBRANCH  14  17
ENDBRANCH  12  13
ENDBRANCH  11  12
ENDBRANCH   8  11
ENDBRANCH   4   7
BRANCH   1  24
HETATM   24  C   UNL     1      23.272  49.014  49.145  1.00  0.00     0.106 A 
HETATM   25  N   UNL     1      22.184  48.219  49.242  1.00  0.00    -0.233 NA
HETATM   26  C   UNL     1      21.045  48.521  48.577  1.00  0.00     0.102 A 
HETATM   27  C   UNL     1      19.906  47.706  48.657  1.00  0.00     0.095 A 
HETATM   28  C   UNL     1      20.953  49.669  47.766  1.00  0.00    -0.004 A 
HETATM   29  C   UNL     1      18.721  48.004  47.975  1.00  0.00     0.039 A 
HETATM   30  C   UNL     1      18.651  49.147  47.187  1.00  0.00     0.004 A 
HETATM   31  C   UNL     1      19.764  49.977  47.081  1.00  0.00     0.014 A 
HETATM   32  C   UNL     1      22.080  50.484  47.653  1.00  0.00     0.017 A 
HETATM   33  C   UNL     1      23.245  50.146  48.337  1.00  0.00     0.045 A 
BRANCH  27  34
HETATM   34  O   UNL     1      19.953  46.567  49.431  1.00  0.00    -0.358 OA
HETATM   35  H   UNL     1      19.139  46.059  49.296  1.00  0.00     0.218 HD
ENDBRANCH  27  34
ENDBRANCH   1  24
TORSDOF 7
ENDMDL
MODEL 7
REMARK VINA RESULT:      -9.4     12.678     14.212
REMARK  7 active torsions:
REMARK  status: ('A' for Active; 'I' for Inactive)
REMARK    1  A    between atoms: C_3  and  O_4 
REMARK    2  A    between atoms: C_9  and  N_10 
REMARK    3  A    between atoms: C_13  and  C_14 
REMARK       I    between atoms: C_14  and  N_15 
REMARK    4  A    between atoms: N_15  and  C_16 
REMARK    5  A    between atoms: C_16  and  C_17 
REMARK    6  A    between atoms: C_17  and  N_18 
REMARK       I    between atoms: N_18  and  C_19 
REMARK    7  A    between atoms: C_19  and  C_20 
ROOT
HETATM    1  N   UNL     1      29.388  46.977  39.032  1.00  0.00    -0.268 NA
HETATM    2  C   UNL     1      28.525  47.523  37.974  1.00  0.00     0.098 C 
HETATM    3  C   UNL     1      27.635  46.414  37.416  1.00  0.00     0.029 C 
HETATM    4  C   UNL     1      26.814  45.732  38.516  1.00  0.00     0.080 C 
HETATM    5  C   UNL     1      27.736  45.275  39.654  1.00  0.00     0.029 C 
HETATM    6  C   UNL     1      28.643  46.399  40.162  1.00  0.00     0.098 C 
ENDROOT
BRANCH   4   7
HETATM    7  C   UNL     1      25.683  46.617  39.039  1.00  0.00     0.221 C 
HETATM    8  N   UNL     1      24.969  47.263  38.057  1.00  0.00    -0.359 N 
HETATM    9  H   UNL     1      25.249  47.200  37.089  1.00  0.00     0.162 HD
HETATM   10  O   UNL     1      25.402  46.720  40.229  1.00  0.00    -0.273 OA
BRANCH   8  11
HETATM   11  C   UNL     1      23.860  48.147  38.378  1.00  0.00     0.142 C 
BRANCH  11  12
HETATM   12  C   UNL     1      24.273  49.625  38.432  1.00  0.00     0.142 C 
BRANCH  12  13
HETATM   13  N   UNL     1      25.399  49.889  39.317  1.00  0.00    -0.355 N 
HETATM   14  C   UNL     1      26.595  50.365  38.821  1.00  0.00     0.251 C 
HETATM   15  O   UNL     1      26.818  50.485  37.620  1.00  0.00    -0.268 OA
HETATM   16  H   UNL     1      25.187  49.988  40.300  1.00  0.00     0.162 HD
BRANCH  14  17
HETATM   17  C   UNL     1      27.633  50.772  39.811  1.00  0.00     0.033 A 
HETATM   18  C   UNL     1      28.365  51.960  39.696  1.00  0.00     0.036 A 
HETATM   19  C   UNL     1      29.324  52.274  40.662  1.00  0.00     0.012 A 
HETATM   20 BR   UNL     1      30.323  53.872  40.500  1.00  0.00    -0.051 Br
HETATM   21  C   UNL     1      29.555  51.425  41.744  1.00  0.00     0.019 A 
HETATM   22  C   UNL     1      28.818  50.250  41.870  1.00  0.00     0.002 A 
HETATM   23  C   UNL     1      27.859  49.927  40.909  1.00  0.00     0.017 A 
ENDBRANCH  14  17
ENDBRANCH  12  13
ENDBRANCH  11  12
ENDBRANCH   8  11
ENDBRANCH   4   7
BRANCH   1  24
HETATM   24  C   UNL     1      30.375  47.905  39.440  1.00  0.00     0.106 A 
HETATM   25  N   UNL     1      30.613  49.003  38.690  1.00  0.00    -0.233 NA
HETATM   26  C   UNL     1      31.574  49.888  39.045  1.00  0.00     0.102 A 
HETATM   27  C   UNL     1      31.843  51.031  38.277  1.00  0.00     0.095 A 
HETATM   28  C   UNL     1      32.354  49.697  40.202  1.00  0.00    -0.004 A 
HETATM   29  C   UNL     1      32.832  51.955  38.630  1.00  0.00     0.039 A 
HETATM   30  C   UNL     1      33.585  51.750  39.781  1.00  0.00     0.004 A 
HETATM   31  C   UNL     1      33.348  50.624  40.565  1.00  0.00     0.014 A 
HETATM   32  C   UNL     1      32.119  48.557  40.970  1.00  0.00     0.017 A 
HETATM   33  C   UNL     1      31.134  47.653  40.579  1.00  0.00     0.045 A 
BRANCH  27  34
HETATM   34  O   UNL     1      31.111  51.253  37.131  1.00  0.00    -0.358 OA
HETATM   35  H   UNL     1      30.574  52.051  37.248  1.00  0.00     0.218 HD
ENDBRANCH  27  34
ENDBRANCH   1  24
TORSDOF 7
ENDMDL
MODEL 8
REMARK VINA RESULT:      -9.3      4.500     10.389
REMARK  7 active torsions:
REMARK  status: ('A' for Active; 'I' for Inactive)
REMARK    1  A    between atoms: C_3  and  O_4 
REMARK    2  A    between atoms: C_9  and  N_10 
REMARK    3  A    between atoms: C_13  and  C_14 
REMARK       I    between atoms: C_14  and  N_15 
REMARK    4  A    between atoms: N_15  and  C_16 
REMARK    5  A    between atoms: C_16  and  C_17 
REMARK    6  A    between atoms: C_17  and  N_18 
REMARK       I    between atoms: N_18  and  C_19 
REMARK    7  A    between atoms: C_19  and  C_20 
ROOT
HETATM    1  N   UNL     1      23.653  47.748  48.919  1.00  0.00    -0.268 NA
HETATM    2  C   UNL     1      23.027  46.423  49.038  1.00  0.00     0.098 C 
HETATM    3  C   UNL     1      24.075  45.338  48.798  1.00  0.00     0.029 C 
HETATM    4  C   UNL     1      25.273  45.482  49.743  1.00  0.00     0.080 C 
HETATM    5  C   UNL     1      25.831  46.910  49.674  1.00  0.00     0.029 C 
HETATM    6  C   UNL     1      24.747  47.972  49.878  1.00  0.00     0.098 C 
ENDROOT
BRANCH   4   7
HETATM    7  C   UNL     1      24.938  45.085  51.181  1.00  0.00     0.221 C 
HETATM    8  N   UNL     1      25.836  45.539  52.117  1.00  0.00    -0.359 N 
HETATM    9  H   UNL     1      26.679  46.020  51.835  1.00  0.00     0.162 HD
HETATM   10  O   UNL     1      23.935  44.449  51.488  1.00  0.00    -0.273 OA
BRANCH   8  11
HETATM   11  C   UNL     1      25.672  45.251  53.533  1.00  0.00     0.142 C 
BRANCH  11  12
HETATM   12  C   UNL     1      26.433  43.995  53.978  1.00  0.00     0.142 C 
BRANCH  12  13
HETATM   13  N   UNL     1      26.395  42.909  53.007  1.00  0.00    -0.355 N 
HETATM   14  C   UNL     1      27.421  42.729  52.103  1.00  0.00     0.251 C 
HETATM   15  O   UNL     1      28.352  43.519  51.986  1.00  0.00    -0.268 OA
HETATM   16  H   UNL     1      25.759  42.148  53.207  1.00  0.00     0.162 HD
BRANCH  14  17
HETATM   17  C   UNL     1      27.385  41.495  51.265  1.00  0.00     0.033 A 
HETATM   18  C   UNL     1      28.424  40.557  51.254  1.00  0.00     0.036 A 
HETATM   19  C   UNL     1      28.322  39.427  50.441  1.00  0.00     0.012 A 
HETATM   20 BR   UNL     1      29.731  38.165  50.415  1.00  0.00    -0.051 Br
HETATM   21  C   UNL     1      27.195  39.214  49.648  1.00  0.00     0.019 A 
HETATM   22  C   UNL     1      26.152  40.138  49.668  1.00  0.00     0.002 A 
HETATM   23  C   UNL     1      26.246  41.272  50.476  1.00  0.00     0.017 A 
ENDBRANCH  14  17
ENDBRANCH  12  13
ENDBRANCH  11  12
ENDBRANCH   8  11
ENDBRANCH   4   7
BRANCH   1  24
HETATM   24  C   UNL     1      22.694  48.789  48.926  1.00  0.00     0.106 A 
HETATM   25  N   UNL     1      21.473  48.570  49.462  1.00  0.00    -0.233 NA
HETATM   26  C   UNL     1      20.529  49.541  49.451  1.00  0.00     0.102 A 
HETATM   27  C   UNL     1      19.253  49.333  49.995  1.00  0.00     0.095 A 
HETATM   28  C   UNL     1      20.786  50.805  48.885  1.00  0.00    -0.004 A 
HETATM   29  C   UNL     1      18.267  50.326  49.991  1.00  0.00     0.039 A 
HETATM   30  C   UNL     1      18.545  51.569  49.434  1.00  0.00     0.004 A 
HETATM   31  C   UNL     1      19.801  51.809  48.882  1.00  0.00     0.014 A 
HETATM   32  C   UNL     1      22.041  51.027  48.319  1.00  0.00     0.017 A 
HETATM   33  C   UNL     1      22.992  50.010  48.330  1.00  0.00     0.045 A 
BRANCH  27  34
HETATM   34  O   UNL     1      18.954  48.109  50.550  1.00  0.00    -0.358 OA
HETATM   35  H   UNL     1      18.635  47.515  49.854  1.00  0.00     0.218 HD
ENDBRANCH  27  34
ENDBRANCH   1  24
TORSDOF 7
ENDMDL
MODEL 9
REMARK VINA RESULT:      -9.2     17.413     19.577
REMARK  7 active torsions:
REMARK  status: ('A' for Active; 'I' for Inactive)
REMARK    1  A    between atoms: C_3  and  O_4 
REMARK    2  A    between atoms: C_9  and  N_10 
REMARK    3  A    between atoms: C_13  and  C_14 
REMARK       I    between atoms: C_14  and  N_15 
REMARK    4  A    between atoms: N_15  and  C_16 
REMARK    5  A    between atoms: C_16  and  C_17 
REMARK    6  A    between atoms: C_17  and  N_18 
REMARK       I    between atoms: N_18  and  C_19 
REMARK    7  A    between atoms: C_19  and  C_20 
ROOT
HETATM    1  N   UNL     1      40.121  44.573  63.710  1.00  0.00    -0.268 NA
HETATM    2  C   UNL     1      38.724  45.010  63.845  1.00  0.00     0.098 C 
HETATM    3  C   UNL     1      37.855  44.265  62.833  1.00  0.00     0.029 C 
HETATM    4  C   UNL     1      37.986  42.745  62.977  1.00  0.00     0.080 C 
HETATM    5  C   UNL     1      39.465  42.338  62.942  1.00  0.00     0.029 C 
HETATM    6  C   UNL     1      40.314  43.132  63.939  1.00  0.00     0.098 C 
ENDROOT
BRANCH   4   7
HETATM    7  C   UNL     1      37.291  42.211  64.229  1.00  0.00     0.221 C 
HETATM    8  N   UNL     1      36.065  42.779  64.482  1.00  0.00    -0.359 N 
HETATM    9  H   UNL     1      35.721  43.540  63.915  1.00  0.00     0.162 HD
HETATM   10  O   UNL     1      37.762  41.324  64.935  1.00  0.00    -0.273 OA
BRANCH   8  11
HETATM   11  C   UNL     1      35.269  42.390  65.635  1.00  0.00     0.142 C 
BRANCH  11  12
HETATM   12  C   UNL     1      34.715  43.593  66.410  1.00  0.00     0.142 C 
BRANCH  12  13
HETATM   13  N   UNL     1      35.249  44.875  65.969  1.00  0.00    -0.355 N 
HETATM   14  C   UNL     1      35.975  45.675  66.827  1.00  0.00     0.251 C 
HETATM   15  O   UNL     1      36.116  45.417  68.018  1.00  0.00    -0.268 OA
HETATM   16  H   UNL     1      35.319  45.014  64.970  1.00  0.00     0.162 HD
BRANCH  14  17
HETATM   17  C   UNL     1      36.630  46.882  66.247  1.00  0.00     0.033 A 
HETATM   18  C   UNL     1      37.562  47.651  66.954  1.00  0.00     0.036 A 
HETATM   19  C   UNL     1      38.132  48.772  66.346  1.00  0.00     0.012 A 
HETATM   20 BR   UNL     1      39.382  49.820  67.305  1.00  0.00    -0.051 Br
HETATM   21  C   UNL     1      37.794  49.129  65.042  1.00  0.00     0.019 A 
HETATM   22  C   UNL     1      36.878  48.357  64.329  1.00  0.00     0.002 A 
HETATM   23  C   UNL     1      36.301  47.237  64.929  1.00  0.00     0.017 A 
ENDBRANCH  14  17
ENDBRANCH  12  13
ENDBRANCH  11  12
ENDBRANCH   8  11
ENDBRANCH   4   7
BRANCH   1  24
HETATM   24  C   UNL     1      41.002  45.375  64.474  1.00  0.00     0.106 A 
HETATM   25  N   UNL     1      42.267  45.579  64.043  1.00  0.00    -0.233 NA
HETATM   26  C   UNL     1      43.135  46.317  64.773  1.00  0.00     0.102 A 
HETATM   27  C   UNL     1      44.454  46.534  64.349  1.00  0.00     0.095 A 
HETATM   28  C   UNL     1      42.754  46.895  66.000  1.00  0.00    -0.004 A 
HETATM   29  C   UNL     1      45.365  47.294  65.092  1.00  0.00     0.039 A 
HETATM   30  C   UNL     1      44.964  47.863  66.296  1.00  0.00     0.004 A 
HETATM   31  C   UNL     1      43.663  47.664  66.750  1.00  0.00     0.014 A 
HETATM   32  C   UNL     1      41.453  46.674  66.453  1.00  0.00     0.017 A 
HETATM   33  C   UNL     1      40.581  45.901  65.692  1.00  0.00     0.045 A 
BRANCH  27  34
HETATM   34  O   UNL     1      44.875  45.979  63.160  1.00  0.00    -0.358 OA
HETATM   35  H   UNL     1      45.569  45.328  63.343  1.00  0.00     0.218 HD
ENDBRANCH  27  34
ENDBRANCH   1  24
TORSDOF 7
ENDMDL
MODEL 10
REMARK VINA RESULT:      -9.2      2.445      3.050
REMARK  7 active torsions:
REMARK  status: ('A' for Active; 'I' for Inactive)
REMARK    1  A    between atoms: C_3  and  O_4 
REMARK    2  A    between atoms: C_9  and  N_10 
REMARK    3  A    between atoms: C_13  and  C_14 
REMARK       I    between atoms: C_14  and  N_15 
REMARK    4  A    between atoms: N_15  and  C_16 
REMARK    5  A    between atoms: C_16  and  C_17 
REMARK    6  A    between atoms: C_17  and  N_18 
REMARK       I    between atoms: N_18  and  C_19 
REMARK    7  A    between atoms: C_19  and  C_20 
ROOT
HETATM    1  N   UNL     1      26.881  42.962  51.630  1.00  0.00    -0.268 NA
HETATM    2  C   UNL     1      27.326  43.468  50.323  1.00  0.00     0.098 C 
HETATM    3  C   UNL     1      26.380  42.967  49.233  1.00  0.00     0.029 C 
HETATM    4  C   UNL     1      24.924  43.350  49.519  1.00  0.00     0.080 C 
HETATM    5  C   UNL     1      24.531  42.904  50.933  1.00  0.00     0.029 C 
HETATM    6  C   UNL     1      25.520  43.388  51.997  1.00  0.00     0.098 C 
ENDROOT
BRANCH   4   7
HETATM    7  C   UNL     1      24.656  44.840  49.311  1.00  0.00     0.221 C 
HETATM    8  N   UNL     1      23.346  45.146  49.028  1.00  0.00    -0.359 N 
HETATM    9  H   UNL     1      22.662  44.415  48.894  1.00  0.00     0.162 HD
HETATM   10  O   UNL     1      25.522  45.702  49.423  1.00  0.00    -0.273 OA
BRANCH   8  11
HETATM   11  C   UNL     1      22.915  46.516  48.799  1.00  0.00     0.142 C 
BRANCH  11  12
HETATM   12  C   UNL     1      21.415  46.626  48.492  1.00  0.00     0.142 C 
BRANCH  12  13
HETATM   13  N   UNL     1      20.930  47.997  48.408  1.00  0.00    -0.355 N 
HETATM   14  C   UNL     1      19.607  48.298  48.653  1.00  0.00     0.251 C 
HETATM   15  O   UNL     1      18.752  47.438  48.841  1.00  0.00    -0.268 OA
HETATM   16  H   UNL     1      21.629  48.726  48.452  1.00  0.00     0.162 HD
BRANCH  14  17
HETATM   17  C   UNL     1      19.234  49.741  48.716  1.00  0.00     0.033 A 
HETATM   18  C   UNL     1      17.953  50.176  49.075  1.00  0.00     0.036 A 
HETATM   19  C   UNL     1      17.676  51.545  49.109  1.00  0.00     0.012 A 
HETATM   20 BR   UNL     1      15.942  52.135  49.582  1.00  0.00    -0.051 Br
HETATM   21  C   UNL     1      18.660  52.483  48.799  1.00  0.00     0.019 A 
HETATM   22  C   UNL     1      19.940  52.053  48.456  1.00  0.00     0.002 A 
HETATM   23  C   UNL     1      20.226  50.687  48.417  1.00  0.00     0.017 A 
ENDBRANCH  14  17
ENDBRANCH  12  13
ENDBRANCH  11  12
ENDBRANCH   8  11
ENDBRANCH   4   7
BRANCH   1  24
HETATM   24  C   UNL     1      27.831  43.220  52.647  1.00  0.00     0.106 A 
HETATM   25  N   UNL     1      27.655  44.271  53.477  1.00  0.00    -0.233 NA
HETATM   26  C   UNL     1      28.567  44.554  54.437  1.00  0.00     0.102 A 
HETATM   27  C   UNL     1      28.408  45.646  55.304  1.00  0.00     0.095 A 
HETATM   28  C   UNL     1      29.723  43.767  54.604  1.00  0.00    -0.004 A 
HETATM   29  C   UNL     1      29.341  45.952  56.301  1.00  0.00     0.039 A 
HETATM   30  C   UNL     1      30.471  45.156  56.453  1.00  0.00     0.004 A 
HETATM   31  C   UNL     1      30.663  44.067  55.607  1.00  0.00     0.014 A 
HETATM   32  C   UNL     1      29.912  42.690  53.739  1.00  0.00     0.017 A 
HETATM   33  C   UNL     1      28.968  42.425  52.751  1.00  0.00     0.045 A 
BRANCH  27  34
HETATM   34  O   UNL     1      27.298  46.450  55.171  1.00  0.00    -0.358 OA
HETATM   35  H   UNL     1      26.501  45.911  55.291  1.00  0.00     0.218 HD
ENDBRANCH  27  34
ENDBRANCH   1  24
TORSDOF 7
ENDMDL
