MODEL 1
REMARK VINA RESULT:      -9.7      0.000      0.000
REMARK  3 active torsions:
REMARK  status: ('A' for Active; 'I' for Inactive)
REMARK    1  A    between atoms: C_9  and  C_10 
REMARK       I    between atoms: C_10  and  N_11 
REMARK    2  A    between atoms: N_11  and  C_12 
REMARK    3  A    between atoms: C_12  and  C_13 
ROOT
HETATM    1  C   UNL     1      26.154  46.497  51.733  1.00  0.00     0.273 C 
HETATM    2  N   UNL     1      26.349  46.851  50.415  1.00  0.00    -0.347 N 
HETATM    3  O   UNL     1      25.900  47.308  52.619  1.00  0.00    -0.266 OA
HETATM    4  H   UNL     1      26.606  46.083  49.802  1.00  0.00     0.163 HD
ENDROOT
BRANCH   2   5
HETATM    5  C   UNL     1      26.442  48.226  49.976  1.00  0.00     0.114 C 
HETATM    6  C   UNL     1      27.633  48.430  49.035  1.00  0.00     0.037 C 
BRANCH   5   7
HETATM    7  C   UNL     1      25.153  48.676  49.309  1.00  0.00    -0.034 A 
HETATM    8  C   UNL     1      23.947  48.017  49.603  1.00  0.00     0.041 A 
HETATM    9  C   UNL     1      22.747  48.444  49.029  1.00  0.00     0.069 A 
HETATM   10  C   UNL     1      22.732  49.527  48.150  1.00  0.00     0.096 A 
HETATM   11  N   UNL     1      21.559  47.798  49.367  1.00  0.00    -0.323 N 
HETATM   12  O   UNL     1      21.600  50.029  47.575  1.00  0.00    -0.340 OA
HETATM   13  C   UNL     1      23.920  50.192  47.855  1.00  0.00     0.040 A 
HETATM   14  C   UNL     1      20.441  49.224  47.722  1.00  0.00     0.278 C 
HETATM   15  C   UNL     1      20.364  48.154  48.811  1.00  0.00     0.246 C 
HETATM   16  O   UNL     1      19.316  47.603  49.139  1.00  0.00    -0.271 OA
HETATM   17  C   UNL     1      25.121  49.773  48.431  1.00  0.00     0.012 A 
HETATM   18  H   UNL     1      21.543  47.056  50.053  1.00  0.00     0.169 HD
ENDBRANCH   5   7
ENDBRANCH   2   5
BRANCH   1  19
HETATM   19  C   UNL     1      26.309  45.053  51.968  1.00  0.00     0.157 A 
HETATM   20  C   UNL     1      27.241  44.410  52.836  1.00  0.00     0.029 A 
HETATM   21  C   UNL     1      28.254  44.823  53.724  1.00  0.00     0.023 A 
HETATM   22  C   UNL     1      27.002  43.051  52.679  1.00  0.00     0.063 A 
HETATM   23  C   UNL     1      28.997  43.857  54.425  1.00  0.00    -0.061 A 
HETATM   24  C   UNL     1      30.081  44.274  55.376  1.00  0.00     0.048 C 
HETATM   25  C   UNL     1      28.724  42.497  54.235  1.00  0.00     0.009 A 
HETATM   26  C   UNL     1      27.722  42.065  53.359  1.00  0.00     0.032 A 
HETATM   27  N   UNL     1      25.984  42.965  51.771  1.00  0.00    -0.277 N 
HETATM   28  H   UNL     1      25.548  42.122  51.419  1.00  0.00     0.189 HD
HETATM   29  N   UNL     1      25.544  44.150  51.312  1.00  0.00    -0.168 NA
ENDBRANCH   1  19
TORSDOF 3
ENDMDL
MODEL 2
REMARK VINA RESULT:      -9.6      2.826      9.229
REMARK  3 active torsions:
REMARK  status: ('A' for Active; 'I' for Inactive)
REMARK    1  A    between atoms: C_9  and  C_10 
REMARK       I    between atoms: C_10  and  N_11 
REMARK    2  A    between atoms: N_11  and  C_12 
REMARK    3  A    between atoms: C_12  and  C_13 
ROOT
HETATM    1  C   UNL     1      25.584  46.304  51.063  1.00  0.00     0.273 C 
HETATM    2  N   UNL     1      26.710  46.084  51.825  1.00  0.00    -0.347 N 
HETATM    3  O   UNL     1      24.595  45.577  51.094  1.00  0.00    -0.266 OA
HETATM    4  H   UNL     1      27.473  46.733  51.656  1.00  0.00     0.163 HD
ENDROOT
BRANCH   2   5
HETATM    5  C   UNL     1      26.907  44.885  52.610  1.00  0.00     0.114 C 
HETATM    6  C   UNL     1      27.623  43.801  51.799  1.00  0.00     0.037 C 
BRANCH   5   7
HETATM    7  C   UNL     1      27.670  45.186  53.889  1.00  0.00    -0.034 A 
HETATM    8  C   UNL     1      28.702  44.327  54.305  1.00  0.00     0.041 A 
HETATM    9  C   UNL     1      29.439  44.612  55.457  1.00  0.00     0.069 A 
HETATM   10  C   UNL     1      29.155  45.749  56.213  1.00  0.00     0.096 A 
HETATM   11  N   UNL     1      30.483  43.765  55.827  1.00  0.00    -0.323 N 
HETATM   12  O   UNL     1      29.850  46.118  57.330  1.00  0.00    -0.340 OA
HETATM   13  C   UNL     1      28.139  46.610  55.808  1.00  0.00     0.040 A 
HETATM   14  C   UNL     1      30.737  45.135  57.840  1.00  0.00     0.278 C 
HETATM   15  C   UNL     1      31.214  43.979  56.961  1.00  0.00     0.246 C 
HETATM   16  O   UNL     1      32.154  43.250  57.263  1.00  0.00    -0.271 OA
HETATM   17  C   UNL     1      27.403  46.334  54.654  1.00  0.00     0.012 A 
HETATM   18  H   UNL     1      30.746  42.975  55.254  1.00  0.00     0.169 HD
ENDBRANCH   5   7
ENDBRANCH   2   5
BRANCH   1  19
HETATM   19  C   UNL     1      25.704  47.482  50.190  1.00  0.00     0.157 A 
HETATM   20  C   UNL     1      24.656  48.164  49.502  1.00  0.00     0.029 A 
HETATM   21  C   UNL     1      23.257  48.030  49.394  1.00  0.00     0.023 A 
HETATM   22  C   UNL     1      25.287  49.181  48.799  1.00  0.00     0.063 A 
HETATM   23  C   UNL     1      22.537  48.922  48.580  1.00  0.00    -0.061 A 
HETATM   24  C   UNL     1      21.047  48.798  48.448  1.00  0.00     0.048 C 
HETATM   25  C   UNL     1      23.214  49.932  47.887  1.00  0.00     0.009 A 
HETATM   26  C   UNL     1      24.602  50.084  47.980  1.00  0.00     0.032 A 
HETATM   27  N   UNL     1      26.615  49.057  49.098  1.00  0.00    -0.277 N 
HETATM   28  H   UNL     1      27.375  49.637  48.761  1.00  0.00     0.189 HD
HETATM   29  N   UNL     1      26.908  48.039  49.926  1.00  0.00    -0.168 NA
ENDBRANCH   1  19
TORSDOF 3
ENDMDL
MODEL 3
REMARK VINA RESULT:      -9.4      3.041      9.070
REMARK  3 active torsions:
REMARK  status: ('A' for Active; 'I' for Inactive)
REMARK    1  A    between atoms: C_9  and  C_10 
REMARK       I    between atoms: C_10  and  N_11 
REMARK    2  A    between atoms: N_11  and  C_12 
REMARK    3  A    between atoms: C_12  and  C_13 
ROOT
HETATM    1  C   UNL     1      25.896  47.142  51.390  1.00  0.00     0.273 C 
HETATM    2  N   UNL     1      25.923  46.635  52.671  1.00  0.00    -0.347 N 
HETATM    3  O   UNL     1      26.720  47.948  50.966  1.00  0.00    -0.266 OA
HETATM    4  H   UNL     1      25.147  46.020  52.902  1.00  0.00     0.163 HD
ENDROOT
BRANCH   2   5
HETATM    5  C   UNL     1      26.820  47.127  53.693  1.00  0.00     0.114 C 
HETATM    6  C   UNL     1      26.045  47.702  54.882  1.00  0.00     0.037 C 
BRANCH   5   7
HETATM    7  C   UNL     1      27.775  46.039  54.154  1.00  0.00    -0.034 A 
HETATM    8  C   UNL     1      28.563  46.242  55.301  1.00  0.00     0.041 A 
HETATM    9  C   UNL     1      29.417  45.235  55.760  1.00  0.00     0.069 A 
HETATM   10  C   UNL     1      29.503  44.020  55.082  1.00  0.00     0.096 A 
HETATM   11  N   UNL     1      30.158  45.446  56.921  1.00  0.00    -0.323 N 
HETATM   12  O   UNL     1      30.284  42.973  55.484  1.00  0.00    -0.340 OA
HETATM   13  C   UNL     1      28.723  43.806  53.948  1.00  0.00     0.040 A 
HETATM   14  C   UNL     1      31.216  43.277  56.510  1.00  0.00     0.278 C 
HETATM   15  C   UNL     1      31.031  44.509  57.395  1.00  0.00     0.246 C 
HETATM   16  O   UNL     1      31.656  44.687  58.438  1.00  0.00    -0.271 OA
HETATM   17  C   UNL     1      27.863  44.805  53.488  1.00  0.00     0.012 A 
HETATM   18  H   UNL     1      30.057  46.294  57.462  1.00  0.00     0.169 HD
ENDBRANCH   5   7
ENDBRANCH   2   5
BRANCH   1  19
HETATM   19  C   UNL     1      24.764  46.639  50.597  1.00  0.00     0.157 A 
HETATM   20  C   UNL     1      23.962  47.367  49.668  1.00  0.00     0.029 A 
HETATM   21  C   UNL     1      23.927  48.684  49.171  1.00  0.00     0.023 A 
HETATM   22  C   UNL     1      23.019  46.454  49.213  1.00  0.00     0.063 A 
HETATM   23  C   UNL     1      22.944  49.045  48.234  1.00  0.00    -0.061 A 
HETATM   24  C   UNL     1      22.886  50.444  47.690  1.00  0.00     0.048 C 
HETATM   25  C   UNL     1      22.011  48.095  47.803  1.00  0.00     0.009 A 
HETATM   26  C   UNL     1      22.027  46.780  48.283  1.00  0.00     0.032 A 
HETATM   27  N   UNL     1      23.302  45.286  49.863  1.00  0.00    -0.277 N 
HETATM   28  H   UNL     1      22.815  44.402  49.773  1.00  0.00     0.189 HD
HETATM   29  N   UNL     1      24.341  45.358  50.714  1.00  0.00    -0.168 NA
ENDBRANCH   1  19
TORSDOF 3
ENDMDL
MODEL 4
REMARK VINA RESULT:      -9.4      4.567      7.858
REMARK  3 active torsions:
REMARK  status: ('A' for Active; 'I' for Inactive)
REMARK    1  A    between atoms: C_9  and  C_10 
REMARK       I    between atoms: C_10  and  N_11 
REMARK    2  A    between atoms: N_11  and  C_12 
REMARK    3  A    between atoms: C_12  and  C_13 
ROOT
HETATM    1  C   UNL     1      25.734  44.370  52.825  1.00  0.00     0.273 C 
HETATM    2  N   UNL     1      26.369  43.909  51.692  1.00  0.00    -0.347 N 
HETATM    3  O   UNL     1      24.604  44.020  53.155  1.00  0.00    -0.266 OA
HETATM    4  H   UNL     1      27.278  44.327  51.514  1.00  0.00     0.163 HD
ENDROOT
BRANCH   2   5
HETATM    5  C   UNL     1      25.705  43.103  50.691  1.00  0.00     0.114 C 
HETATM    6  C   UNL     1      25.100  43.973  49.586  1.00  0.00     0.037 C 
BRANCH   5   7
HETATM    7  C   UNL     1      26.654  42.073  50.100  1.00  0.00    -0.034 A 
HETATM    8  C   UNL     1      27.328  41.177  50.948  1.00  0.00     0.041 A 
HETATM    9  C   UNL     1      28.173  40.199  50.417  1.00  0.00     0.069 A 
HETATM   10  C   UNL     1      28.364  40.105  49.039  1.00  0.00     0.096 A 
HETATM   11  N   UNL     1      28.799  39.297  51.276  1.00  0.00    -0.323 N 
HETATM   12  O   UNL     1      29.143  39.158  48.437  1.00  0.00    -0.340 OA
HETATM   13  C   UNL     1      27.698  40.984  48.188  1.00  0.00     0.040 A 
HETATM   14  C   UNL     1      29.967  38.409  49.317  1.00  0.00     0.278 C 
HETATM   15  C   UNL     1      29.659  38.344  50.813  1.00  0.00     0.246 C 
HETATM   16  O   UNL     1      30.181  37.530  51.571  1.00  0.00    -0.271 OA
HETATM   17  C   UNL     1      26.847  41.959  48.713  1.00  0.00     0.012 A 
HETATM   18  H   UNL     1      28.618  39.309  52.270  1.00  0.00     0.169 HD
ENDBRANCH   5   7
ENDBRANCH   2   5
BRANCH   1  19
HETATM   19  C   UNL     1      26.540  45.342  53.579  1.00  0.00     0.157 A 
HETATM   20  C   UNL     1      27.762  45.102  54.277  1.00  0.00     0.029 A 
HETATM   21  C   UNL     1      28.606  43.996  54.496  1.00  0.00     0.023 A 
HETATM   22  C   UNL     1      28.102  46.325  54.840  1.00  0.00     0.063 A 
HETATM   23  C   UNL     1      29.764  44.152  55.277  1.00  0.00    -0.061 A 
HETATM   24  C   UNL     1      30.678  42.987  55.525  1.00  0.00     0.048 C 
HETATM   25  C   UNL     1      30.068  45.403  55.828  1.00  0.00     0.009 A 
HETATM   26  C   UNL     1      29.245  46.515  55.622  1.00  0.00     0.032 A 
HETATM   27  N   UNL     1      27.111  47.187  54.459  1.00  0.00    -0.277 N 
HETATM   28  H   UNL     1      27.035  48.171  54.688  1.00  0.00     0.189 HD
HETATM   29  N   UNL     1      26.147  46.630  53.705  1.00  0.00    -0.168 NA
ENDBRANCH   1  19
TORSDOF 3
ENDMDL
MODEL 5
REMARK VINA RESULT:      -9.4      5.236      8.705
REMARK  3 active torsions:
REMARK  status: ('A' for Active; 'I' for Inactive)
REMARK    1  A    between atoms: C_9  and  C_10 
REMARK       I    between atoms: C_10  and  N_11 
REMARK    2  A    between atoms: N_11  and  C_12 
REMARK    3  A    between atoms: C_12  and  C_13 
ROOT
HETATM    1  C   UNL     1      26.921  42.764  50.012  1.00  0.00     0.273 C 
HETATM    2  N   UNL     1      27.160  42.812  51.368  1.00  0.00    -0.347 N 
HETATM    3  O   UNL     1      27.015  43.742  49.275  1.00  0.00    -0.266 OA
HETATM    4  H   UNL     1      26.990  41.940  51.861  1.00  0.00     0.163 HD
ENDROOT
BRANCH   2   5
HETATM    5  C   UNL     1      27.378  44.050  52.085  1.00  0.00     0.114 C 
HETATM    6  C   UNL     1      26.077  44.572  52.701  1.00  0.00     0.037 C 
BRANCH   5   7
HETATM    7  C   UNL     1      28.445  43.882  53.154  1.00  0.00    -0.034 A 
HETATM    8  C   UNL     1      28.483  44.764  54.248  1.00  0.00     0.041 A 
HETATM    9  C   UNL     1      29.433  44.599  55.258  1.00  0.00     0.069 A 
HETATM   10  C   UNL     1      30.361  43.561  55.191  1.00  0.00     0.096 A 
HETATM   11  N   UNL     1      29.424  45.464  56.352  1.00  0.00    -0.323 N 
HETATM   12  O   UNL     1      31.298  43.308  56.153  1.00  0.00    -0.340 OA
HETATM   13  C   UNL     1      30.331  42.677  54.115  1.00  0.00     0.040 A 
HETATM   14  C   UNL     1      31.448  44.327  57.129  1.00  0.00     0.278 C 
HETATM   15  C   UNL     1      30.350  45.367  57.351  1.00  0.00     0.246 C 
HETATM   16  O   UNL     1      30.316  46.109  58.329  1.00  0.00    -0.271 OA
HETATM   17  C   UNL     1      29.380  42.833  53.105  1.00  0.00     0.012 A 
HETATM   18  H   UNL     1      28.716  46.178  56.450  1.00  0.00     0.169 HD
ENDBRANCH   5   7
ENDBRANCH   2   5
BRANCH   1  19
HETATM   19  C   UNL     1      26.516  41.428  49.548  1.00  0.00     0.157 A 
HETATM   20  C   UNL     1      27.237  40.205  49.687  1.00  0.00     0.029 A 
HETATM   21  C   UNL     1      28.461  39.807  50.261  1.00  0.00     0.023 A 
HETATM   22  C   UNL     1      26.448  39.247  49.064  1.00  0.00     0.063 A 
HETATM   23  C   UNL     1      28.854  38.459  50.188  1.00  0.00    -0.061 A 
HETATM   24  C   UNL     1      30.154  38.012  50.792  1.00  0.00     0.048 C 
HETATM   25  C   UNL     1      28.028  37.527  49.549  1.00  0.00     0.009 A 
HETATM   26  C   UNL     1      26.808  37.900  48.974  1.00  0.00     0.032 A 
HETATM   27  N   UNL     1      25.348  39.923  48.613  1.00  0.00    -0.277 N 
HETATM   28  H   UNL     1      24.557  39.538  48.111  1.00  0.00     0.189 HD
HETATM   29  N   UNL     1      25.356  41.241  48.877  1.00  0.00    -0.168 NA
ENDBRANCH   1  19
TORSDOF 3
ENDMDL
MODEL 6
REMARK VINA RESULT:      -9.1      3.060      8.794
REMARK  3 active torsions:
REMARK  status: ('A' for Active; 'I' for Inactive)
REMARK    1  A    between atoms: C_9  and  C_10 
REMARK       I    between atoms: C_10  and  N_11 
REMARK    2  A    between atoms: N_11  and  C_12 
REMARK    3  A    between atoms: C_12  and  C_13 
ROOT
HETATM    1  C   UNL     1      26.537  44.358  50.704  1.00  0.00     0.273 C 
HETATM    2  N   UNL     1      26.206  43.553  51.772  1.00  0.00    -0.347 N 
HETATM    3  O   UNL     1      27.641  44.343  50.165  1.00  0.00    -0.266 OA
HETATM    4  H   UNL     1      25.277  43.712  52.152  1.00  0.00     0.163 HD
ENDROOT
BRANCH   2   5
HETATM    5  C   UNL     1      27.173  42.735  52.471  1.00  0.00     0.114 C 
HETATM    6  C   UNL     1      28.182  42.115  51.500  1.00  0.00     0.037 C 
BRANCH   5   7
HETATM    7  C   UNL     1      27.888  43.533  53.547  1.00  0.00    -0.034 A 
HETATM    8  C   UNL     1      28.944  42.946  54.267  1.00  0.00     0.041 A 
HETATM    9  C   UNL     1      29.638  43.680  55.232  1.00  0.00     0.069 A 
HETATM   10  C   UNL     1      29.287  45.003  55.499  1.00  0.00     0.096 A 
HETATM   11  N   UNL     1      30.706  43.088  55.904  1.00  0.00    -0.323 N 
HETATM   12  O   UNL     1      29.936  45.800  56.400  1.00  0.00    -0.340 OA
HETATM   13  C   UNL     1      28.246  45.598  54.790  1.00  0.00     0.040 A 
HETATM   14  C   UNL     1      30.849  45.126  57.252  1.00  0.00     0.278 C 
HETATM   15  C   UNL     1      31.397  43.749  56.879  1.00  0.00     0.246 C 
HETATM   16  O   UNL     1      32.358  43.234  57.443  1.00  0.00    -0.271 OA
HETATM   17  C   UNL     1      27.554  44.871  53.819  1.00  0.00     0.012 A 
HETATM   18  H   UNL     1      31.016  42.154  55.675  1.00  0.00     0.169 HD
ENDBRANCH   5   7
ENDBRANCH   2   5
BRANCH   1  19
HETATM   19  C   UNL     1      25.443  45.253  50.298  1.00  0.00     0.157 A 
HETATM   20  C   UNL     1      25.547  46.599  49.836  1.00  0.00     0.029 A 
HETATM   21  C   UNL     1      26.593  47.509  49.589  1.00  0.00     0.023 A 
HETATM   22  C   UNL     1      24.238  47.006  49.613  1.00  0.00     0.063 A 
HETATM   23  C   UNL     1      26.292  48.803  49.129  1.00  0.00    -0.061 A 
HETATM   24  C   UNL     1      27.390  49.791  48.859  1.00  0.00     0.048 C 
HETATM   25  C   UNL     1      24.958  49.173  48.918  1.00  0.00     0.009 A 
HETATM   26  C   UNL     1      23.903  48.284  49.156  1.00  0.00     0.032 A 
HETATM   27  N   UNL     1      23.463  45.928  49.935  1.00  0.00    -0.277 N 
HETATM   28  H   UNL     1      22.453  45.865  49.891  1.00  0.00     0.189 HD
HETATM   29  N   UNL     1      24.151  44.854  50.362  1.00  0.00    -0.168 NA
ENDBRANCH   1  19
TORSDOF 3
ENDMDL
MODEL 7
REMARK VINA RESULT:      -9.0      2.449      3.378
REMARK  3 active torsions:
REMARK  status: ('A' for Active; 'I' for Inactive)
REMARK    1  A    between atoms: C_9  and  C_10 
REMARK       I    between atoms: C_10  and  N_11 
REMARK    2  A    between atoms: N_11  and  C_12 
REMARK    3  A    between atoms: C_12  and  C_13 
ROOT
HETATM    1  C   UNL     1      27.014  42.560  49.899  1.00  0.00     0.273 C 
HETATM    2  N   UNL     1      25.911  43.281  50.299  1.00  0.00    -0.347 N 
HETATM    3  O   UNL     1      27.267  42.308  48.724  1.00  0.00    -0.266 OA
HETATM    4  H   UNL     1      25.798  43.364  51.305  1.00  0.00     0.163 HD
ENDROOT
BRANCH   2   5
HETATM    5  C   UNL     1      24.852  43.667  49.392  1.00  0.00     0.114 C 
HETATM    6  C   UNL     1      23.554  42.916  49.700  1.00  0.00     0.037 C 
BRANCH   5   7
HETATM    7  C   UNL     1      24.622  45.169  49.427  1.00  0.00    -0.034 A 
HETATM    8  C   UNL     1      23.343  45.685  49.158  1.00  0.00     0.041 A 
HETATM    9  C   UNL     1      23.106  47.061  49.225  1.00  0.00     0.069 A 
HETATM   10  C   UNL     1      24.138  47.939  49.554  1.00  0.00     0.096 A 
HETATM   11  N   UNL     1      21.819  47.544  48.993  1.00  0.00    -0.323 N 
HETATM   12  O   UNL     1      23.982  49.291  49.677  1.00  0.00    -0.340 OA
HETATM   13  C   UNL     1      25.408  47.439  49.828  1.00  0.00     0.040 A 
HETATM   14  C   UNL     1      22.746  49.800  49.199  1.00  0.00     0.278 C 
HETATM   15  C   UNL     1      21.540  48.881  49.014  1.00  0.00     0.246 C 
HETATM   16  O   UNL     1      20.398  49.299  48.842  1.00  0.00    -0.271 OA
HETATM   17  C   UNL     1      25.649  46.065  49.769  1.00  0.00     0.012 A 
HETATM   18  H   UNL     1      21.046  46.917  48.820  1.00  0.00     0.169 HD
ENDBRANCH   5   7
ENDBRANCH   2   5
BRANCH   1  19
HETATM   19  C   UNL     1      27.839  42.101  51.027  1.00  0.00     0.157 A 
HETATM   20  C   UNL     1      28.165  42.821  52.215  1.00  0.00     0.029 A 
HETATM   21  C   UNL     1      27.864  44.090  52.748  1.00  0.00     0.023 A 
HETATM   22  C   UNL     1      28.983  41.967  52.943  1.00  0.00     0.063 A 
HETATM   23  C   UNL     1      28.398  44.463  53.993  1.00  0.00    -0.061 A 
HETATM   24  C   UNL     1      28.092  45.811  54.580  1.00  0.00     0.048 C 
HETATM   25  C   UNL     1      29.220  43.572  54.693  1.00  0.00     0.009 A 
HETATM   26  C   UNL     1      29.531  42.306  54.183  1.00  0.00     0.032 A 
HETATM   27  N   UNL     1      29.091  40.835  52.184  1.00  0.00    -0.277 N 
HETATM   28  H   UNL     1      29.613  39.997  52.407  1.00  0.00     0.189 HD
HETATM   29  N   UNL     1      28.423  40.880  51.017  1.00  0.00    -0.168 NA
ENDBRANCH   1  19
TORSDOF 3
ENDMDL
MODEL 8
REMARK VINA RESULT:      -9.0      3.465      8.449
REMARK  3 active torsions:
REMARK  status: ('A' for Active; 'I' for Inactive)
REMARK    1  A    between atoms: C_9  and  C_10 
REMARK       I    between atoms: C_10  and  N_11 
REMARK    2  A    between atoms: N_11  and  C_12 
REMARK    3  A    between atoms: C_12  and  C_13 
ROOT
HETATM    1  C   UNL     1      25.865  46.965  51.327  1.00  0.00     0.273 C 
HETATM    2  N   UNL     1      26.015  46.375  52.563  1.00  0.00    -0.347 N 
HETATM    3  O   UNL     1      26.541  47.917  50.947  1.00  0.00    -0.266 OA
HETATM    4  H   UNL     1      25.350  45.634  52.764  1.00  0.00     0.163 HD
ENDROOT
BRANCH   2   5
HETATM    5  C   UNL     1      26.863  46.923  53.599  1.00  0.00     0.114 C 
HETATM    6  C   UNL     1      26.034  47.488  54.755  1.00  0.00     0.037 C 
BRANCH   5   7
HETATM    7  C   UNL     1      27.848  45.884  54.106  1.00  0.00    -0.034 A 
HETATM    8  C   UNL     1      28.584  46.133  55.278  1.00  0.00     0.041 A 
HETATM    9  C   UNL     1      29.465  45.171  55.779  1.00  0.00     0.069 A 
HETATM   10  C   UNL     1      29.631  43.954  55.118  1.00  0.00     0.096 A 
HETATM   11  N   UNL     1      30.152  45.426  56.965  1.00  0.00    -0.323 N 
HETATM   12  O   UNL     1      30.443  42.948  55.559  1.00  0.00    -0.340 OA
HETATM   13  C   UNL     1      28.904  43.694  53.958  1.00  0.00     0.040 A 
HETATM   14  C   UNL     1      31.321  43.303  56.616  1.00  0.00     0.278 C 
HETATM   15  C   UNL     1      31.049  44.534  57.480  1.00  0.00     0.246 C 
HETATM   16  O   UNL     1      31.626  44.749  58.543  1.00  0.00    -0.271 OA
HETATM   17  C   UNL     1      28.017  44.649  53.457  1.00  0.00     0.012 A 
HETATM   18  H   UNL     1      29.993  46.273  57.492  1.00  0.00     0.169 HD
ENDBRANCH   5   7
ENDBRANCH   2   5
BRANCH   1  19
HETATM   19  C   UNL     1      24.794  46.353  50.525  1.00  0.00     0.157 A 
HETATM   20  C   UNL     1      24.615  44.969  50.226  1.00  0.00     0.029 A 
HETATM   21  C   UNL     1      25.281  43.768  50.540  1.00  0.00     0.023 A 
HETATM   22  C   UNL     1      23.484  44.917  49.422  1.00  0.00     0.063 A 
HETATM   23  C   UNL     1      24.792  42.552  50.033  1.00  0.00    -0.061 A 
HETATM   24  C   UNL     1      25.486  41.260  50.354  1.00  0.00     0.048 C 
HETATM   25  C   UNL     1      23.649  42.545  49.224  1.00  0.00     0.009 A 
HETATM   26  C   UNL     1      22.971  43.725  48.901  1.00  0.00     0.032 A 
HETATM   27  N   UNL     1      23.069  46.213  49.296  1.00  0.00    -0.277 N 
HETATM   28  H   UNL     1      22.267  46.551  48.777  1.00  0.00     0.189 HD
HETATM   29  N   UNL     1      23.837  47.110  49.939  1.00  0.00    -0.168 NA
ENDBRANCH   1  19
TORSDOF 3
ENDMDL
MODEL 9
REMARK VINA RESULT:      -8.9      2.378      8.673
REMARK  3 active torsions:
REMARK  status: ('A' for Active; 'I' for Inactive)
REMARK    1  A    between atoms: C_9  and  C_10 
REMARK       I    between atoms: C_10  and  N_11 
REMARK    2  A    between atoms: N_11  and  C_12 
REMARK    3  A    between atoms: C_12  and  C_13 
ROOT
HETATM    1  C   UNL     1      23.636  49.648  48.511  1.00  0.00     0.273 C 
HETATM    2  N   UNL     1      24.422  48.903  49.362  1.00  0.00    -0.347 N 
HETATM    3  O   UNL     1      23.896  49.813  47.322  1.00  0.00    -0.266 OA
HETATM    4  H   UNL     1      24.116  48.899  50.331  1.00  0.00     0.163 HD
ENDROOT
BRANCH   2   5
HETATM    5  C   UNL     1      25.717  48.382  48.983  1.00  0.00     0.114 C 
HETATM    6  C   UNL     1      26.799  49.463  49.072  1.00  0.00     0.037 C 
BRANCH   5   7
HETATM    7  C   UNL     1      26.094  47.179  49.832  1.00  0.00    -0.034 A 
HETATM    8  C   UNL     1      25.405  46.928  51.031  1.00  0.00     0.041 A 
HETATM    9  C   UNL     1      25.712  45.804  51.802  1.00  0.00     0.069 A 
HETATM   10  C   UNL     1      26.712  44.921  51.395  1.00  0.00     0.096 A 
HETATM   11  N   UNL     1      24.988  45.556  52.967  1.00  0.00    -0.323 N 
HETATM   12  O   UNL     1      27.049  43.783  52.071  1.00  0.00    -0.340 OA
HETATM   13  C   UNL     1      27.398  45.157  50.206  1.00  0.00     0.040 A 
HETATM   14  C   UNL     1      26.491  43.666  53.370  1.00  0.00     0.278 C 
HETATM   15  C   UNL     1      25.269  44.491  53.774  1.00  0.00     0.246 C 
HETATM   16  O   UNL     1      24.605  44.258  54.781  1.00  0.00    -0.271 OA
HETATM   17  C   UNL     1      27.091  46.275  49.428  1.00  0.00     0.012 A 
HETATM   18  H   UNL     1      24.216  46.148  53.241  1.00  0.00     0.169 HD
ENDBRANCH   5   7
ENDBRANCH   2   5
BRANCH   1  19
HETATM   19  C   UNL     1      22.471  50.247  49.182  1.00  0.00     0.157 A 
HETATM   20  C   UNL     1      21.196  50.540  48.612  1.00  0.00     0.029 A 
HETATM   21  C   UNL     1      20.589  50.388  47.350  1.00  0.00     0.023 A 
HETATM   22  C   UNL     1      20.465  51.116  49.642  1.00  0.00     0.063 A 
HETATM   23  C   UNL     1      19.266  50.823  47.161  1.00  0.00    -0.061 A 
HETATM   24  C   UNL     1      18.598  50.673  45.825  1.00  0.00     0.048 C 
HETATM   25  C   UNL     1      18.564  51.400  48.227  1.00  0.00     0.009 A 
HETATM   26  C   UNL     1      19.148  51.559  49.489  1.00  0.00     0.032 A 
HETATM   27  N   UNL     1      21.305  51.128  50.720  1.00  0.00    -0.277 N 
HETATM   28  H   UNL     1      21.102  51.476  51.650  1.00  0.00     0.189 HD
HETATM   29  N   UNL     1      22.527  50.621  50.481  1.00  0.00    -0.168 NA
ENDBRANCH   1  19
TORSDOF 3
ENDMDL
MODEL 10
REMARK VINA RESULT:      -8.8      2.569      8.954
REMARK  3 active torsions:
REMARK  status: ('A' for Active; 'I' for Inactive)
REMARK    1  A    between atoms: C_9  and  C_10 
REMARK       I    between atoms: C_10  and  N_11 
REMARK    2  A    between atoms: N_11  and  C_12 
REMARK    3  A    between atoms: C_12  and  C_13 
ROOT
HETATM    1  C   UNL     1      23.903  47.104  49.736  1.00  0.00     0.273 C 
HETATM    2  N   UNL     1      24.740  47.060  50.830  1.00  0.00    -0.347 N 
HETATM    3  O   UNL     1      23.507  46.100  49.149  1.00  0.00    -0.266 OA
HETATM    4  H   UNL     1      25.031  47.969  51.179  1.00  0.00     0.163 HD
ENDROOT
BRANCH   2   5
HETATM    5  C   UNL     1      25.369  45.843  51.291  1.00  0.00     0.114 C 
HETATM    6  C   UNL     1      26.304  45.262  50.226  1.00  0.00     0.037 C 
BRANCH   5   7
HETATM    7  C   UNL     1      26.120  46.073  52.592  1.00  0.00    -0.034 A 
HETATM    8  C   UNL     1      27.149  45.193  52.970  1.00  0.00     0.041 A 
HETATM    9  C   UNL     1      27.875  45.414  54.143  1.00  0.00     0.069 A 
HETATM   10  C   UNL     1      27.582  46.507  54.958  1.00  0.00     0.096 A 
HETATM   11  N   UNL     1      28.917  44.549  54.475  1.00  0.00    -0.323 N 
HETATM   12  O   UNL     1      28.266  46.814  56.100  1.00  0.00    -0.340 OA
HETATM   13  C   UNL     1      26.569  47.389  54.591  1.00  0.00     0.040 A 
HETATM   14  C   UNL     1      29.150  45.805  56.563  1.00  0.00     0.278 C 
HETATM   15  C   UNL     1      29.636  44.700  55.625  1.00  0.00     0.246 C 
HETATM   16  O   UNL     1      30.575  43.955  55.895  1.00  0.00    -0.271 OA
HETATM   17  C   UNL     1      25.844  47.177  53.417  1.00  0.00     0.012 A 
HETATM   18  H   UNL     1      29.186  43.792  53.862  1.00  0.00     0.169 HD
ENDBRANCH   5   7
ENDBRANCH   2   5
BRANCH   1  19
HETATM   19  C   UNL     1      23.559  48.475  49.331  1.00  0.00     0.157 A 
HETATM   20  C   UNL     1      22.260  49.005  49.071  1.00  0.00     0.029 A 
HETATM   21  C   UNL     1      20.939  48.516  49.106  1.00  0.00     0.023 A 
HETATM   22  C   UNL     1      22.475  50.325  48.700  1.00  0.00     0.063 A 
HETATM   23  C   UNL     1      19.875  49.368  48.762  1.00  0.00    -0.061 A 
HETATM   24  C   UNL     1      18.460  48.869  48.789  1.00  0.00     0.048 C 
HETATM   25  C   UNL     1      20.137  50.693  48.391  1.00  0.00     0.009 A 
HETATM   26  C   UNL     1      21.441  51.200  48.352  1.00  0.00     0.032 A 
HETATM   27  N   UNL     1      23.829  50.502  48.761  1.00  0.00    -0.277 N 
HETATM   28  H   UNL     1      24.345  51.349  48.556  1.00  0.00     0.189 HD
HETATM   29  N   UNL     1      24.519  49.408  49.128  1.00  0.00    -0.168 NA
ENDBRANCH   1  19
TORSDOF 3
ENDMDL
