MODEL 1
REMARK VINA RESULT:      -9.3      0.000      0.000
REMARK  8 active torsions:
REMARK  status: ('A' for Active; 'I' for Inactive)
REMARK    1  A    between atoms: C_7  and  C_8 
REMARK    2  A    between atoms: C_8  and  O_9 
REMARK    3  A    between atoms: O_9  and  C_10 
REMARK    4  A    between atoms: C_13  and  C_14 
REMARK       I    between atoms: C_14  and  N_15 
REMARK    5  A    between atoms: N_15  and  C_16 
REMARK    6  A    between atoms: C_16  and  C_17 
REMARK    7  A    between atoms: C_20  and  C_21 
REMARK    8  A    between atoms: C_21  and  N_22 
ROOT
HETATM    1  C   UNL     1      24.373  44.903  51.306  1.00  0.00     0.251 C 
HETATM    2  N   UNL     1      24.415  45.799  50.259  1.00  0.00    -0.353 N 
HETATM    3  O   UNL     1      23.678  43.894  51.304  1.00  0.00    -0.268 OA
HETATM    4  H   UNL     1      25.113  46.529  50.243  1.00  0.00     0.163 HD
ENDROOT
BRANCH   1   5
HETATM    5  C   UNL     1      25.218  45.228  52.487  1.00  0.00     0.032 A 
HETATM    6  C   UNL     1      25.621  44.245  53.398  1.00  0.00     0.020 A 
HETATM    7  C   UNL     1      26.474  44.579  54.452  1.00  0.00     0.038 A 
HETATM    8  C   UNL     1      26.945  45.886  54.601  1.00  0.00     0.069 A 
HETATM    9  C   UNL     1      26.528  46.873  53.709  1.00  0.00     0.038 A 
HETATM   10  C   UNL     1      25.676  46.542  52.647  1.00  0.00     0.020 A 
BRANCH   8  11
HETATM   11  O   UNL     1      27.800  46.060  55.651  1.00  0.00    -0.347 OA
BRANCH  11  12
HETATM   12  C   UNL     1      29.187  46.219  55.348  1.00  0.00     0.219 C 
BRANCH  12  13
HETATM   13  C   UNL     1      29.960  45.087  55.925  1.00  0.00     0.024 A 
HETATM   14  C   UNL     1      30.588  45.029  57.198  1.00  0.00     0.069 A 
HETATM   15  C   UNL     1      30.629  46.073  58.248  1.00  0.00     0.073 C 
HETATM   16  N   UNL     1      31.200  43.855  57.391  1.00  0.00    -0.133 NA
HETATM   17  O   UNL     1      30.993  43.131  56.234  1.00  0.00    -0.217 OA
HETATM   18  C   UNL     1      30.258  43.866  55.360  1.00  0.00     0.085 A 
HETATM   19  C   UNL     1      29.967  43.235  54.060  1.00  0.00     0.079 C 
ENDBRANCH  12  13
ENDBRANCH  11  12
ENDBRANCH   8  11
ENDBRANCH   1   5
BRANCH   2  20
HETATM   20  C   UNL     1      23.529  45.675  49.121  1.00  0.00     0.161 C 
BRANCH  20  21
HETATM   21  C   UNL     1      22.811  46.966  48.787  1.00  0.00    -0.041 A 
HETATM   22  C   UNL     1      21.547  46.983  48.182  1.00  0.00     0.009 A 
HETATM   23  C   UNL     1      20.926  48.189  47.851  1.00  0.00     0.009 A 
HETATM   24  C   UNL     1      21.540  49.412  48.146  1.00  0.00    -0.033 A 
HETATM   25  C   UNL     1      22.784  49.404  48.792  1.00  0.00     0.009 A 
HETATM   26  C   UNL     1      23.410  48.194  49.107  1.00  0.00     0.009 A 
BRANCH  24  27
HETATM   27  C   UNL     1      20.876  50.707  47.767  1.00  0.00     0.273 C 
BRANCH  27  28
HETATM   28  N   UNL     1      20.369  51.497  48.950  1.00  0.00    -0.067 N 
HETATM   29  H   UNL     1      21.151  52.090  49.256  1.00  0.00     0.280 HD
HETATM   30  C   UNL     1      19.940  50.660  50.138  1.00  0.00     0.235 C 
HETATM   31  C   UNL     1      18.429  50.670  50.062  1.00  0.00     0.029 C 
HETATM   32  C   UNL     1      18.132  52.090  49.633  1.00  0.00     0.029 C 
HETATM   33  C   UNL     1      19.192  52.385  48.586  1.00  0.00     0.235 C 
ENDBRANCH  27  28
ENDBRANCH  24  27
ENDBRANCH  20  21
ENDBRANCH   2  20
TORSDOF 8
ENDMDL
MODEL 2
REMARK VINA RESULT:      -9.2      0.679      1.723
REMARK  8 active torsions:
REMARK  status: ('A' for Active; 'I' for Inactive)
REMARK    1  A    between atoms: C_7  and  C_8 
REMARK    2  A    between atoms: C_8  and  O_9 
REMARK    3  A    between atoms: O_9  and  C_10 
REMARK    4  A    between atoms: C_13  and  C_14 
REMARK       I    between atoms: C_14  and  N_15 
REMARK    5  A    between atoms: N_15  and  C_16 
REMARK    6  A    between atoms: C_16  and  C_17 
REMARK    7  A    between atoms: C_20  and  C_21 
REMARK    8  A    between atoms: C_21  and  N_22 
ROOT
HETATM    1  C   UNL     1      24.667  44.585  51.420  1.00  0.00     0.251 C 
HETATM    2  N   UNL     1      24.705  45.460  50.355  1.00  0.00    -0.353 N 
HETATM    3  O   UNL     1      23.996  43.559  51.427  1.00  0.00    -0.268 OA
HETATM    4  H   UNL     1      25.386  46.206  50.336  1.00  0.00     0.163 HD
ENDROOT
BRANCH   1   5
HETATM    5  C   UNL     1      25.485  44.953  52.607  1.00  0.00     0.032 A 
HETATM    6  C   UNL     1      25.894  43.999  53.545  1.00  0.00     0.020 A 
HETATM    7  C   UNL     1      26.721  44.374  54.606  1.00  0.00     0.038 A 
HETATM    8  C   UNL     1      27.160  45.694  54.735  1.00  0.00     0.069 A 
HETATM    9  C   UNL     1      26.736  46.653  53.816  1.00  0.00     0.038 A 
HETATM   10  C   UNL     1      25.910  46.281  52.747  1.00  0.00     0.020 A 
BRANCH   8  11
HETATM   11  O   UNL     1      27.992  45.910  55.795  1.00  0.00    -0.347 OA
BRANCH  11  12
HETATM   12  C   UNL     1      29.380  46.093  55.512  1.00  0.00     0.219 C 
BRANCH  12  13
HETATM   13  C   UNL     1      30.174  45.025  56.174  1.00  0.00     0.024 A 
HETATM   14  C   UNL     1      30.552  43.767  55.633  1.00  0.00     0.069 A 
HETATM   15  C   UNL     1      30.246  43.218  54.292  1.00  0.00     0.073 C 
HETATM   16  N   UNL     1      31.266  43.050  56.508  1.00  0.00    -0.133 NA
HETATM   17  O   UNL     1      31.351  43.826  57.647  1.00  0.00    -0.217 OA
HETATM   18  C   UNL     1      30.698  45.000  57.449  1.00  0.00     0.085 A 
HETATM   19  C   UNL     1      30.681  45.937  58.587  1.00  0.00     0.079 C 
ENDBRANCH  12  13
ENDBRANCH  11  12
ENDBRANCH   8  11
ENDBRANCH   1   5
BRANCH   2  20
HETATM   20  C   UNL     1      23.842  45.293  49.206  1.00  0.00     0.161 C 
BRANCH  20  21
HETATM   21  C   UNL     1      23.096  46.558  48.837  1.00  0.00    -0.041 A 
HETATM   22  C   UNL     1      22.020  46.556  47.939  1.00  0.00     0.009 A 
HETATM   23  C   UNL     1      21.376  47.744  47.588  1.00  0.00     0.009 A 
HETATM   24  C   UNL     1      21.772  48.963  48.151  1.00  0.00    -0.033 A 
HETATM   25  C   UNL     1      22.818  48.967  49.083  1.00  0.00     0.009 A 
HETATM   26  C   UNL     1      23.472  47.778  49.419  1.00  0.00     0.009 A 
BRANCH  24  27
HETATM   27  C   UNL     1      21.088  50.242  47.752  1.00  0.00     0.273 C 
BRANCH  27  28
HETATM   28  N   UNL     1      19.688  50.377  48.301  1.00  0.00    -0.067 N 
HETATM   29  H   UNL     1      19.273  49.437  48.265  1.00  0.00     0.280 HD
HETATM   30  C   UNL     1      18.784  51.304  47.514  1.00  0.00     0.235 C 
HETATM   31  C   UNL     1      18.744  52.566  48.348  1.00  0.00     0.029 C 
HETATM   32  C   UNL     1      18.698  52.024  49.761  1.00  0.00     0.029 C 
HETATM   33  C   UNL     1      19.679  50.865  49.740  1.00  0.00     0.235 C 
ENDBRANCH  27  28
ENDBRANCH  24  27
ENDBRANCH  20  21
ENDBRANCH   2  20
TORSDOF 8
ENDMDL
MODEL 3
REMARK VINA RESULT:      -8.9      1.521      2.402
REMARK  8 active torsions:
REMARK  status: ('A' for Active; 'I' for Inactive)
REMARK    1  A    between atoms: C_7  and  C_8 
REMARK    2  A    between atoms: C_8  and  O_9 
REMARK    3  A    between atoms: O_9  and  C_10 
REMARK    4  A    between atoms: C_13  and  C_14 
REMARK       I    between atoms: C_14  and  N_15 
REMARK    5  A    between atoms: N_15  and  C_16 
REMARK    6  A    between atoms: C_16  and  C_17 
REMARK    7  A    between atoms: C_20  and  C_21 
REMARK    8  A    between atoms: C_21  and  N_22 
ROOT
HETATM    1  C   UNL     1      24.484  43.593  50.773  1.00  0.00     0.251 C 
HETATM    2  N   UNL     1      24.731  44.320  49.627  1.00  0.00    -0.353 N 
HETATM    3  O   UNL     1      23.400  43.080  51.026  1.00  0.00    -0.268 OA
HETATM    4  H   UNL     1      25.675  44.590  49.392  1.00  0.00     0.163 HD
ENDROOT
BRANCH   1   5
HETATM    5  C   UNL     1      25.616  43.465  51.731  1.00  0.00     0.032 A 
HETATM    6  C   UNL     1      25.610  44.117  52.968  1.00  0.00     0.020 A 
HETATM    7  C   UNL     1      26.659  43.913  53.868  1.00  0.00     0.038 A 
HETATM    8  C   UNL     1      27.710  43.049  53.553  1.00  0.00     0.069 A 
HETATM    9  C   UNL     1      27.731  42.415  52.311  1.00  0.00     0.038 A 
HETATM   10  C   UNL     1      26.680  42.614  51.407  1.00  0.00     0.020 A 
BRANCH   8  11
HETATM   11  O   UNL     1      28.645  42.915  54.539  1.00  0.00    -0.347 OA
BRANCH  11  12
HETATM   12  C   UNL     1      29.831  43.703  54.429  1.00  0.00     0.219 C 
BRANCH  12  13
HETATM   13  C   UNL     1      30.047  44.466  55.687  1.00  0.00     0.024 A 
HETATM   14  C   UNL     1      29.463  45.708  56.056  1.00  0.00     0.069 A 
HETATM   15  C   UNL     1      28.510  46.538  55.283  1.00  0.00     0.073 C 
HETATM   16  N   UNL     1      29.881  46.108  57.261  1.00  0.00    -0.133 NA
HETATM   17  O   UNL     1      30.763  45.137  57.694  1.00  0.00    -0.217 OA
HETATM   18  C   UNL     1      30.864  44.162  56.754  1.00  0.00     0.085 A 
HETATM   19  C   UNL     1      31.788  43.054  57.060  1.00  0.00     0.079 C 
ENDBRANCH  12  13
ENDBRANCH  11  12
ENDBRANCH   8  11
ENDBRANCH   1   5
BRANCH   2  20
HETATM   20  C   UNL     1      23.675  44.642  48.692  1.00  0.00     0.161 C 
BRANCH  20  21
HETATM   21  C   UNL     1      23.199  46.075  48.808  1.00  0.00    -0.041 A 
HETATM   22  C   UNL     1      23.962  47.067  49.439  1.00  0.00     0.009 A 
HETATM   23  C   UNL     1      23.481  48.371  49.564  1.00  0.00     0.009 A 
HETATM   24  C   UNL     1      22.235  48.726  49.031  1.00  0.00    -0.033 A 
HETATM   25  C   UNL     1      21.486  47.751  48.359  1.00  0.00     0.009 A 
HETATM   26  C   UNL     1      21.964  46.441  48.251  1.00  0.00     0.009 A 
BRANCH  24  27
HETATM   27  C   UNL     1      21.713  50.128  49.188  1.00  0.00     0.273 C 
BRANCH  27  28
HETATM   28  N   UNL     1      20.212  50.233  49.069  1.00  0.00    -0.067 N 
HETATM   29  H   UNL     1      19.862  49.270  48.978  1.00  0.00     0.280 HD
HETATM   30  C   UNL     1      19.722  51.009  47.864  1.00  0.00     0.235 C 
HETATM   31  C   UNL     1      19.314  52.349  48.437  1.00  0.00     0.029 C 
HETATM   32  C   UNL     1      18.673  51.961  49.752  1.00  0.00     0.029 C 
HETATM   33  C   UNL     1      19.581  50.871  50.294  1.00  0.00     0.235 C 
ENDBRANCH  27  28
ENDBRANCH  24  27
ENDBRANCH  20  21
ENDBRANCH   2  20
TORSDOF 8
ENDMDL
MODEL 4
REMARK VINA RESULT:      -8.9      2.048      3.412
REMARK  8 active torsions:
REMARK  status: ('A' for Active; 'I' for Inactive)
REMARK    1  A    between atoms: C_7  and  C_8 
REMARK    2  A    between atoms: C_8  and  O_9 
REMARK    3  A    between atoms: O_9  and  C_10 
REMARK    4  A    between atoms: C_13  and  C_14 
REMARK       I    between atoms: C_14  and  N_15 
REMARK    5  A    between atoms: N_15  and  C_16 
REMARK    6  A    between atoms: C_16  and  C_17 
REMARK    7  A    between atoms: C_20  and  C_21 
REMARK    8  A    between atoms: C_21  and  N_22 
ROOT
HETATM    1  C   UNL     1      24.142  47.775  49.735  1.00  0.00     0.251 C 
HETATM    2  N   UNL     1      22.908  47.564  49.156  1.00  0.00    -0.353 N 
HETATM    3  O   UNL     1      24.839  48.756  49.503  1.00  0.00    -0.268 OA
HETATM    4  H   UNL     1      22.309  46.825  49.493  1.00  0.00     0.163 HD
ENDROOT
BRANCH   1   5
HETATM    5  C   UNL     1      24.620  46.722  50.672  1.00  0.00     0.032 A 
HETATM    6  C   UNL     1      24.324  45.369  50.473  1.00  0.00     0.020 A 
HETATM    7  C   UNL     1      24.853  44.406  51.336  1.00  0.00     0.038 A 
HETATM    8  C   UNL     1      25.690  44.777  52.391  1.00  0.00     0.069 A 
HETATM    9  C   UNL     1      25.968  46.126  52.606  1.00  0.00     0.038 A 
HETATM   10  C   UNL     1      25.444  47.096  51.742  1.00  0.00     0.020 A 
BRANCH   8  11
HETATM   11  O   UNL     1      26.164  43.731  53.129  1.00  0.00    -0.347 OA
BRANCH  11  12
HETATM   12  C   UNL     1      26.574  44.007  54.469  1.00  0.00     0.219 C 
BRANCH  12  13
HETATM   13  C   UNL     1      28.051  43.881  54.580  1.00  0.00     0.024 A 
HETATM   14  C   UNL     1      28.855  42.771  54.204  1.00  0.00     0.069 A 
HETATM   15  C   UNL     1      28.420  41.481  53.621  1.00  0.00     0.073 C 
HETATM   16  N   UNL     1      30.150  42.999  54.445  1.00  0.00    -0.133 NA
HETATM   17  O   UNL     1      30.212  44.262  54.999  1.00  0.00    -0.217 OA
HETATM   18  C   UNL     1      28.961  44.785  55.083  1.00  0.00     0.085 A 
HETATM   19  C   UNL     1      28.855  46.131  55.676  1.00  0.00     0.079 C 
ENDBRANCH  12  13
ENDBRANCH  11  12
ENDBRANCH   8  11
ENDBRANCH   1   5
BRANCH   2  20
HETATM   20  C   UNL     1      22.401  48.436  48.118  1.00  0.00     0.161 C 
BRANCH  20  21
HETATM   21  C   UNL     1      21.368  49.421  48.626  1.00  0.00    -0.041 A 
HETATM   22  C   UNL     1      20.443  49.086  49.624  1.00  0.00     0.009 A 
HETATM   23  C   UNL     1      19.478  50.003  50.044  1.00  0.00     0.009 A 
HETATM   24  C   UNL     1      19.432  51.292  49.499  1.00  0.00    -0.033 A 
HETATM   25  C   UNL     1      20.382  51.648  48.532  1.00  0.00     0.009 A 
HETATM   26  C   UNL     1      21.337  50.722  48.101  1.00  0.00     0.009 A 
BRANCH  24  27
HETATM   27  C   UNL     1      18.376  52.267  49.940  1.00  0.00     0.273 C 
BRANCH  27  28
HETATM   28  N   UNL     1      16.968  51.743  49.794  1.00  0.00    -0.067 N 
HETATM   29  H   UNL     1      16.883  50.958  50.452  1.00  0.00     0.280 HD
HETATM   30  C   UNL     1      16.625  51.219  48.414  1.00  0.00     0.235 C 
HETATM   31  C   UNL     1      15.792  52.324  47.803  1.00  0.00     0.029 C 
HETATM   32  C   UNL     1      14.953  52.789  48.975  1.00  0.00     0.029 C 
HETATM   33  C   UNL     1      15.926  52.792  50.142  1.00  0.00     0.235 C 
ENDBRANCH  27  28
ENDBRANCH  24  27
ENDBRANCH  20  21
ENDBRANCH   2  20
TORSDOF 8
ENDMDL
MODEL 5
REMARK VINA RESULT:      -8.7      2.259      3.277
REMARK  8 active torsions:
REMARK  status: ('A' for Active; 'I' for Inactive)
REMARK    1  A    between atoms: C_7  and  C_8 
REMARK    2  A    between atoms: C_8  and  O_9 
REMARK    3  A    between atoms: O_9  and  C_10 
REMARK    4  A    between atoms: C_13  and  C_14 
REMARK       I    between atoms: C_14  and  N_15 
REMARK    5  A    between atoms: N_15  and  C_16 
REMARK    6  A    between atoms: C_16  and  C_17 
REMARK    7  A    between atoms: C_20  and  C_21 
REMARK    8  A    between atoms: C_21  and  N_22 
ROOT
HETATM    1  C   UNL     1      26.038  48.414  49.470  1.00  0.00     0.251 C 
HETATM    2  N   UNL     1      24.726  48.743  49.201  1.00  0.00    -0.353 N 
HETATM    3  O   UNL     1      26.994  49.066  49.067  1.00  0.00    -0.268 OA
HETATM    4  H   UNL     1      23.975  48.267  49.680  1.00  0.00     0.163 HD
ENDROOT
BRANCH   1   5
HETATM    5  C   UNL     1      26.258  47.186  50.282  1.00  0.00     0.032 A 
HETATM    6  C   UNL     1      25.954  47.141  51.647  1.00  0.00     0.020 A 
HETATM    7  C   UNL     1      26.108  45.947  52.356  1.00  0.00     0.038 A 
HETATM    8  C   UNL     1      26.548  44.788  51.713  1.00  0.00     0.069 A 
HETATM    9  C   UNL     1      26.874  44.835  50.358  1.00  0.00     0.038 A 
HETATM   10  C   UNL     1      26.718  46.028  49.642  1.00  0.00     0.020 A 
BRANCH   8  11
HETATM   11  O   UNL     1      26.615  43.688  52.518  1.00  0.00    -0.347 OA
BRANCH  11  12
HETATM   12  C   UNL     1      26.736  43.911  53.924  1.00  0.00     0.219 C 
BRANCH  12  13
HETATM   13  C   UNL     1      28.149  43.720  54.344  1.00  0.00     0.024 A 
HETATM   14  C   UNL     1      28.988  44.655  55.009  1.00  0.00     0.069 A 
HETATM   15  C   UNL     1      28.663  46.035  55.437  1.00  0.00     0.073 C 
HETATM   16  N   UNL     1      30.205  44.148  55.235  1.00  0.00    -0.133 NA
HETATM   17  O   UNL     1      30.186  42.874  54.703  1.00  0.00    -0.217 OA
HETATM   18  C   UNL     1      28.963  42.621  54.170  1.00  0.00     0.085 A 
HETATM   19  C   UNL     1      28.786  41.299  53.541  1.00  0.00     0.079 C 
ENDBRANCH  12  13
ENDBRANCH  11  12
ENDBRANCH   8  11
ENDBRANCH   1   5
BRANCH   2  20
HETATM   20  C   UNL     1      24.386  49.823  48.301  1.00  0.00     0.161 C 
BRANCH  20  21
HETATM   21  C   UNL     1      22.892  49.988  48.111  1.00  0.00    -0.041 A 
HETATM   22  C   UNL     1      22.241  51.207  48.341  1.00  0.00     0.009 A 
HETATM   23  C   UNL     1      20.857  51.319  48.194  1.00  0.00     0.009 A 
HETATM   24  C   UNL     1      20.092  50.221  47.783  1.00  0.00    -0.033 A 
HETATM   25  C   UNL     1      20.742  49.011  47.509  1.00  0.00     0.009 A 
HETATM   26  C   UNL     1      22.127  48.898  47.673  1.00  0.00     0.009 A 
BRANCH  24  27
HETATM   27  C   UNL     1      18.599  50.343  47.648  1.00  0.00     0.273 C 
BRANCH  27  28
HETATM   28  N   UNL     1      17.841  49.891  48.873  1.00  0.00    -0.067 N 
HETATM   29  H   UNL     1      16.854  50.123  48.703  1.00  0.00     0.280 HD
HETATM   30  C   UNL     1      18.252  50.572  50.163  1.00  0.00     0.235 C 
HETATM   31  C   UNL     1      19.103  49.536  50.865  1.00  0.00     0.029 C 
HETATM   32  C   UNL     1      18.368  48.248  50.560  1.00  0.00     0.029 C 
HETATM   33  C   UNL     1      17.962  48.394  49.104  1.00  0.00     0.235 C 
ENDBRANCH  27  28
ENDBRANCH  24  27
ENDBRANCH  20  21
ENDBRANCH   2  20
TORSDOF 8
ENDMDL
MODEL 6
REMARK VINA RESULT:      -8.7      4.038     12.348
REMARK  8 active torsions:
REMARK  status: ('A' for Active; 'I' for Inactive)
REMARK    1  A    between atoms: C_7  and  C_8 
REMARK    2  A    between atoms: C_8  and  O_9 
REMARK    3  A    between atoms: O_9  and  C_10 
REMARK    4  A    between atoms: C_13  and  C_14 
REMARK       I    between atoms: C_14  and  N_15 
REMARK    5  A    between atoms: N_15  and  C_16 
REMARK    6  A    between atoms: C_16  and  C_17 
REMARK    7  A    between atoms: C_20  and  C_21 
REMARK    8  A    between atoms: C_21  and  N_22 
ROOT
HETATM    1  C   UNL     1      23.534  49.796  48.365  1.00  0.00     0.251 C 
HETATM    2  N   UNL     1      24.124  48.951  49.280  1.00  0.00    -0.353 N 
HETATM    3  O   UNL     1      24.062  50.123  47.308  1.00  0.00    -0.268 OA
HETATM    4  H   UNL     1      23.590  48.592  50.058  1.00  0.00     0.163 HD
ENDROOT
BRANCH   1   5
HETATM    5  C   UNL     1      22.192  50.328  48.727  1.00  0.00     0.032 A 
HETATM    6  C   UNL     1      21.845  50.610  50.053  1.00  0.00     0.020 A 
HETATM    7  C   UNL     1      20.601  51.177  50.342  1.00  0.00     0.038 A 
HETATM    8  C   UNL     1      19.701  51.481  49.318  1.00  0.00     0.069 A 
HETATM    9  C   UNL     1      20.035  51.181  47.998  1.00  0.00     0.038 A 
HETATM   10  C   UNL     1      21.282  50.617  47.702  1.00  0.00     0.020 A 
BRANCH   8  11
HETATM   11  O   UNL     1      18.542  52.065  49.741  1.00  0.00    -0.347 OA
BRANCH  11  12
HETATM   12  C   UNL     1      17.341  51.303  49.615  1.00  0.00     0.219 C 
BRANCH  12  13
HETATM   13  C   UNL     1      16.322  52.090  48.869  1.00  0.00     0.024 A 
HETATM   14  C   UNL     1      16.044  52.044  47.477  1.00  0.00     0.069 A 
HETATM   15  C   UNL     1      16.697  51.214  46.439  1.00  0.00     0.073 C 
HETATM   16  N   UNL     1      15.062  52.889  47.144  1.00  0.00    -0.133 NA
HETATM   17  O   UNL     1      14.692  53.515  48.318  1.00  0.00    -0.217 OA
HETATM   18  C   UNL     1      15.446  53.041  49.345  1.00  0.00     0.085 A 
HETATM   19  C   UNL     1      15.184  53.628  50.671  1.00  0.00     0.079 C 
ENDBRANCH  12  13
ENDBRANCH  11  12
ENDBRANCH   8  11
ENDBRANCH   1   5
BRANCH   2  20
HETATM   20  C   UNL     1      25.485  48.488  49.114  1.00  0.00     0.161 C 
BRANCH  20  21
HETATM   21  C   UNL     1      25.831  47.327  50.024  1.00  0.00    -0.041 A 
HETATM   22  C   UNL     1      25.319  47.220  51.324  1.00  0.00     0.009 A 
HETATM   23  C   UNL     1      25.686  46.158  52.154  1.00  0.00     0.009 A 
HETATM   24  C   UNL     1      26.550  45.157  51.692  1.00  0.00    -0.033 A 
HETATM   25  C   UNL     1      27.031  45.235  50.378  1.00  0.00     0.009 A 
HETATM   26  C   UNL     1      26.675  46.309  49.556  1.00  0.00     0.009 A 
BRANCH  24  27
HETATM   27  C   UNL     1      26.958  44.028  52.598  1.00  0.00     0.273 C 
BRANCH  27  28
HETATM   28  N   UNL     1      28.441  43.980  52.877  1.00  0.00    -0.067 N 
HETATM   29  H   UNL     1      28.865  44.728  52.312  1.00  0.00     0.280 HD
HETATM   30  C   UNL     1      29.119  42.681  52.493  1.00  0.00     0.235 C 
HETATM   31  C   UNL     1      29.309  41.967  53.814  1.00  0.00     0.029 C 
HETATM   32  C   UNL     1      29.686  43.098  54.746  1.00  0.00     0.029 C 
HETATM   33  C   UNL     1      28.759  44.231  54.341  1.00  0.00     0.235 C 
ENDBRANCH  27  28
ENDBRANCH  24  27
ENDBRANCH  20  21
ENDBRANCH   2  20
TORSDOF 8
ENDMDL
MODEL 7
REMARK VINA RESULT:      -8.7      2.782      4.645
REMARK  8 active torsions:
REMARK  status: ('A' for Active; 'I' for Inactive)
REMARK    1  A    between atoms: C_7  and  C_8 
REMARK    2  A    between atoms: C_8  and  O_9 
REMARK    3  A    between atoms: O_9  and  C_10 
REMARK    4  A    between atoms: C_13  and  C_14 
REMARK       I    between atoms: C_14  and  N_15 
REMARK    5  A    between atoms: N_15  and  C_16 
REMARK    6  A    between atoms: C_16  and  C_17 
REMARK    7  A    between atoms: C_20  and  C_21 
REMARK    8  A    between atoms: C_21  and  N_22 
ROOT
HETATM    1  C   UNL     1      23.904  49.536  48.217  1.00  0.00     0.251 C 
HETATM    2  N   UNL     1      22.537  49.651  48.362  1.00  0.00    -0.353 N 
HETATM    3  O   UNL     1      24.548  50.154  47.378  1.00  0.00    -0.268 OA
HETATM    4  H   UNL     1      22.076  49.242  49.161  1.00  0.00     0.163 HD
ENDROOT
BRANCH   1   5
HETATM    5  C   UNL     1      24.588  48.588  49.138  1.00  0.00     0.032 A 
HETATM    6  C   UNL     1      23.904  47.534  49.752  1.00  0.00     0.020 A 
HETATM    7  C   UNL     1      24.599  46.624  50.553  1.00  0.00     0.038 A 
HETATM    8  C   UNL     1      25.978  46.745  50.736  1.00  0.00     0.069 A 
HETATM    9  C   UNL     1      26.660  47.808  50.144  1.00  0.00     0.038 A 
HETATM   10  C   UNL     1      25.968  48.720  49.337  1.00  0.00     0.020 A 
BRANCH   8  11
HETATM   11  O   UNL     1      26.532  45.766  51.510  1.00  0.00    -0.347 OA
BRANCH  11  12
HETATM   12  C   UNL     1      25.914  45.499  52.769  1.00  0.00     0.219 C 
BRANCH  12  13
HETATM   13  C   UNL     1      26.899  45.700  53.865  1.00  0.00     0.024 A 
HETATM   14  C   UNL     1      27.008  46.817  54.736  1.00  0.00     0.069 A 
HETATM   15  C   UNL     1      26.178  48.044  54.761  1.00  0.00     0.073 C 
HETATM   16  N   UNL     1      28.011  46.665  55.608  1.00  0.00    -0.133 NA
HETATM   17  O   UNL     1      28.587  45.446  55.307  1.00  0.00    -0.217 OA
HETATM   18  C   UNL     1      27.926  44.874  54.267  1.00  0.00     0.085 A 
HETATM   19  C   UNL     1      28.435  43.567  53.811  1.00  0.00     0.079 C 
ENDBRANCH  12  13
ENDBRANCH  11  12
ENDBRANCH   8  11
ENDBRANCH   1   5
BRANCH   2  20
HETATM   20  C   UNL     1      21.740  50.423  47.433  1.00  0.00     0.161 C 
BRANCH  20  21
HETATM   21  C   UNL     1      20.349  50.722  47.953  1.00  0.00    -0.041 A 
HETATM   22  C   UNL     1      19.223  50.004  47.529  1.00  0.00     0.009 A 
HETATM   23  C   UNL     1      17.948  50.328  47.997  1.00  0.00     0.009 A 
HETATM   24  C   UNL     1      17.770  51.360  48.928  1.00  0.00    -0.033 A 
HETATM   25  C   UNL     1      18.898  52.053  49.389  1.00  0.00     0.009 A 
HETATM   26  C   UNL     1      20.171  51.737  48.905  1.00  0.00     0.009 A 
BRANCH  24  27
HETATM   27  C   UNL     1      16.392  51.718  49.411  1.00  0.00     0.273 C 
BRANCH  27  28
HETATM   28  N   UNL     1      16.031  53.168  49.193  1.00  0.00    -0.067 N 
HETATM   29  H   UNL     1      16.884  53.629  48.852  1.00  0.00     0.280 HD
HETATM   30  C   UNL     1      15.582  53.906  50.438  1.00  0.00     0.235 C 
HETATM   31  C   UNL     1      14.078  53.981  50.293  1.00  0.00     0.029 C 
HETATM   32  C   UNL     1      13.904  54.243  48.812  1.00  0.00     0.029 C 
HETATM   33  C   UNL     1      14.933  53.337  48.157  1.00  0.00     0.235 C 
ENDBRANCH  27  28
ENDBRANCH  24  27
ENDBRANCH  20  21
ENDBRANCH   2  20
TORSDOF 8
ENDMDL
MODEL 8
REMARK VINA RESULT:      -8.6      3.586     12.042
REMARK  8 active torsions:
REMARK  status: ('A' for Active; 'I' for Inactive)
REMARK    1  A    between atoms: C_7  and  C_8 
REMARK    2  A    between atoms: C_8  and  O_9 
REMARK    3  A    between atoms: O_9  and  C_10 
REMARK    4  A    between atoms: C_13  and  C_14 
REMARK       I    between atoms: C_14  and  N_15 
REMARK    5  A    between atoms: N_15  and  C_16 
REMARK    6  A    between atoms: C_16  and  C_17 
REMARK    7  A    between atoms: C_20  and  C_21 
REMARK    8  A    between atoms: C_21  and  N_22 
ROOT
HETATM    1  C   UNL     1      22.556  48.177  48.709  1.00  0.00     0.251 C 
HETATM    2  N   UNL     1      22.795  47.031  49.436  1.00  0.00    -0.353 N 
HETATM    3  O   UNL     1      23.307  48.592  47.834  1.00  0.00    -0.268 OA
HETATM    4  H   UNL     1      22.077  46.650  50.034  1.00  0.00     0.163 HD
ENDROOT
BRANCH   1   5
HETATM    5  C   UNL     1      21.317  48.928  49.049  1.00  0.00     0.032 A 
HETATM    6  C   UNL     1      20.080  48.288  49.183  1.00  0.00     0.020 A 
HETATM    7  C   UNL     1      18.956  49.019  49.574  1.00  0.00     0.038 A 
HETATM    8  C   UNL     1      19.054  50.384  49.850  1.00  0.00     0.069 A 
HETATM    9  C   UNL     1      20.280  51.031  49.695  1.00  0.00     0.038 A 
HETATM   10  C   UNL     1      21.411  50.302  49.307  1.00  0.00     0.020 A 
BRANCH   8  11
HETATM   11  O   UNL     1      17.886  50.962  50.258  1.00  0.00    -0.347 OA
BRANCH  11  12
HETATM   12  C   UNL     1      17.707  52.350  49.972  1.00  0.00     0.219 C 
BRANCH  12  13
HETATM   13  C   UNL     1      16.687  52.516  48.902  1.00  0.00     0.024 A 
HETATM   14  C   UNL     1      15.354  52.985  49.044  1.00  0.00     0.069 A 
HETATM   15  C   UNL     1      14.660  53.415  50.281  1.00  0.00     0.073 C 
HETATM   16  N   UNL     1      14.713  53.006  47.871  1.00  0.00    -0.133 NA
HETATM   17  O   UNL     1      15.618  52.533  46.941  1.00  0.00    -0.217 OA
HETATM   18  C   UNL     1      16.792  52.237  47.557  1.00  0.00     0.085 A 
HETATM   19  C   UNL     1      17.862  51.699  46.697  1.00  0.00     0.079 C 
ENDBRANCH  12  13
ENDBRANCH  11  12
ENDBRANCH   8  11
ENDBRANCH   1   5
BRANCH   2  20
HETATM   20  C   UNL     1      24.035  46.296  49.304  1.00  0.00     0.161 C 
BRANCH  20  21
HETATM   21  C   UNL     1      24.736  46.075  50.629  1.00  0.00    -0.041 A 
HETATM   22  C   UNL     1      25.506  47.071  51.243  1.00  0.00     0.009 A 
HETATM   23  C   UNL     1      26.171  46.825  52.445  1.00  0.00     0.009 A 
HETATM   24  C   UNL     1      26.057  45.584  53.083  1.00  0.00    -0.033 A 
HETATM   25  C   UNL     1      25.252  44.597  52.497  1.00  0.00     0.009 A 
HETATM   26  C   UNL     1      24.601  44.841  51.284  1.00  0.00     0.009 A 
BRANCH  24  27
HETATM   27  C   UNL     1      26.793  45.318  54.367  1.00  0.00     0.273 C 
BRANCH  27  28
HETATM   28  N   UNL     1      28.294  45.292  54.210  1.00  0.00    -0.067 N 
HETATM   29  H   UNL     1      28.538  46.108  53.634  1.00  0.00     0.280 HD
HETATM   30  C   UNL     1      28.840  44.063  53.512  1.00  0.00     0.235 C 
HETATM   31  C   UNL     1      29.399  43.224  54.640  1.00  0.00     0.029 C 
HETATM   32  C   UNL     1      30.021  44.264  55.546  1.00  0.00     0.029 C 
HETATM   33  C   UNL     1      29.013  45.401  55.544  1.00  0.00     0.235 C 
ENDBRANCH  27  28
ENDBRANCH  24  27
ENDBRANCH  20  21
ENDBRANCH   2  20
TORSDOF 8
ENDMDL
MODEL 9
REMARK VINA RESULT:      -8.3      2.886      4.963
REMARK  8 active torsions:
REMARK  status: ('A' for Active; 'I' for Inactive)
REMARK    1  A    between atoms: C_7  and  C_8 
REMARK    2  A    between atoms: C_8  and  O_9 
REMARK    3  A    between atoms: O_9  and  C_10 
REMARK    4  A    between atoms: C_13  and  C_14 
REMARK       I    between atoms: C_14  and  N_15 
REMARK    5  A    between atoms: N_15  and  C_16 
REMARK    6  A    between atoms: C_16  and  C_17 
REMARK    7  A    between atoms: C_20  and  C_21 
REMARK    8  A    between atoms: C_21  and  N_22 
ROOT
HETATM    1  C   UNL     1      24.235  49.397  48.686  1.00  0.00     0.251 C 
HETATM    2  N   UNL     1      23.057  49.941  49.153  1.00  0.00    -0.353 N 
HETATM    3  O   UNL     1      24.925  49.923  47.821  1.00  0.00    -0.268 OA
HETATM    4  H   UNL     1      22.607  49.551  49.969  1.00  0.00     0.163 HD
ENDROOT
BRANCH   1   5
HETATM    5  C   UNL     1      24.642  48.095  49.280  1.00  0.00     0.032 A 
HETATM    6  C   UNL     1      25.904  47.910  49.855  1.00  0.00     0.020 A 
HETATM    7  C   UNL     1      26.220  46.694  50.466  1.00  0.00     0.038 A 
HETATM    8  C   UNL     1      25.282  45.661  50.524  1.00  0.00     0.069 A 
HETATM    9  C   UNL     1      24.031  45.833  49.932  1.00  0.00     0.038 A 
HETATM   10  C   UNL     1      23.708  47.052  49.322  1.00  0.00     0.020 A 
BRANCH   8  11
HETATM   11  O   UNL     1      25.712  44.545  51.183  1.00  0.00    -0.347 OA
BRANCH  11  12
HETATM   12  C   UNL     1      27.100  44.220  51.084  1.00  0.00     0.219 C 
BRANCH  12  13
HETATM   13  C   UNL     1      27.520  43.441  52.278  1.00  0.00     0.024 A 
HETATM   14  C   UNL     1      27.711  42.036  52.372  1.00  0.00     0.069 A 
HETATM   15  C   UNL     1      27.533  41.015  51.313  1.00  0.00     0.073 C 
HETATM   16  N   UNL     1      28.092  41.672  53.601  1.00  0.00    -0.133 NA
HETATM   17  O   UNL     1      28.140  42.839  54.339  1.00  0.00    -0.217 OA
HETATM   18  C   UNL     1      27.797  43.891  53.551  1.00  0.00     0.085 A 
HETATM   19  C   UNL     1      27.782  45.214  54.201  1.00  0.00     0.079 C 
ENDBRANCH  12  13
ENDBRANCH  11  12
ENDBRANCH   8  11
ENDBRANCH   1   5
BRANCH   2  20
HETATM   20  C   UNL     1      22.479  51.123  48.551  1.00  0.00     0.161 C 
BRANCH  20  21
HETATM   21  C   UNL     1      21.004  51.282  48.858  1.00  0.00    -0.041 A 
HETATM   22  C   UNL     1      20.156  52.066  48.064  1.00  0.00     0.009 A 
HETATM   23  C   UNL     1      18.809  52.225  48.393  1.00  0.00     0.009 A 
HETATM   24  C   UNL     1      18.266  51.576  49.509  1.00  0.00    -0.033 A 
HETATM   25  C   UNL     1      19.097  50.754  50.282  1.00  0.00     0.009 A 
HETATM   26  C   UNL     1      20.450  50.612  49.959  1.00  0.00     0.009 A 
BRANCH  24  27
HETATM   27  C   UNL     1      16.818  51.768  49.870  1.00  0.00     0.273 C 
BRANCH  27  28
HETATM   28  N   UNL     1      16.278  53.129  49.503  1.00  0.00    -0.067 N 
HETATM   29  H   UNL     1      17.085  53.685  49.190  1.00  0.00     0.280 HD
HETATM   30  C   UNL     1      15.622  53.882  50.643  1.00  0.00     0.235 C 
HETATM   31  C   UNL     1      14.141  53.724  50.377  1.00  0.00     0.029 C 
HETATM   32  C   UNL     1      14.063  53.850  48.871  1.00  0.00     0.029 C 
HETATM   33  C   UNL     1      15.262  53.059  48.376  1.00  0.00     0.235 C 
ENDBRANCH  27  28
ENDBRANCH  24  27
ENDBRANCH  20  21
ENDBRANCH   2  20
TORSDOF 8
ENDMDL
MODEL 10
REMARK VINA RESULT:      -8.3      2.798      4.746
REMARK  8 active torsions:
REMARK  status: ('A' for Active; 'I' for Inactive)
REMARK    1  A    between atoms: C_7  and  C_8 
REMARK    2  A    between atoms: C_8  and  O_9 
REMARK    3  A    between atoms: O_9  and  C_10 
REMARK    4  A    between atoms: C_13  and  C_14 
REMARK       I    between atoms: C_14  and  N_15 
REMARK    5  A    between atoms: N_15  and  C_16 
REMARK    6  A    between atoms: C_16  and  C_17 
REMARK    7  A    between atoms: C_20  and  C_21 
REMARK    8  A    between atoms: C_21  and  N_22 
ROOT
HETATM    1  C   UNL     1      24.251  49.706  48.509  1.00  0.00     0.251 C 
HETATM    2  N   UNL     1      23.170  50.280  49.143  1.00  0.00    -0.353 N 
HETATM    3  O   UNL     1      24.702  50.111  47.443  1.00  0.00    -0.268 OA
HETATM    4  H   UNL     1      22.933  50.009  50.087  1.00  0.00     0.163 HD
ENDROOT
BRANCH   1   5
HETATM    5  C   UNL     1      24.861  48.526  49.180  1.00  0.00     0.032 A 
HETATM    6  C   UNL     1      26.246  48.398  49.330  1.00  0.00     0.020 A 
HETATM    7  C   UNL     1      26.774  47.311  50.030  1.00  0.00     0.038 A 
HETATM    8  C   UNL     1      25.931  46.353  50.599  1.00  0.00     0.069 A 
HETATM    9  C   UNL     1      24.552  46.465  50.432  1.00  0.00     0.038 A 
HETATM   10  C   UNL     1      24.017  47.556  49.735  1.00  0.00     0.020 A 
BRANCH   8  11
HETATM   11  O   UNL     1      26.581  45.367  51.285  1.00  0.00    -0.347 OA
BRANCH  11  12
HETATM   12  C   UNL     1      25.978  44.905  52.495  1.00  0.00     0.219 C 
BRANCH  12  13
HETATM   13  C   UNL     1      26.807  45.315  53.659  1.00  0.00     0.024 A 
HETATM   14  C   UNL     1      27.797  44.546  54.329  1.00  0.00     0.069 A 
HETATM   15  C   UNL     1      28.235  43.162  54.037  1.00  0.00     0.073 C 
HETATM   16  N   UNL     1      28.348  45.229  55.339  1.00  0.00    -0.133 NA
HETATM   17  O   UNL     1      27.712  46.454  55.354  1.00  0.00    -0.217 OA
HETATM   18  C   UNL     1      26.792  46.504  54.356  1.00  0.00     0.085 A 
HETATM   19  C   UNL     1      26.010  47.749  54.250  1.00  0.00     0.079 C 
ENDBRANCH  12  13
ENDBRANCH  11  12
ENDBRANCH   8  11
ENDBRANCH   1   5
BRANCH   2  20
HETATM   20  C   UNL     1      22.399  51.334  48.520  1.00  0.00     0.161 C 
BRANCH  20  21
HETATM   21  C   UNL     1      20.933  50.985  48.367  1.00  0.00    -0.041 A 
HETATM   22  C   UNL     1      20.508  49.721  47.937  1.00  0.00     0.009 A 
HETATM   23  C   UNL     1      19.151  49.439  47.769  1.00  0.00     0.009 A 
HETATM   24  C   UNL     1      18.180  50.407  48.057  1.00  0.00    -0.033 A 
HETATM   25  C   UNL     1      18.596  51.659  48.529  1.00  0.00     0.009 A 
HETATM   26  C   UNL     1      19.957  51.943  48.681  1.00  0.00     0.009 A 
BRANCH  24  27
HETATM   27  C   UNL     1      16.721  50.105  47.852  1.00  0.00     0.273 C 
BRANCH  27  28
HETATM   28  N   UNL     1      16.180  50.597  46.532  1.00  0.00    -0.067 N 
HETATM   29  H   UNL     1      15.264  50.145  46.410  1.00  0.00     0.280 HD
HETATM   30  C   UNL     1      17.026  50.243  45.326  1.00  0.00     0.235 C 
HETATM   31  C   UNL     1      17.743  51.534  44.995  1.00  0.00     0.029 C 
HETATM   32  C   UNL     1      16.673  52.576  45.242  1.00  0.00     0.029 C 
HETATM   33  C   UNL     1      15.990  52.104  46.514  1.00  0.00     0.235 C 
ENDBRANCH  27  28
ENDBRANCH  24  27
ENDBRANCH  20  21
ENDBRANCH   2  20
TORSDOF 8
ENDMDL
