MODEL 1
REMARK VINA RESULT:      -9.8      0.000      0.000
REMARK  6 active torsions:
REMARK  status: ('A' for Active; 'I' for Inactive)
REMARK    1  A    between atoms: O_2  and  C_3 
REMARK    2  A    between atoms: C_6  and  C_7 
REMARK    3  A    between atoms: C_11  and  C_12 
REMARK       I    between atoms: C_12  and  N_13 
REMARK    4  A    between atoms: N_13  and  N_14 
REMARK       I    between atoms: N_14  and  C_15 
REMARK    5  A    between atoms: C_15  and  C_16 
REMARK    6  A    between atoms: C_17  and  C_18 
ROOT
HETATM    1  C   UNL     1      24.874  47.523  50.281  1.00  0.00     0.288 C 
HETATM    2  N   UNL     1      24.752  46.711  51.390  1.00  0.00    -0.262 N 
HETATM    3  O   UNL     1      25.972  47.887  49.863  1.00  0.00    -0.264 OA
HETATM    4  H   UNL     1      23.863  46.550  51.859  1.00  0.00     0.190 HD
ENDROOT
BRANCH   1   5
HETATM    5  C   UNL     1      23.640  47.919  49.662  1.00  0.00     0.121 A 
HETATM    6  N   UNL     1      22.780  47.002  49.129  1.00  0.00    -0.272 N 
HETATM    7  N   UNL     1      21.680  47.533  48.577  1.00  0.00    -0.174 NA
HETATM    8  H   UNL     1      22.899  45.993  49.111  1.00  0.00     0.189 HD
HETATM    9  C   UNL     1      21.806  48.857  48.770  1.00  0.00     0.089 A 
HETATM   10  C   UNL     1      23.028  49.138  49.445  1.00  0.00     0.071 A 
BRANCH   9  11
HETATM   11  C   UNL     1      20.781  49.801  48.307  1.00  0.00    -0.005 A 
HETATM   12  C   UNL     1      19.867  49.450  47.306  1.00  0.00     0.016 A 
HETATM   13  C   UNL     1      18.891  50.361  46.884  1.00  0.00     0.037 A 
HETATM   14  C   UNL     1      18.805  51.634  47.452  1.00  0.00     0.068 A 
HETATM   15  C   UNL     1      19.714  51.995  48.443  1.00  0.00     0.037 A 
HETATM   16  C   UNL     1      20.693  51.085  48.865  1.00  0.00     0.016 A 
BRANCH  14  17
HETATM   17  O   UNL     1      17.804  52.418  46.952  1.00  0.00    -0.356 OA
HETATM   18  C   UNL     1      17.391  52.157  45.616  1.00  0.00     0.210 C 
ENDBRANCH  14  17
ENDBRANCH   9  11
ENDBRANCH   1   5
BRANCH   2  19
HETATM   19  N   UNL     1      25.901  46.435  52.145  1.00  0.00    -0.267 N 
HETATM   20  C   UNL     1      26.102  47.153  53.301  1.00  0.00     0.240 C 
HETATM   21  O   UNL     1      25.270  47.926  53.769  1.00  0.00    -0.271 OA
HETATM   22  H   UNL     1      26.640  45.915  51.677  1.00  0.00     0.190 HD
BRANCH  20  23
HETATM   23  C   UNL     1      27.431  46.948  53.936  1.00  0.00     0.089 A 
HETATM   24  C   UNL     1      27.550  46.039  55.151  1.00  0.00     0.034 A 
HETATM   25  C   UNL     1      27.717  47.536  55.292  1.00  0.00     0.025 A 
BRANCH  24  26
HETATM   26  C   UNL     1      28.743  45.111  55.285  1.00  0.00    -0.031 A 
HETATM   27  C   UNL     1      28.856  43.898  54.574  1.00  0.00     0.040 A 
HETATM   28 CL   UNL     1      27.618  43.391  53.476  1.00  0.00    -0.084 Cl
HETATM   29  C   UNL     1      29.963  43.056  54.731  1.00  0.00     0.024 A 
HETATM   30  C   UNL     1      30.984  43.402  55.613  1.00  0.00     0.002 A 
HETATM   31  C   UNL     1      30.893  44.583  56.341  1.00  0.00     0.001 A 
HETATM   32  C   UNL     1      29.786  45.420  56.181  1.00  0.00     0.009 A 
ENDBRANCH  24  26
ENDBRANCH  20  23
ENDBRANCH   2  19
TORSDOF 6
ENDMDL
MODEL 2
REMARK VINA RESULT:      -9.6      1.836      2.297
REMARK  6 active torsions:
REMARK  status: ('A' for Active; 'I' for Inactive)
REMARK    1  A    between atoms: O_2  and  C_3 
REMARK    2  A    between atoms: C_6  and  C_7 
REMARK    3  A    between atoms: C_11  and  C_12 
REMARK       I    between atoms: C_12  and  N_13 
REMARK    4  A    between atoms: N_13  and  N_14 
REMARK       I    between atoms: N_14  and  C_15 
REMARK    5  A    between atoms: C_15  and  C_16 
REMARK    6  A    between atoms: C_17  and  C_18 
ROOT
HETATM    1  C   UNL     1      25.759  46.780  50.266  1.00  0.00     0.288 C 
HETATM    2  N   UNL     1      25.490  46.457  51.581  1.00  0.00    -0.262 N 
HETATM    3  O   UNL     1      26.684  46.257  49.646  1.00  0.00    -0.264 OA
HETATM    4  H   UNL     1      24.859  47.002  52.163  1.00  0.00     0.190 HD
ENDROOT
BRANCH   1   5
HETATM    5  C   UNL     1      24.901  47.772  49.682  1.00  0.00     0.121 A 
HETATM    6  N   UNL     1      25.402  48.915  49.126  1.00  0.00    -0.272 N 
HETATM    7  N   UNL     1      24.470  49.745  48.637  1.00  0.00    -0.174 NA
HETATM    8  H   UNL     1      26.380  49.182  49.059  1.00  0.00     0.189 HD
HETATM    9  C   UNL     1      23.303  49.117  48.858  1.00  0.00     0.089 A 
HETATM   10  C   UNL     1      23.533  47.876  49.518  1.00  0.00     0.071 A 
BRANCH   9  11
HETATM   11  C   UNL     1      22.023  49.710  48.449  1.00  0.00    -0.005 A 
HETATM   12  C   UNL     1      21.086  48.979  47.710  1.00  0.00     0.016 A 
HETATM   13  C   UNL     1      19.866  49.559  47.337  1.00  0.00     0.037 A 
HETATM   14  C   UNL     1      19.559  50.872  47.696  1.00  0.00     0.068 A 
HETATM   15  C   UNL     1      20.488  51.611  48.424  1.00  0.00     0.037 A 
HETATM   16  C   UNL     1      21.709  51.032  48.796  1.00  0.00     0.016 A 
BRANCH  14  17
HETATM   17  O   UNL     1      18.335  51.310  47.273  1.00  0.00    -0.356 OA
HETATM   18  C   UNL     1      17.852  50.777  46.046  1.00  0.00     0.210 C 
ENDBRANCH  14  17
ENDBRANCH   9  11
ENDBRANCH   1   5
BRANCH   2  19
HETATM   19  N   UNL     1      26.395  45.632  52.264  1.00  0.00    -0.267 N 
HETATM   20  C   UNL     1      25.890  44.570  52.977  1.00  0.00     0.240 C 
HETATM   21  O   UNL     1      24.709  44.234  52.942  1.00  0.00    -0.271 OA
HETATM   22  H   UNL     1      27.332  46.004  52.407  1.00  0.00     0.190 HD
BRANCH  20  23
HETATM   23  C   UNL     1      26.884  43.867  53.832  1.00  0.00     0.089 A 
HETATM   24  C   UNL     1      28.370  44.090  53.591  1.00  0.00     0.034 A 
HETATM   25  C   UNL     1      27.728  42.764  53.252  1.00  0.00     0.025 A 
BRANCH  24  26
HETATM   26  C   UNL     1      29.315  44.214  54.772  1.00  0.00    -0.031 A 
HETATM   27  C   UNL     1      29.410  45.378  55.562  1.00  0.00     0.040 A 
HETATM   28 CL   UNL     1      28.426  46.763  55.227  1.00  0.00    -0.084 Cl
HETATM   29  C   UNL     1      30.304  45.466  56.635  1.00  0.00     0.024 A 
HETATM   30  C   UNL     1      31.134  44.391  56.943  1.00  0.00     0.002 A 
HETATM   31  C   UNL     1      31.075  43.235  56.173  1.00  0.00     0.001 A 
HETATM   32  C   UNL     1      30.182  43.153  55.101  1.00  0.00     0.009 A 
ENDBRANCH  24  26
ENDBRANCH  20  23
ENDBRANCH   2  19
TORSDOF 6
ENDMDL
MODEL 3
REMARK VINA RESULT:      -9.5      3.022     11.338
REMARK  6 active torsions:
REMARK  status: ('A' for Active; 'I' for Inactive)
REMARK    1  A    between atoms: O_2  and  C_3 
REMARK    2  A    between atoms: C_6  and  C_7 
REMARK    3  A    between atoms: C_11  and  C_12 
REMARK       I    between atoms: C_12  and  N_13 
REMARK    4  A    between atoms: N_13  and  N_14 
REMARK       I    between atoms: N_14  and  C_15 
REMARK    5  A    between atoms: C_15  and  C_16 
REMARK    6  A    between atoms: C_17  and  C_18 
ROOT
HETATM    1  C   UNL     1      24.739  45.389  50.381  1.00  0.00     0.288 C 
HETATM    2  N   UNL     1      24.578  46.759  50.395  1.00  0.00    -0.262 N 
HETATM    3  O   UNL     1      24.098  44.669  49.617  1.00  0.00    -0.264 OA
HETATM    4  H   UNL     1      24.954  47.350  51.134  1.00  0.00     0.190 HD
ENDROOT
BRANCH   1   5
HETATM    5  C   UNL     1      25.689  44.865  51.322  1.00  0.00     0.121 A 
HETATM    6  N   UNL     1      25.923  43.523  51.431  1.00  0.00    -0.272 N 
HETATM    7  N   UNL     1      26.827  43.195  52.364  1.00  0.00    -0.174 NA
HETATM    8  H   UNL     1      25.485  42.783  50.891  1.00  0.00     0.189 HD
HETATM    9  C   UNL     1      27.226  44.369  52.882  1.00  0.00     0.089 A 
HETATM   10  C   UNL     1      26.528  45.441  52.254  1.00  0.00     0.071 A 
BRANCH   9  11
HETATM   11  C   UNL     1      28.235  44.436  53.946  1.00  0.00    -0.005 A 
HETATM   12  C   UNL     1      29.162  43.403  54.136  1.00  0.00     0.016 A 
HETATM   13  C   UNL     1      30.123  43.489  55.151  1.00  0.00     0.037 A 
HETATM   14  C   UNL     1      30.181  44.603  55.991  1.00  0.00     0.068 A 
HETATM   15  C   UNL     1      29.258  45.631  55.816  1.00  0.00     0.037 A 
HETATM   16  C   UNL     1      28.295  45.545  54.802  1.00  0.00     0.016 A 
BRANCH  14  17
HETATM   17  O   UNL     1      31.170  44.559  56.933  1.00  0.00    -0.356 OA
HETATM   18  C   UNL     1      31.797  43.301  57.146  1.00  0.00     0.210 C 
ENDBRANCH  14  17
ENDBRANCH   9  11
ENDBRANCH   1   5
BRANCH   2  19
HETATM   19  N   UNL     1      23.543  47.317  49.632  1.00  0.00    -0.267 N 
HETATM   20  C   UNL     1      23.700  48.607  49.176  1.00  0.00     0.240 C 
HETATM   21  O   UNL     1      24.744  49.241  49.293  1.00  0.00    -0.271 OA
HETATM   22  H   UNL     1      22.641  46.847  49.673  1.00  0.00     0.190 HD
BRANCH  20  23
HETATM   23  C   UNL     1      22.485  49.195  48.551  1.00  0.00     0.089 A 
HETATM   24  C   UNL     1      21.137  49.039  49.239  1.00  0.00     0.034 A 
HETATM   25  C   UNL     1      21.434  48.297  47.955  1.00  0.00     0.025 A 
BRANCH  24  26
HETATM   26  C   UNL     1      20.159  50.199  49.253  1.00  0.00    -0.031 A 
HETATM   27  C   UNL     1      19.019  50.233  50.082  1.00  0.00     0.040 A 
HETATM   28 CL   UNL     1      18.665  48.927  51.162  1.00  0.00    -0.084 Cl
HETATM   29  C   UNL     1      18.128  51.312  50.061  1.00  0.00     0.024 A 
HETATM   30  C   UNL     1      18.349  52.385  49.201  1.00  0.00     0.002 A 
HETATM   31  C   UNL     1      19.456  52.373  48.359  1.00  0.00     0.001 A 
HETATM   32  C   UNL     1      20.342  51.293  48.383  1.00  0.00     0.009 A 
ENDBRANCH  24  26
ENDBRANCH  20  23
ENDBRANCH   2  19
TORSDOF 6
ENDMDL
MODEL 4
REMARK VINA RESULT:      -9.2      3.024     11.416
REMARK  6 active torsions:
REMARK  status: ('A' for Active; 'I' for Inactive)
REMARK    1  A    between atoms: O_2  and  C_3 
REMARK    2  A    between atoms: C_6  and  C_7 
REMARK    3  A    between atoms: C_11  and  C_12 
REMARK       I    between atoms: C_12  and  N_13 
REMARK    4  A    between atoms: N_13  and  N_14 
REMARK       I    between atoms: N_14  and  C_15 
REMARK    5  A    between atoms: C_15  and  C_16 
REMARK    6  A    between atoms: C_17  and  C_18 
ROOT
HETATM    1  C   UNL     1      24.495  44.656  50.661  1.00  0.00     0.288 C 
HETATM    2  N   UNL     1      24.878  45.623  49.755  1.00  0.00    -0.262 N 
HETATM    3  O   UNL     1      23.356  44.192  50.672  1.00  0.00    -0.264 OA
HETATM    4  H   UNL     1      25.745  46.148  49.844  1.00  0.00     0.190 HD
ENDROOT
BRANCH   1   5
HETATM    5  C   UNL     1      25.507  44.241  51.592  1.00  0.00     0.121 A 
HETATM    6  N   UNL     1      25.746  42.921  51.849  1.00  0.00    -0.272 N 
HETATM    7  N   UNL     1      26.712  42.700  52.751  1.00  0.00    -0.174 NA
HETATM    8  H   UNL     1      25.270  42.124  51.436  1.00  0.00     0.189 HD
HETATM    9  C   UNL     1      27.147  43.924  53.092  1.00  0.00     0.089 A 
HETATM   10  C   UNL     1      26.410  44.919  52.387  1.00  0.00     0.071 A 
BRANCH   9  11
HETATM   11  C   UNL     1      28.228  44.111  54.068  1.00  0.00    -0.005 A 
HETATM   12  C   UNL     1      29.186  43.115  54.293  1.00  0.00     0.016 A 
HETATM   13  C   UNL     1      30.215  43.314  55.222  1.00  0.00     0.037 A 
HETATM   14  C   UNL     1      30.310  44.507  55.940  1.00  0.00     0.068 A 
HETATM   15  C   UNL     1      29.357  45.501  55.731  1.00  0.00     0.037 A 
HETATM   16  C   UNL     1      28.326  45.302  54.803  1.00  0.00     0.016 A 
BRANCH  14  17
HETATM   17  O   UNL     1      31.364  44.571  56.808  1.00  0.00    -0.356 OA
HETATM   18  C   UNL     1      31.973  43.338  57.169  1.00  0.00     0.210 C 
ENDBRANCH  14  17
ENDBRANCH   9  11
ENDBRANCH   1   5
BRANCH   2  19
HETATM   19  N   UNL     1      23.894  46.199  48.939  1.00  0.00    -0.267 N 
HETATM   20  C   UNL     1      23.582  47.524  49.142  1.00  0.00     0.240 C 
HETATM   21  O   UNL     1      24.204  48.255  49.907  1.00  0.00    -0.271 OA
HETATM   22  H   UNL     1      23.293  45.558  48.427  1.00  0.00     0.190 HD
BRANCH  20  23
HETATM   23  C   UNL     1      22.398  48.006  48.381  1.00  0.00     0.089 A 
HETATM   24  C   UNL     1      21.109  48.327  49.123  1.00  0.00     0.034 A 
HETATM   25  C   UNL     1      21.194  47.117  48.220  1.00  0.00     0.025 A 
BRANCH  24  26
HETATM   26  C   UNL     1      20.288  49.538  48.720  1.00  0.00    -0.031 A 
HETATM   27  C   UNL     1      20.547  50.837  49.203  1.00  0.00     0.040 A 
HETATM   28 CL   UNL     1      21.852  51.134  50.301  1.00  0.00    -0.084 Cl
HETATM   29  C   UNL     1      19.761  51.932  48.823  1.00  0.00     0.024 A 
HETATM   30  C   UNL     1      18.687  51.753  47.956  1.00  0.00     0.002 A 
HETATM   31  C   UNL     1      18.396  50.480  47.476  1.00  0.00     0.001 A 
HETATM   32  C   UNL     1      19.182  49.391  47.859  1.00  0.00     0.009 A 
ENDBRANCH  24  26
ENDBRANCH  20  23
ENDBRANCH   2  19
TORSDOF 6
ENDMDL
MODEL 5
REMARK VINA RESULT:      -9.0      3.010     11.423
REMARK  6 active torsions:
REMARK  status: ('A' for Active; 'I' for Inactive)
REMARK    1  A    between atoms: O_2  and  C_3 
REMARK    2  A    between atoms: C_6  and  C_7 
REMARK    3  A    between atoms: C_11  and  C_12 
REMARK       I    between atoms: C_12  and  N_13 
REMARK    4  A    between atoms: N_13  and  N_14 
REMARK       I    between atoms: N_14  and  C_15 
REMARK    5  A    between atoms: C_15  and  C_16 
REMARK    6  A    between atoms: C_17  and  C_18 
ROOT
HETATM    1  C   UNL     1      24.449  45.831  50.084  1.00  0.00     0.288 C 
HETATM    2  N   UNL     1      24.464  47.202  50.243  1.00  0.00    -0.262 N 
HETATM    3  O   UNL     1      23.532  45.257  49.498  1.00  0.00    -0.264 OA
HETATM    4  H   UNL     1      25.106  47.675  50.875  1.00  0.00     0.190 HD
ENDROOT
BRANCH   1   5
HETATM    5  C   UNL     1      25.561  45.126  50.657  1.00  0.00     0.121 A 
HETATM    6  N   UNL     1      26.140  44.064  50.021  1.00  0.00    -0.272 N 
HETATM    7  N   UNL     1      27.157  43.507  50.691  1.00  0.00    -0.174 NA
HETATM    8  H   UNL     1      25.872  43.673  49.122  1.00  0.00     0.189 HD
HETATM    9  C   UNL     1      27.274  44.243  51.810  1.00  0.00     0.089 A 
HETATM   10  C   UNL     1      26.284  45.268  51.825  1.00  0.00     0.071 A 
BRANCH   9  11
HETATM   11  C   UNL     1      28.300  43.951  52.818  1.00  0.00    -0.005 A 
HETATM   12  C   UNL     1      28.242  44.512  54.100  1.00  0.00     0.016 A 
HETATM   13  C   UNL     1      29.225  44.214  55.051  1.00  0.00     0.037 A 
HETATM   14  C   UNL     1      30.280  43.352  54.746  1.00  0.00     0.068 A 
HETATM   15  C   UNL     1      30.351  42.795  53.471  1.00  0.00     0.037 A 
HETATM   16  C   UNL     1      29.369  43.093  52.518  1.00  0.00     0.016 A 
BRANCH  14  17
HETATM   17  O   UNL     1      31.164  43.144  55.767  1.00  0.00    -0.356 OA
HETATM   18  C   UNL     1      31.155  44.093  56.826  1.00  0.00     0.210 C 
ENDBRANCH  14  17
ENDBRANCH   9  11
ENDBRANCH   1   5
BRANCH   2  19
HETATM   19  N   UNL     1      23.326  47.930  49.868  1.00  0.00    -0.267 N 
HETATM   20  C   UNL     1      23.508  49.200  49.369  1.00  0.00     0.240 C 
HETATM   21  O   UNL     1      24.612  49.675  49.118  1.00  0.00    -0.271 OA
HETATM   22  H   UNL     1      22.432  47.591  50.217  1.00  0.00     0.190 HD
BRANCH  20  23
HETATM   23  C   UNL     1      22.254  49.978  49.183  1.00  0.00     0.089 A 
HETATM   24  C   UNL     1      21.624  50.066  47.801  1.00  0.00     0.034 A 
HETATM   25  C   UNL     1      22.280  51.278  48.425  1.00  0.00     0.025 A 
BRANCH  24  26
HETATM   26  C   UNL     1      20.116  49.993  47.654  1.00  0.00    -0.031 A 
HETATM   27  C   UNL     1      19.412  48.776  47.543  1.00  0.00     0.040 A 
HETATM   28 CL   UNL     1      20.248  47.260  47.578  1.00  0.00    -0.084 Cl
HETATM   29  C   UNL     1      18.021  48.743  47.393  1.00  0.00     0.024 A 
HETATM   30  C   UNL     1      17.296  49.930  47.340  1.00  0.00     0.002 A 
HETATM   31  C   UNL     1      17.962  51.147  47.430  1.00  0.00     0.001 A 
HETATM   32  C   UNL     1      19.351  51.175  47.578  1.00  0.00     0.009 A 
ENDBRANCH  24  26
ENDBRANCH  20  23
ENDBRANCH   2  19
TORSDOF 6
ENDMDL
MODEL 6
REMARK VINA RESULT:      -8.9      2.119      2.603
REMARK  6 active torsions:
REMARK  status: ('A' for Active; 'I' for Inactive)
REMARK    1  A    between atoms: O_2  and  C_3 
REMARK    2  A    between atoms: C_6  and  C_7 
REMARK    3  A    between atoms: C_11  and  C_12 
REMARK       I    between atoms: C_12  and  N_13 
REMARK    4  A    between atoms: N_13  and  N_14 
REMARK       I    between atoms: N_14  and  C_15 
REMARK    5  A    between atoms: C_15  and  C_16 
REMARK    6  A    between atoms: C_17  and  C_18 
ROOT
HETATM    1  C   UNL     1      24.857  48.028  49.578  1.00  0.00     0.288 C 
HETATM    2  N   UNL     1      24.336  46.889  50.159  1.00  0.00    -0.262 N 
HETATM    3  O   UNL     1      26.069  48.224  49.508  1.00  0.00    -0.264 OA
HETATM    4  H   UNL     1      23.351  46.791  50.392  1.00  0.00     0.190 HD
ENDROOT
BRANCH   1   5
HETATM    5  C   UNL     1      23.892  48.966  49.077  1.00  0.00     0.121 A 
HETATM    6  N   UNL     1      24.270  50.156  48.525  1.00  0.00    -0.272 N 
HETATM    7  N   UNL     1      23.251  50.925  48.117  1.00  0.00    -0.174 NA
HETATM    8  H   UNL     1      25.220  50.498  48.406  1.00  0.00     0.189 HD
HETATM    9  C   UNL     1      22.150  50.206  48.391  1.00  0.00     0.089 A 
HETATM   10  C   UNL     1      22.513  48.969  48.999  1.00  0.00     0.071 A 
BRANCH   9  11
HETATM   11  C   UNL     1      20.807  50.709  48.079  1.00  0.00    -0.005 A 
HETATM   12  C   UNL     1      20.051  50.169  47.031  1.00  0.00     0.016 A 
HETATM   13  C   UNL     1      18.768  50.657  46.754  1.00  0.00     0.037 A 
HETATM   14  C   UNL     1      18.214  51.687  47.516  1.00  0.00     0.068 A 
HETATM   15  C   UNL     1      18.960  52.238  48.555  1.00  0.00     0.037 A 
HETATM   16  C   UNL     1      20.245  51.751  48.832  1.00  0.00     0.016 A 
BRANCH  14  17
HETATM   17  O   UNL     1      16.954  52.062  47.142  1.00  0.00    -0.356 OA
HETATM   18  C   UNL     1      16.066  52.451  48.182  1.00  0.00     0.210 C 
ENDBRANCH  14  17
ENDBRANCH   9  11
ENDBRANCH   1   5
BRANCH   2  19
HETATM   19  N   UNL     1      25.212  46.020  50.825  1.00  0.00    -0.267 N 
HETATM   20  C   UNL     1      24.715  44.816  51.268  1.00  0.00     0.240 C 
HETATM   21  O   UNL     1      23.588  44.411  50.998  1.00  0.00    -0.271 OA
HETATM   22  H   UNL     1      26.082  46.423  51.169  1.00  0.00     0.190 HD
BRANCH  20  23
HETATM   23  C   UNL     1      25.643  44.042  52.135  1.00  0.00     0.089 A 
HETATM   24  C   UNL     1      27.146  44.198  51.951  1.00  0.00     0.034 A 
HETATM   25  C   UNL     1      26.453  42.914  51.553  1.00  0.00     0.025 A 
BRANCH  24  26
HETATM   26  C   UNL     1      28.054  44.243  53.166  1.00  0.00    -0.031 A 
HETATM   27  C   UNL     1      28.042  45.304  54.095  1.00  0.00     0.040 A 
HETATM   28 CL   UNL     1      26.960  46.642  53.904  1.00  0.00    -0.084 Cl
HETATM   29  C   UNL     1      28.903  45.323  55.198  1.00  0.00     0.024 A 
HETATM   30  C   UNL     1      29.808  44.283  55.396  1.00  0.00     0.002 A 
HETATM   31  C   UNL     1      29.855  43.231  54.488  1.00  0.00     0.001 A 
HETATM   32  C   UNL     1      28.994  43.217  53.388  1.00  0.00     0.009 A 
ENDBRANCH  24  26
ENDBRANCH  20  23
ENDBRANCH   2  19
TORSDOF 6
ENDMDL
MODEL 7
REMARK VINA RESULT:      -8.6      1.645      2.389
REMARK  6 active torsions:
REMARK  status: ('A' for Active; 'I' for Inactive)
REMARK    1  A    between atoms: O_2  and  C_3 
REMARK    2  A    between atoms: C_6  and  C_7 
REMARK    3  A    between atoms: C_11  and  C_12 
REMARK       I    between atoms: C_12  and  N_13 
REMARK    4  A    between atoms: N_13  and  N_14 
REMARK       I    between atoms: N_14  and  C_15 
REMARK    5  A    between atoms: C_15  and  C_16 
REMARK    6  A    between atoms: C_17  and  C_18 
ROOT
HETATM    1  C   UNL     1      23.454  48.768  49.445  1.00  0.00     0.288 C 
HETATM    2  N   UNL     1      23.635  47.627  50.200  1.00  0.00    -0.262 N 
HETATM    3  O   UNL     1      24.387  49.524  49.179  1.00  0.00    -0.264 OA
HETATM    4  H   UNL     1      22.859  47.093  50.585  1.00  0.00     0.190 HD
ENDROOT
BRANCH   1   5
HETATM    5  C   UNL     1      22.109  49.016  49.007  1.00  0.00     0.121 A 
HETATM    6  N   UNL     1      21.074  48.208  49.383  1.00  0.00    -0.272 N 
HETATM    7  N   UNL     1      19.884  48.565  48.879  1.00  0.00    -0.174 NA
HETATM    8  H   UNL     1      21.126  47.389  49.982  1.00  0.00     0.189 HD
HETATM    9  C   UNL     1      20.137  49.669  48.156  1.00  0.00     0.089 A 
HETATM   10  C   UNL     1      21.526  49.980  48.209  1.00  0.00     0.071 A 
BRANCH   9  11
HETATM   11  C   UNL     1      19.069  50.379  47.441  1.00  0.00    -0.005 A 
HETATM   12  C   UNL     1      18.019  50.999  48.128  1.00  0.00     0.016 A 
HETATM   13  C   UNL     1      17.015  51.680  47.429  1.00  0.00     0.037 A 
HETATM   14  C   UNL     1      17.039  51.757  46.035  1.00  0.00     0.068 A 
HETATM   15  C   UNL     1      18.074  51.136  45.341  1.00  0.00     0.037 A 
HETATM   16  C   UNL     1      19.079  50.453  46.040  1.00  0.00     0.016 A 
BRANCH  14  17
HETATM   17  O   UNL     1      16.002  52.455  45.482  1.00  0.00    -0.356 OA
HETATM   18  C   UNL     1      15.041  52.994  46.380  1.00  0.00     0.210 C 
ENDBRANCH  14  17
ENDBRANCH   9  11
ENDBRANCH   1   5
BRANCH   2  19
HETATM   19  N   UNL     1      24.882  47.420  50.808  1.00  0.00    -0.267 N 
HETATM   20  C   UNL     1      25.145  46.176  51.333  1.00  0.00     0.240 C 
HETATM   21  O   UNL     1      24.403  45.210  51.185  1.00  0.00    -0.271 OA
HETATM   22  H   UNL     1      25.413  48.253  51.055  1.00  0.00     0.190 HD
BRANCH  20  23
HETATM   23  C   UNL     1      26.397  46.093  52.133  1.00  0.00     0.089 A 
HETATM   24  C   UNL     1      26.515  45.051  53.236  1.00  0.00     0.034 A 
HETATM   25  C   UNL     1      26.398  46.520  53.576  1.00  0.00     0.025 A 
BRANCH  24  26
HETATM   26  C   UNL     1      27.824  44.311  53.438  1.00  0.00    -0.031 A 
HETATM   27  C   UNL     1      28.340  43.392  52.500  1.00  0.00     0.040 A 
HETATM   28 CL   UNL     1      27.494  43.054  51.028  1.00  0.00    -0.084 Cl
HETATM   29  C   UNL     1      29.544  42.714  52.724  1.00  0.00     0.024 A 
HETATM   30  C   UNL     1      30.260  42.931  53.898  1.00  0.00     0.002 A 
HETATM   31  C   UNL     1      29.769  43.818  54.849  1.00  0.00     0.001 A 
HETATM   32  C   UNL     1      28.566  44.492  54.622  1.00  0.00     0.009 A 
ENDBRANCH  24  26
ENDBRANCH  20  23
ENDBRANCH   2  19
TORSDOF 6
ENDMDL
MODEL 8
REMARK VINA RESULT:      -8.5      3.901      4.636
REMARK  6 active torsions:
REMARK  status: ('A' for Active; 'I' for Inactive)
REMARK    1  A    between atoms: O_2  and  C_3 
REMARK    2  A    between atoms: C_6  and  C_7 
REMARK    3  A    between atoms: C_11  and  C_12 
REMARK       I    between atoms: C_12  and  N_13 
REMARK    4  A    between atoms: N_13  and  N_14 
REMARK       I    between atoms: N_14  and  C_15 
REMARK    5  A    between atoms: C_15  and  C_16 
REMARK    6  A    between atoms: C_17  and  C_18 
ROOT
HETATM    1  C   UNL     1      25.134  42.695  50.431  1.00  0.00     0.288 C 
HETATM    2  N   UNL     1      25.803  43.602  51.227  1.00  0.00    -0.262 N 
HETATM    3  O   UNL     1      25.357  41.487  50.496  1.00  0.00    -0.264 OA
HETATM    4  H   UNL     1      25.771  44.606  51.063  1.00  0.00     0.190 HD
ENDROOT
BRANCH   1   5
HETATM    5  C   UNL     1      24.177  43.257  49.519  1.00  0.00     0.121 A 
HETATM    6  N   UNL     1      24.530  43.643  48.258  1.00  0.00    -0.272 N 
HETATM    7  N   UNL     1      23.526  44.159  47.536  1.00  0.00    -0.174 NA
HETATM    8  H   UNL     1      25.453  43.579  47.837  1.00  0.00     0.189 HD
HETATM    9  C   UNL     1      22.456  44.094  48.345  1.00  0.00     0.089 A 
HETATM   10  C   UNL     1      22.827  43.536  49.603  1.00  0.00     0.071 A 
BRANCH   9  11
HETATM   11  C   UNL     1      21.135  44.564  47.910  1.00  0.00    -0.005 A 
HETATM   12  C   UNL     1      20.382  45.448  48.693  1.00  0.00     0.016 A 
HETATM   13  C   UNL     1      19.127  45.892  48.257  1.00  0.00     0.037 A 
HETATM   14  C   UNL     1      18.602  45.468  47.035  1.00  0.00     0.068 A 
HETATM   15  C   UNL     1      19.339  44.582  46.252  1.00  0.00     0.037 A 
HETATM   16  C   UNL     1      20.594  44.136  46.689  1.00  0.00     0.016 A 
BRANCH  14  17
HETATM   17  O   UNL     1      17.373  45.982  46.730  1.00  0.00    -0.356 OA
HETATM   18  C   UNL     1      16.903  47.046  47.547  1.00  0.00     0.210 C 
ENDBRANCH  14  17
ENDBRANCH   9  11
ENDBRANCH   1   5
BRANCH   2  19
HETATM   19  N   UNL     1      26.873  43.142  52.007  1.00  0.00    -0.267 N 
HETATM   20  C   UNL     1      26.857  43.424  53.355  1.00  0.00     0.240 C 
HETATM   21  O   UNL     1      25.901  43.941  53.925  1.00  0.00    -0.271 OA
HETATM   22  H   UNL     1      27.713  42.856  51.508  1.00  0.00     0.190 HD
BRANCH  20  23
HETATM   23  C   UNL     1      28.113  43.082  54.075  1.00  0.00     0.089 A 
HETATM   24  C   UNL     1      29.201  44.134  54.227  1.00  0.00     0.034 A 
HETATM   25  C   UNL     1      29.404  42.947  53.313  1.00  0.00     0.025 A 
BRANCH  24  26
HETATM   26  C   UNL     1      29.965  44.246  55.533  1.00  0.00    -0.031 A 
HETATM   27  C   UNL     1      29.757  45.290  56.459  1.00  0.00     0.040 A 
HETATM   28 CL   UNL     1      28.586  46.527  56.154  1.00  0.00    -0.084 Cl
HETATM   29  C   UNL     1      30.490  45.372  57.648  1.00  0.00     0.024 A 
HETATM   30  C   UNL     1      31.458  44.415  57.941  1.00  0.00     0.002 A 
HETATM   31  C   UNL     1      31.698  43.383  57.040  1.00  0.00     0.001 A 
HETATM   32  C   UNL     1      30.965  43.305  55.853  1.00  0.00     0.009 A 
ENDBRANCH  24  26
ENDBRANCH  20  23
ENDBRANCH   2  19
TORSDOF 6
ENDMDL
MODEL 9
REMARK VINA RESULT:      -8.5      2.725      3.832
REMARK  6 active torsions:
REMARK  status: ('A' for Active; 'I' for Inactive)
REMARK    1  A    between atoms: O_2  and  C_3 
REMARK    2  A    between atoms: C_6  and  C_7 
REMARK    3  A    between atoms: C_11  and  C_12 
REMARK       I    between atoms: C_12  and  N_13 
REMARK    4  A    between atoms: N_13  and  N_14 
REMARK       I    between atoms: N_14  and  C_15 
REMARK    5  A    between atoms: C_15  and  C_16 
REMARK    6  A    between atoms: C_17  and  C_18 
ROOT
HETATM    1  C   UNL     1      22.425  49.669  49.460  1.00  0.00     0.288 C 
HETATM    2  N   UNL     1      22.718  48.333  49.644  1.00  0.00    -0.262 N 
HETATM    3  O   UNL     1      23.283  50.543  49.578  1.00  0.00    -0.264 OA
HETATM    4  H   UNL     1      21.998  47.619  49.733  1.00  0.00     0.190 HD
ENDROOT
BRANCH   1   5
HETATM    5  C   UNL     1      21.058  49.967  49.137  1.00  0.00     0.121 A 
HETATM    6  N   UNL     1      20.310  49.135  48.352  1.00  0.00    -0.272 N 
HETATM    7  N   UNL     1      19.059  49.560  48.132  1.00  0.00    -0.174 NA
HETATM    8  H   UNL     1      20.611  48.260  47.933  1.00  0.00     0.189 HD
HETATM    9  C   UNL     1      18.964  50.712  48.818  1.00  0.00     0.089 A 
HETATM   10  C   UNL     1      20.203  51.002  49.458  1.00  0.00     0.071 A 
BRANCH   9  11
HETATM   11  C   UNL     1      17.722  51.495  48.836  1.00  0.00    -0.005 A 
HETATM   12  C   UNL     1      17.424  52.362  49.894  1.00  0.00     0.016 A 
HETATM   13  C   UNL     1      16.238  53.107  49.890  1.00  0.00     0.037 A 
HETATM   14  C   UNL     1      15.331  53.004  48.833  1.00  0.00     0.068 A 
HETATM   15  C   UNL     1      15.614  52.137  47.780  1.00  0.00     0.037 A 
HETATM   16  C   UNL     1      16.799  51.390  47.784  1.00  0.00     0.016 A 
BRANCH  14  17
HETATM   17  O   UNL     1      14.219  53.790  48.954  1.00  0.00    -0.356 OA
HETATM   18  C   UNL     1      13.594  53.824  50.230  1.00  0.00     0.210 C 
ENDBRANCH  14  17
ENDBRANCH   9  11
ENDBRANCH   1   5
BRANCH   2  19
HETATM   19  N   UNL     1      23.985  47.989  50.134  1.00  0.00    -0.267 N 
HETATM   20  C   UNL     1      24.320  46.655  50.181  1.00  0.00     0.240 C 
HETATM   21  O   UNL     1      23.621  45.767  49.701  1.00  0.00    -0.271 OA
HETATM   22  H   UNL     1      24.482  48.706  50.660  1.00  0.00     0.190 HD
BRANCH  20  23
HETATM   23  C   UNL     1      25.591  46.359  50.895  1.00  0.00     0.089 A 
HETATM   24  C   UNL     1      25.545  45.695  52.263  1.00  0.00     0.034 A 
HETATM   25  C   UNL     1      25.963  47.142  52.125  1.00  0.00     0.025 A 
BRANCH  24  26
HETATM   26  C   UNL     1      26.562  44.626  52.617  1.00  0.00    -0.031 A 
HETATM   27  C   UNL     1      26.505  43.312  52.107  1.00  0.00     0.040 A 
HETATM   28 CL   UNL     1      25.248  42.835  51.017  1.00  0.00    -0.084 Cl
HETATM   29  C   UNL     1      27.450  42.344  52.466  1.00  0.00     0.024 A 
HETATM   30  C   UNL     1      28.475  42.663  53.353  1.00  0.00     0.002 A 
HETATM   31  C   UNL     1      28.549  43.945  53.886  1.00  0.00     0.001 A 
HETATM   32  C   UNL     1      27.602  44.908  53.526  1.00  0.00     0.009 A 
ENDBRANCH  24  26
ENDBRANCH  20  23
ENDBRANCH   2  19
TORSDOF 6
ENDMDL
MODEL 10
REMARK VINA RESULT:      -8.4      1.554      2.245
REMARK  6 active torsions:
REMARK  status: ('A' for Active; 'I' for Inactive)
REMARK    1  A    between atoms: O_2  and  C_3 
REMARK    2  A    between atoms: C_6  and  C_7 
REMARK    3  A    between atoms: C_11  and  C_12 
REMARK       I    between atoms: C_12  and  N_13 
REMARK    4  A    between atoms: N_13  and  N_14 
REMARK       I    between atoms: N_14  and  C_15 
REMARK    5  A    between atoms: C_15  and  C_16 
REMARK    6  A    between atoms: C_17  and  C_18 
ROOT
HETATM    1  C   UNL     1      25.323  46.726  50.647  1.00  0.00     0.288 C 
HETATM    2  N   UNL     1      25.287  45.398  51.021  1.00  0.00    -0.262 N 
HETATM    3  O   UNL     1      26.301  47.437  50.873  1.00  0.00    -0.264 OA
HETATM    4  H   UNL     1      24.432  44.847  51.012  1.00  0.00     0.190 HD
ENDROOT
BRANCH   1   5
HETATM    5  C   UNL     1      24.144  47.219  49.991  1.00  0.00     0.121 A 
HETATM    6  N   UNL     1      23.337  46.397  49.257  1.00  0.00    -0.272 N 
HETATM    7  N   UNL     1      22.285  47.012  48.699  1.00  0.00    -0.174 NA
HETATM    8  H   UNL     1      23.462  45.401  49.101  1.00  0.00     0.189 HD
HETATM    9  C   UNL     1      22.387  48.292  49.096  1.00  0.00     0.089 A 
HETATM   10  C   UNL     1      23.546  48.461  49.906  1.00  0.00     0.071 A 
BRANCH   9  11
HETATM   11  C   UNL     1      21.400  49.301  48.693  1.00  0.00    -0.005 A 
HETATM   12  C   UNL     1      21.203  50.467  49.443  1.00  0.00     0.016 A 
HETATM   13  C   UNL     1      20.263  51.423  49.038  1.00  0.00     0.037 A 
HETATM   14  C   UNL     1      19.507  51.237  47.879  1.00  0.00     0.068 A 
HETATM   15  C   UNL     1      19.689  50.077  47.130  1.00  0.00     0.037 A 
HETATM   16  C   UNL     1      20.627  49.119  47.536  1.00  0.00     0.016 A 
BRANCH  14  17
HETATM   17  O   UNL     1      18.632  52.249  47.598  1.00  0.00    -0.356 OA
HETATM   18  C   UNL     1      17.288  52.073  48.029  1.00  0.00     0.210 C 
ENDBRANCH  14  17
ENDBRANCH   9  11
ENDBRANCH   1   5
BRANCH   2  19
HETATM   19  N   UNL     1      26.327  44.902  51.820  1.00  0.00    -0.267 N 
HETATM   20  C   UNL     1      26.000  44.367  53.046  1.00  0.00     0.240 C 
HETATM   21  O   UNL     1      24.844  44.187  53.417  1.00  0.00    -0.271 OA
HETATM   22  H   UNL     1      27.271  45.191  51.573  1.00  0.00     0.190 HD
BRANCH  20  23
HETATM   23  C   UNL     1      27.165  44.049  53.914  1.00  0.00     0.089 A 
HETATM   24  C   UNL     1      28.281  45.070  54.075  1.00  0.00     0.034 A 
HETATM   25  C   UNL     1      28.515  43.794  53.298  1.00  0.00     0.025 A 
BRANCH  24  26
HETATM   26  C   UNL     1      28.923  45.278  55.435  1.00  0.00    -0.031 A 
HETATM   27  C   UNL     1      30.091  44.602  55.845  1.00  0.00     0.040 A 
HETATM   28 CL   UNL     1      30.883  43.477  54.793  1.00  0.00    -0.084 Cl
HETATM   29  C   UNL     1      30.649  44.804  57.112  1.00  0.00     0.024 A 
HETATM   30  C   UNL     1      30.047  45.684  58.009  1.00  0.00     0.002 A 
HETATM   31  C   UNL     1      28.885  46.353  57.640  1.00  0.00     0.001 A 
HETATM   32  C   UNL     1      28.331  46.146  56.374  1.00  0.00     0.009 A 
ENDBRANCH  24  26
ENDBRANCH  20  23
ENDBRANCH   2  19
TORSDOF 6
ENDMDL
