MODEL 1
REMARK VINA RESULT:      -9.5      0.000      0.000
REMARK  10 active torsions:
REMARK  status: ('A' for Active; 'I' for Inactive)
REMARK    1  A    between atoms: C_6  and  N_7 
REMARK    2  A    between atoms: C_6  and  C_29 
REMARK       I    between atoms: N_7  and  C_8 
REMARK    3  A    between atoms: N_7  and  C_23 
REMARK    4  A    between atoms: C_8  and  C_9 
REMARK    5  A    between atoms: C_9  and  N_10 
REMARK    6  A    between atoms: C_14  and  C_15 
REMARK    7  A    between atoms: C_23  and  C_24 
REMARK       I    between atoms: C_29  and  N_30 
REMARK    8  A    between atoms: N_30  and  C_31 
REMARK    9  A    between atoms: C_32  and  O_33 
REMARK   10  A    between atoms: C_36  and  O_37 
ROOT
HETATM    1  N   UNL     1      24.129  45.762  49.693  1.00  0.00    -0.326 N 
HETATM    2  C   UNL     1      22.875  45.550  49.096  1.00  0.00     0.239 C 
HETATM    3  O   UNL     1      22.164  44.599  49.409  1.00  0.00    -0.271 OA
ENDROOT
BRANCH   1   4
HETATM    4  C   UNL     1      24.960  44.600  50.172  1.00  0.00     0.120 C 
HETATM    5  C   UNL     1      24.298  43.236  49.889  1.00  0.00     0.069 C 
HETATM    6  C   UNL     1      25.148  42.063  50.366  1.00  0.00     0.237 C 
HETATM    7  N   UNL     1      26.515  42.113  49.747  1.00  0.00    -0.075 N 
HETATM    8  C   UNL     1      27.356  40.938  50.181  1.00  0.00     0.269 C 
HETATM    9  H   UNL     1      26.402  42.024  48.725  1.00  0.00     0.279 HD
HETATM   10  C   UNL     1      27.235  43.420  49.993  1.00  0.00     0.237 C 
HETATM   11  C   UNL     1      26.368  44.566  49.483  1.00  0.00     0.069 C 
BRANCH   4  12
HETATM   12  C   UNL     1      25.275  44.864  51.689  1.00  0.00     0.251 C 
HETATM   13  N   UNL     1      26.490  45.442  51.981  1.00  0.00    -0.323 N 
HETATM   14  H   UNL     1      27.129  45.731  51.249  1.00  0.00     0.169 HD
HETATM   15  O   UNL     1      24.448  44.537  52.540  1.00  0.00    -0.270 OA
BRANCH  13  16
HETATM   16  C   UNL     1      26.987  45.764  53.269  1.00  0.00     0.068 A 
HETATM   17  C   UNL     1      27.844  44.821  53.875  1.00  0.00     0.097 A 
HETATM   18  C   UNL     1      28.390  45.080  55.141  1.00  0.00     0.075 A 
HETATM   19  C   UNL     1      28.083  46.269  55.805  1.00  0.00     0.070 A 
HETATM   20  C   UNL     1      27.215  47.183  55.212  1.00  0.00     0.039 A 
HETATM   21  C   UNL     1      26.671  46.939  53.951  1.00  0.00     0.035 A 
BRANCH  17  22
HETATM   22  O   UNL     1      28.099  43.698  53.115  1.00  0.00    -0.354 OA
HETATM   23  C   UNL     1      27.699  42.447  53.669  1.00  0.00     0.210 C 
ENDBRANCH  17  22
BRANCH  19  24
HETATM   24  O   UNL     1      28.550  46.652  57.032  1.00  0.00    -0.356 OA
HETATM   25  C   UNL     1      29.608  45.888  57.596  1.00  0.00     0.210 C 
ENDBRANCH  19  24
ENDBRANCH  13  16
ENDBRANCH   4  12
ENDBRANCH   1   4
BRANCH   1  26
HETATM   26  C   UNL     1      24.270  47.067  50.355  1.00  0.00     0.192 C 
BRANCH  26  27
HETATM   27  C   UNL     1      25.215  47.980  49.675  1.00  0.00     0.070 A 
HETATM   28  O   UNL     1      26.531  47.716  49.931  1.00  0.00    -0.325 OA
HETATM   29  C   UNL     1      27.265  48.632  49.254  1.00  0.00     0.142 A 
HETATM   30  C   UNL     1      26.441  49.485  48.560  1.00  0.00     0.027 A 
HETATM   31  C   UNL     1      25.116  49.069  48.833  1.00  0.00     0.036 A 
ENDBRANCH  26  27
ENDBRANCH   1  26
BRANCH   2  32
HETATM   32  C   UNL     1      22.552  46.544  47.956  1.00  0.00     0.228 C 
BRANCH  32  33
HETATM   33  N   UNL     1      21.168  46.978  47.893  1.00  0.00    -0.347 N 
HETATM   34  C   UNL     1      20.301  46.907  46.808  1.00  0.00     0.171 C 
HETATM   35  S   UNL     1      20.577  46.298  45.295  1.00  0.00    -0.041 SA
HETATM   36  N   UNL     1      19.097  47.483  47.185  1.00  0.00    -0.357 N 
HETATM   37  C   UNL     1      19.171  48.067  48.508  1.00  0.00     0.135 C 
HETATM   38  H   UNL     1      18.353  47.660  46.522  1.00  0.00     0.162 HD
HETATM   39  C   UNL     1      20.474  47.476  49.070  1.00  0.00     0.155 C 
BRANCH  37  40
HETATM   40  C   UNL     1      19.187  49.583  48.483  1.00  0.00    -0.034 A 
HETATM   41  C   UNL     1      20.414  50.262  48.563  1.00  0.00     0.009 A 
HETATM   42  C   UNL     1      20.466  51.656  48.494  1.00  0.00     0.001 A 
HETATM   43  C   UNL     1      19.294  52.392  48.343  1.00  0.00     0.000 A 
HETATM   44  C   UNL     1      18.069  51.736  48.260  1.00  0.00     0.001 A 
HETATM   45  C   UNL     1      18.015  50.342  48.327  1.00  0.00     0.009 A 
ENDBRANCH  37  40
ENDBRANCH  32  33
ENDBRANCH   2  32
TORSDOF 10
ENDMDL
MODEL 2
REMARK VINA RESULT:      -8.9      2.736      9.230
REMARK  10 active torsions:
REMARK  status: ('A' for Active; 'I' for Inactive)
REMARK    1  A    between atoms: C_6  and  N_7 
REMARK    2  A    between atoms: C_6  and  C_29 
REMARK       I    between atoms: N_7  and  C_8 
REMARK    3  A    between atoms: N_7  and  C_23 
REMARK    4  A    between atoms: C_8  and  C_9 
REMARK    5  A    between atoms: C_9  and  N_10 
REMARK    6  A    between atoms: C_14  and  C_15 
REMARK    7  A    between atoms: C_23  and  C_24 
REMARK       I    between atoms: C_29  and  N_30 
REMARK    8  A    between atoms: N_30  and  C_31 
REMARK    9  A    between atoms: C_32  and  O_33 
REMARK   10  A    between atoms: C_36  and  O_37 
ROOT
HETATM    1  N   UNL     1      23.133  46.748  49.379  1.00  0.00    -0.326 N 
HETATM    2  C   UNL     1      24.246  45.890  49.375  1.00  0.00     0.239 C 
HETATM    3  O   UNL     1      24.635  45.344  48.346  1.00  0.00    -0.271 OA
ENDROOT
BRANCH   1   4
HETATM    4  C   UNL     1      21.995  46.539  48.414  1.00  0.00     0.120 C 
HETATM    5  C   UNL     1      22.461  45.981  47.055  1.00  0.00     0.069 C 
HETATM    6  C   UNL     1      21.303  45.762  46.085  1.00  0.00     0.237 C 
HETATM    7  N   UNL     1      20.271  44.856  46.690  1.00  0.00    -0.075 N 
HETATM    8  C   UNL     1      19.136  44.600  45.729  1.00  0.00     0.269 C 
HETATM    9  H   UNL     1      20.714  43.941  46.861  1.00  0.00     0.279 HD
HETATM   10  C   UNL     1      19.755  45.345  48.025  1.00  0.00     0.237 C 
HETATM   11  C   UNL     1      20.934  45.530  48.973  1.00  0.00     0.069 C 
BRANCH   4  12
HETATM   12  C   UNL     1      21.223  47.906  48.324  1.00  0.00     0.251 C 
HETATM   13  N   UNL     1      20.460  48.262  49.413  1.00  0.00    -0.323 N 
HETATM   14  H   UNL     1      20.438  47.696  50.253  1.00  0.00     0.169 HD
HETATM   15  O   UNL     1      21.317  48.581  47.299  1.00  0.00    -0.270 OA
BRANCH  13  16
HETATM   16  C   UNL     1      19.679  49.438  49.551  1.00  0.00     0.068 A 
HETATM   17  C   UNL     1      18.278  49.272  49.573  1.00  0.00     0.097 A 
HETATM   18  C   UNL     1      17.441  50.387  49.727  1.00  0.00     0.075 A 
HETATM   19  C   UNL     1      17.993  51.664  49.854  1.00  0.00     0.070 A 
HETATM   20  C   UNL     1      19.377  51.822  49.804  1.00  0.00     0.039 A 
HETATM   21  C   UNL     1      20.218  50.719  49.657  1.00  0.00     0.035 A 
BRANCH  17  22
HETATM   22  O   UNL     1      17.848  47.966  49.469  1.00  0.00    -0.354 OA
HETATM   23  C   UNL     1      16.722  47.728  48.627  1.00  0.00     0.210 C 
ENDBRANCH  17  22
BRANCH  19  24
HETATM   24  O   UNL     1      17.300  52.830  50.018  1.00  0.00    -0.356 OA
HETATM   25  C   UNL     1      15.882  52.747  50.061  1.00  0.00     0.210 C 
ENDBRANCH  19  24
ENDBRANCH  13  16
ENDBRANCH   4  12
ENDBRANCH   1   4
BRANCH   1  26
HETATM   26  C   UNL     1      23.419  48.104  49.871  1.00  0.00     0.192 C 
BRANCH  26  27
HETATM   27  C   UNL     1      24.488  48.797  49.118  1.00  0.00     0.070 A 
HETATM   28  O   UNL     1      25.747  48.575  49.598  1.00  0.00    -0.325 OA
HETATM   29  C   UNL     1      26.605  49.277  48.819  1.00  0.00     0.142 A 
HETATM   30  C   UNL     1      25.918  49.949  47.838  1.00  0.00     0.027 A 
HETATM   31  C   UNL     1      24.549  49.644  48.030  1.00  0.00     0.036 A 
ENDBRANCH  26  27
ENDBRANCH   1  26
BRANCH   2  32
HETATM   32  C   UNL     1      24.833  45.622  50.780  1.00  0.00     0.228 C 
BRANCH  32  33
HETATM   33  N   UNL     1      25.891  44.629  50.825  1.00  0.00    -0.347 N 
HETATM   34  C   UNL     1      25.760  43.244  50.828  1.00  0.00     0.171 C 
HETATM   35  S   UNL     1      24.383  42.331  50.761  1.00  0.00    -0.041 SA
HETATM   36  N   UNL     1      27.029  42.696  50.929  1.00  0.00    -0.357 N 
HETATM   37  C   UNL     1      28.042  43.713  51.119  1.00  0.00     0.135 C 
HETATM   38  H   UNL     1      27.178  41.705  51.076  1.00  0.00     0.162 HD
HETATM   39  C   UNL     1      27.293  45.010  50.770  1.00  0.00     0.155 C 
BRANCH  37  40
HETATM   40  C   UNL     1      28.602  43.731  52.528  1.00  0.00    -0.034 A 
HETATM   41  C   UNL     1      29.751  42.980  52.824  1.00  0.00     0.009 A 
HETATM   42  C   UNL     1      30.319  43.014  54.100  1.00  0.00     0.001 A 
HETATM   43  C   UNL     1      29.749  43.799  55.098  1.00  0.00     0.000 A 
HETATM   44  C   UNL     1      28.611  44.552  54.822  1.00  0.00     0.001 A 
HETATM   45  C   UNL     1      28.043  44.521  53.546  1.00  0.00     0.009 A 
ENDBRANCH  37  40
ENDBRANCH  32  33
ENDBRANCH   2  32
TORSDOF 10
ENDMDL
MODEL 3
REMARK VINA RESULT:      -8.5      2.855      9.202
REMARK  10 active torsions:
REMARK  status: ('A' for Active; 'I' for Inactive)
REMARK    1  A    between atoms: C_6  and  N_7 
REMARK    2  A    between atoms: C_6  and  C_29 
REMARK       I    between atoms: N_7  and  C_8 
REMARK    3  A    between atoms: N_7  and  C_23 
REMARK    4  A    between atoms: C_8  and  C_9 
REMARK    5  A    between atoms: C_9  and  N_10 
REMARK    6  A    between atoms: C_14  and  C_15 
REMARK    7  A    between atoms: C_23  and  C_24 
REMARK       I    between atoms: C_29  and  N_30 
REMARK    8  A    between atoms: N_30  and  C_31 
REMARK    9  A    between atoms: C_32  and  O_33 
REMARK   10  A    between atoms: C_36  and  O_37 
ROOT
HETATM    1  N   UNL     1      23.400  43.772  48.317  1.00  0.00    -0.326 N 
HETATM    2  C   UNL     1      24.013  44.830  49.010  1.00  0.00     0.239 C 
HETATM    3  O   UNL     1      23.455  45.914  49.157  1.00  0.00    -0.271 OA
ENDROOT
BRANCH   1   4
HETATM    4  C   UNL     1      22.442  44.046  47.186  1.00  0.00     0.120 C 
HETATM    5  C   UNL     1      23.158  44.441  45.879  1.00  0.00     0.069 C 
HETATM    6  C   UNL     1      22.184  44.706  44.735  1.00  0.00     0.237 C 
HETATM    7  N   UNL     1      21.303  43.514  44.503  1.00  0.00    -0.075 N 
HETATM    8  C   UNL     1      20.358  43.747  43.350  1.00  0.00     0.269 C 
HETATM    9  H   UNL     1      21.906  42.725  44.224  1.00  0.00     0.279 HD
HETATM   10  C   UNL     1      20.555  43.072  45.740  1.00  0.00     0.237 C 
HETATM   11  C   UNL     1      21.559  42.794  46.853  1.00  0.00     0.069 C 
BRANCH   4  12
HETATM   12  C   UNL     1      21.417  45.116  47.712  1.00  0.00     0.251 C 
HETATM   13  N   UNL     1      21.520  46.385  47.187  1.00  0.00    -0.323 N 
HETATM   14  H   UNL     1      22.190  46.606  46.459  1.00  0.00     0.169 HD
HETATM   15  O   UNL     1      20.593  44.789  48.564  1.00  0.00    -0.270 OA
BRANCH  13  16
HETATM   16  C   UNL     1      20.713  47.504  47.515  1.00  0.00     0.068 A 
HETATM   17  C   UNL     1      21.378  48.734  47.705  1.00  0.00     0.097 A 
HETATM   18  C   UNL     1      20.643  49.890  48.011  1.00  0.00     0.075 A 
HETATM   19  C   UNL     1      19.253  49.823  48.133  1.00  0.00     0.070 A 
HETATM   20  C   UNL     1      18.607  48.599  47.971  1.00  0.00     0.039 A 
HETATM   21  C   UNL     1      19.327  47.445  47.660  1.00  0.00     0.035 A 
BRANCH  17  22
HETATM   22  O   UNL     1      22.745  48.687  47.531  1.00  0.00    -0.354 OA
HETATM   23  C   UNL     1      23.534  49.427  48.460  1.00  0.00     0.210 C 
ENDBRANCH  17  22
BRANCH  19  24
HETATM   24  O   UNL     1      18.417  50.866  48.418  1.00  0.00    -0.356 OA
HETATM   25  C   UNL     1      19.010  52.066  48.895  1.00  0.00     0.210 C 
ENDBRANCH  19  24
ENDBRANCH  13  16
ENDBRANCH   4  12
ENDBRANCH   1   4
BRANCH   1  26
HETATM   26  C   UNL     1      23.249  42.541  49.105  1.00  0.00     0.192 C 
BRANCH  26  27
HETATM   27  C   UNL     1      24.266  41.510  48.800  1.00  0.00     0.070 A 
HETATM   28  O   UNL     1      25.094  41.213  49.845  1.00  0.00    -0.325 OA
HETATM   29  C   UNL     1      25.968  40.271  49.412  1.00  0.00     0.142 A 
HETATM   30  C   UNL     1      25.714  39.952  48.100  1.00  0.00     0.027 A 
HETATM   31  C   UNL     1      24.617  40.754  47.700  1.00  0.00     0.036 A 
ENDBRANCH  26  27
ENDBRANCH   1  26
BRANCH   2  32
HETATM   32  C   UNL     1      25.465  44.529  49.448  1.00  0.00     0.228 C 
BRANCH  32  33
HETATM   33  N   UNL     1      25.787  44.909  50.812  1.00  0.00    -0.347 N 
HETATM   34  C   UNL     1      26.159  46.165  51.281  1.00  0.00     0.171 C 
HETATM   35  S   UNL     1      26.324  47.580  50.443  1.00  0.00    -0.041 SA
HETATM   36  N   UNL     1      26.418  46.053  52.638  1.00  0.00    -0.357 N 
HETATM   37  C   UNL     1      26.340  44.680  53.090  1.00  0.00     0.135 C 
HETATM   38  H   UNL     1      26.826  46.809  53.173  1.00  0.00     0.162 HD
HETATM   39  C   UNL     1      25.648  43.972  51.914  1.00  0.00     0.155 C 
BRANCH  37  40
HETATM   40  C   UNL     1      27.699  44.085  53.403  1.00  0.00    -0.034 A 
HETATM   41  C   UNL     1      28.322  43.250  52.461  1.00  0.00     0.009 A 
HETATM   42  C   UNL     1      29.594  42.725  52.699  1.00  0.00     0.001 A 
HETATM   43  C   UNL     1      30.264  43.027  53.882  1.00  0.00     0.000 A 
HETATM   44  C   UNL     1      29.664  43.855  54.827  1.00  0.00     0.001 A 
HETATM   45  C   UNL     1      28.392  44.382  54.589  1.00  0.00     0.009 A 
ENDBRANCH  37  40
ENDBRANCH  32  33
ENDBRANCH   2  32
TORSDOF 10
ENDMDL
MODEL 4
REMARK VINA RESULT:      -8.5      6.484     11.044
REMARK  10 active torsions:
REMARK  status: ('A' for Active; 'I' for Inactive)
REMARK    1  A    between atoms: C_6  and  N_7 
REMARK    2  A    between atoms: C_6  and  C_29 
REMARK       I    between atoms: N_7  and  C_8 
REMARK    3  A    between atoms: N_7  and  C_23 
REMARK    4  A    between atoms: C_8  and  C_9 
REMARK    5  A    between atoms: C_9  and  N_10 
REMARK    6  A    between atoms: C_14  and  C_15 
REMARK    7  A    between atoms: C_23  and  C_24 
REMARK       I    between atoms: C_29  and  N_30 
REMARK    8  A    between atoms: N_30  and  C_31 
REMARK    9  A    between atoms: C_32  and  O_33 
REMARK   10  A    between atoms: C_36  and  O_37 
ROOT
HETATM    1  N   UNL     1      27.880  40.122  49.009  1.00  0.00    -0.326 N 
HETATM    2  C   UNL     1      27.445  40.382  50.319  1.00  0.00     0.239 C 
HETATM    3  O   UNL     1      26.325  40.056  50.703  1.00  0.00    -0.271 OA
ENDROOT
BRANCH   1   4
HETATM    4  C   UNL     1      26.902  40.096  47.863  1.00  0.00     0.120 C 
HETATM    5  C   UNL     1      26.117  38.772  47.779  1.00  0.00     0.069 C 
HETATM    6  C   UNL     1      25.121  38.755  46.623  1.00  0.00     0.237 C 
HETATM    7  N   UNL     1      24.173  39.913  46.725  1.00  0.00    -0.075 N 
HETATM    8  C   UNL     1      23.157  39.890  45.609  1.00  0.00     0.269 C 
HETATM    9  H   UNL     1      23.638  39.808  47.601  1.00  0.00     0.279 HD
HETATM   10  C   UNL     1      24.870  41.253  46.800  1.00  0.00     0.237 C 
HETATM   11  C   UNL     1      25.838  41.241  47.978  1.00  0.00     0.069 C 
BRANCH   4  12
HETATM   12  C   UNL     1      27.717  40.449  46.565  1.00  0.00     0.251 C 
HETATM   13  N   UNL     1      27.732  39.504  45.564  1.00  0.00    -0.323 N 
HETATM   14  H   UNL     1      27.201  38.644  45.638  1.00  0.00     0.169 HD
HETATM   15  O   UNL     1      28.310  41.526  46.504  1.00  0.00    -0.270 OA
BRANCH  13  16
HETATM   16  C   UNL     1      28.401  39.603  44.318  1.00  0.00     0.068 A 
HETATM   17  C   UNL     1      29.099  38.458  43.878  1.00  0.00     0.097 A 
HETATM   18  C   UNL     1      29.768  38.474  42.645  1.00  0.00     0.075 A 
HETATM   19  C   UNL     1      29.747  39.624  41.853  1.00  0.00     0.070 A 
HETATM   20  C   UNL     1      29.078  40.759  42.307  1.00  0.00     0.039 A 
HETATM   21  C   UNL     1      28.405  40.752  43.528  1.00  0.00     0.035 A 
BRANCH  17  22
HETATM   22  O   UNL     1      29.027  37.374  44.727  1.00  0.00    -0.354 OA
HETATM   23  C   UNL     1      30.154  36.501  44.749  1.00  0.00     0.210 C 
ENDBRANCH  17  22
BRANCH  19  24
HETATM   24  O   UNL     1      30.345  39.774  40.633  1.00  0.00    -0.356 OA
HETATM   25  C   UNL     1      30.643  38.593  39.901  1.00  0.00     0.210 C 
ENDBRANCH  19  24
ENDBRANCH  13  16
ENDBRANCH   4  12
ENDBRANCH   1   4
BRANCH   1  26
HETATM   26  C   UNL     1      29.103  39.309  48.929  1.00  0.00     0.192 C 
BRANCH  26  27
HETATM   27  C   UNL     1      29.078  38.110  49.796  1.00  0.00     0.070 A 
HETATM   28  O   UNL     1      30.087  38.062  50.715  1.00  0.00    -0.325 OA
HETATM   29  C   UNL     1      29.937  36.914  51.419  1.00  0.00     0.142 A 
HETATM   30  C   UNL     1      28.841  36.218  50.969  1.00  0.00     0.027 A 
HETATM   31  C   UNL     1      28.285  36.987  49.918  1.00  0.00     0.036 A 
ENDBRANCH  26  27
ENDBRANCH   1  26
BRANCH   2  32
HETATM   32  C   UNL     1      28.451  41.203  51.159  1.00  0.00     0.228 C 
BRANCH  32  33
HETATM   33  N   UNL     1      27.852  42.166  52.065  1.00  0.00    -0.347 N 
HETATM   34  C   UNL     1      27.246  43.377  51.743  1.00  0.00     0.171 C 
HETATM   35  S   UNL     1      27.014  44.058  50.255  1.00  0.00    -0.041 SA
HETATM   36  N   UNL     1      26.863  43.990  52.926  1.00  0.00    -0.357 N 
HETATM   37  C   UNL     1      27.315  43.251  54.087  1.00  0.00     0.135 C 
HETATM   38  H   UNL     1      26.514  44.939  52.952  1.00  0.00     0.162 HD
HETATM   39  C   UNL     1      27.732  41.897  53.489  1.00  0.00     0.155 C 
BRANCH  37  40
HETATM   40  C   UNL     1      28.455  43.937  54.814  1.00  0.00    -0.034 A 
HETATM   41  C   UNL     1      29.682  43.270  54.960  1.00  0.00     0.009 A 
HETATM   42  C   UNL     1      30.767  43.893  55.583  1.00  0.00     0.001 A 
HETATM   43  C   UNL     1      30.641  45.193  56.067  1.00  0.00     0.000 A 
HETATM   44  C   UNL     1      29.433  45.871  55.929  1.00  0.00     0.001 A 
HETATM   45  C   UNL     1      28.349  45.249  55.305  1.00  0.00     0.009 A 
ENDBRANCH  37  40
ENDBRANCH  32  33
ENDBRANCH   2  32
TORSDOF 10
ENDMDL
MODEL 5
REMARK VINA RESULT:      -8.4      3.211      9.952
REMARK  10 active torsions:
REMARK  status: ('A' for Active; 'I' for Inactive)
REMARK    1  A    between atoms: C_6  and  N_7 
REMARK    2  A    between atoms: C_6  and  C_29 
REMARK       I    between atoms: N_7  and  C_8 
REMARK    3  A    between atoms: N_7  and  C_23 
REMARK    4  A    between atoms: C_8  and  C_9 
REMARK    5  A    between atoms: C_9  and  N_10 
REMARK    6  A    between atoms: C_14  and  C_15 
REMARK    7  A    between atoms: C_23  and  C_24 
REMARK       I    between atoms: C_29  and  N_30 
REMARK    8  A    between atoms: N_30  and  C_31 
REMARK    9  A    between atoms: C_32  and  O_33 
REMARK   10  A    between atoms: C_36  and  O_37 
ROOT
HETATM    1  N   UNL     1      20.675  47.192  48.538  1.00  0.00    -0.326 N 
HETATM    2  C   UNL     1      21.711  46.306  48.200  1.00  0.00     0.239 C 
HETATM    3  O   UNL     1      22.006  46.075  47.030  1.00  0.00    -0.271 OA
ENDROOT
BRANCH   1   4
HETATM    4  C   UNL     1      19.480  47.361  47.636  1.00  0.00     0.120 C 
HETATM    5  C   UNL     1      19.869  47.770  46.201  1.00  0.00     0.069 C 
HETATM    6  C   UNL     1      18.656  47.929  45.289  1.00  0.00     0.237 C 
HETATM    7  N   UNL     1      17.842  46.669  45.266  1.00  0.00    -0.075 N 
HETATM    8  C   UNL     1      16.658  46.798  44.339  1.00  0.00     0.269 C 
HETATM    9  H   UNL     1      18.433  45.919  44.874  1.00  0.00     0.279 HD
HETATM   10  C   UNL     1      17.411  46.209  46.640  1.00  0.00     0.237 C 
HETATM   11  C   UNL     1      18.648  46.038  47.515  1.00  0.00     0.069 C 
BRANCH   4  12
HETATM   12  C   UNL     1      18.509  48.367  48.355  1.00  0.00     0.251 C 
HETATM   13  N   UNL     1      18.497  49.662  47.886  1.00  0.00    -0.323 N 
HETATM   14  H   UNL     1      19.048  49.940  47.083  1.00  0.00     0.169 HD
HETATM   15  O   UNL     1      17.826  47.971  49.299  1.00  0.00    -0.270 OA
BRANCH  13  16
HETATM   16  C   UNL     1      17.712  50.734  48.382  1.00  0.00     0.068 A 
HETATM   17  C   UNL     1      16.465  50.951  47.757  1.00  0.00     0.097 A 
HETATM   18  C   UNL     1      15.625  51.981  48.207  1.00  0.00     0.075 A 
HETATM   19  C   UNL     1      16.022  52.793  49.271  1.00  0.00     0.070 A 
HETATM   20  C   UNL     1      17.265  52.588  49.865  1.00  0.00     0.039 A 
HETATM   21  C   UNL     1      18.106  51.564  49.430  1.00  0.00     0.035 A 
BRANCH  17  22
HETATM   22  O   UNL     1      16.167  50.071  46.738  1.00  0.00    -0.354 OA
HETATM   23  C   UNL     1      15.084  49.172  46.966  1.00  0.00     0.210 C 
ENDBRANCH  17  22
BRANCH  19  24
HETATM   24  O   UNL     1      15.301  53.820  49.814  1.00  0.00    -0.356 OA
HETATM   25  C   UNL     1      14.179  54.291  49.080  1.00  0.00     0.210 C 
ENDBRANCH  19  24
ENDBRANCH  13  16
ENDBRANCH   4  12
ENDBRANCH   1   4
BRANCH   1  26
HETATM   26  C   UNL     1      21.094  48.312  49.393  1.00  0.00     0.192 C 
BRANCH  26  27
HETATM   27  C   UNL     1      22.140  49.165  48.786  1.00  0.00     0.070 A 
HETATM   28  O   UNL     1      23.312  49.200  49.486  1.00  0.00    -0.325 OA
HETATM   29  C   UNL     1      24.157  50.022  48.818  1.00  0.00     0.142 A 
HETATM   30  C   UNL     1      23.548  50.518  47.690  1.00  0.00     0.027 A 
HETATM   31  C   UNL     1      22.243  49.969  47.668  1.00  0.00     0.036 A 
ENDBRANCH  26  27
ENDBRANCH   1  26
BRANCH   2  32
HETATM   32  C   UNL     1      22.338  45.585  49.416  1.00  0.00     0.228 C 
BRANCH  32  33
HETATM   33  N   UNL     1      23.746  45.258  49.278  1.00  0.00    -0.347 N 
HETATM   34  C   UNL     1      24.302  44.096  48.753  1.00  0.00     0.171 C 
HETATM   35  S   UNL     1      23.539  42.771  48.123  1.00  0.00    -0.041 SA
HETATM   36  N   UNL     1      25.681  44.195  48.865  1.00  0.00    -0.357 N 
HETATM   37  C   UNL     1      26.078  45.388  49.584  1.00  0.00     0.135 C 
HETATM   38  H   UNL     1      26.295  43.417  48.664  1.00  0.00     0.162 HD
HETATM   39  C   UNL     1      24.785  46.219  49.608  1.00  0.00     0.155 C 
BRANCH  37  40
HETATM   40  C   UNL     1      26.599  45.090  50.976  1.00  0.00    -0.034 A 
HETATM   41  C   UNL     1      27.570  44.092  51.152  1.00  0.00     0.009 A 
HETATM   42  C   UNL     1      28.105  43.826  52.415  1.00  0.00     0.001 A 
HETATM   43  C   UNL     1      27.678  44.557  53.521  1.00  0.00     0.000 A 
HETATM   44  C   UNL     1      26.718  45.552  53.366  1.00  0.00     0.001 A 
HETATM   45  C   UNL     1      26.184  45.819  52.104  1.00  0.00     0.009 A 
ENDBRANCH  37  40
ENDBRANCH  32  33
ENDBRANCH   2  32
TORSDOF 10
ENDMDL
MODEL 6
REMARK VINA RESULT:      -8.3     12.738     15.611
REMARK  10 active torsions:
REMARK  status: ('A' for Active; 'I' for Inactive)
REMARK    1  A    between atoms: C_6  and  N_7 
REMARK    2  A    between atoms: C_6  and  C_29 
REMARK       I    between atoms: N_7  and  C_8 
REMARK    3  A    between atoms: N_7  and  C_23 
REMARK    4  A    between atoms: C_8  and  C_9 
REMARK    5  A    between atoms: C_9  and  N_10 
REMARK    6  A    between atoms: C_14  and  C_15 
REMARK    7  A    between atoms: C_23  and  C_24 
REMARK       I    between atoms: C_29  and  N_30 
REMARK    8  A    between atoms: N_30  and  C_31 
REMARK    9  A    between atoms: C_32  and  O_33 
REMARK   10  A    between atoms: C_36  and  O_37 
ROOT
HETATM    1  N   UNL     1      34.292  52.080  40.540  1.00  0.00    -0.326 N 
HETATM    2  C   UNL     1      33.257  52.106  39.591  1.00  0.00     0.239 C 
HETATM    3  O   UNL     1      33.364  51.543  38.504  1.00  0.00    -0.271 OA
ENDROOT
BRANCH   1   4
HETATM    4  C   UNL     1      35.734  52.012  40.106  1.00  0.00     0.120 C 
HETATM    5  C   UNL     1      36.041  50.766  39.252  1.00  0.00     0.069 C 
HETATM    6  C   UNL     1      37.500  50.708  38.806  1.00  0.00     0.237 C 
HETATM    7  N   UNL     1      37.875  51.954  38.059  1.00  0.00    -0.075 N 
HETATM    8  C   UNL     1      39.305  51.896  37.580  1.00  0.00     0.269 C 
HETATM    9  H   UNL     1      37.290  52.003  37.211  1.00  0.00     0.279 HD
HETATM   10  C   UNL     1      37.613  53.222  38.841  1.00  0.00     0.237 C 
HETATM   11  C   UNL     1      36.144  53.258  39.248  1.00  0.00     0.069 C 
BRANCH   4  12
HETATM   12  C   UNL     1      36.604  52.133  41.410  1.00  0.00     0.251 C 
HETATM   13  N   UNL     1      36.711  53.386  41.972  1.00  0.00    -0.323 N 
HETATM   14  H   UNL     1      36.211  54.182  41.593  1.00  0.00     0.169 HD
HETATM   15  O   UNL     1      37.157  51.129  41.859  1.00  0.00    -0.270 OA
BRANCH  13  16
HETATM   16  C   UNL     1      37.443  53.732  43.136  1.00  0.00     0.068 A 
HETATM   17  C   UNL     1      38.737  54.261  42.941  1.00  0.00     0.097 A 
HETATM   18  C   UNL     1      39.512  54.645  44.045  1.00  0.00     0.075 A 
HETATM   19  C   UNL     1      39.007  54.499  45.339  1.00  0.00     0.070 A 
HETATM   20  C   UNL     1      37.740  53.952  45.524  1.00  0.00     0.039 A 
HETATM   21  C   UNL     1      36.958  53.572  44.433  1.00  0.00     0.035 A 
BRANCH  17  22
HETATM   22  O   UNL     1      39.118  54.385  41.621  1.00  0.00    -0.354 OA
HETATM   23  C   UNL     1      40.341  55.074  41.371  1.00  0.00     0.210 C 
ENDBRANCH  17  22
BRANCH  19  24
HETATM   24  O   UNL     1      39.648  54.839  46.497  1.00  0.00    -0.356 OA
HETATM   25  C   UNL     1      40.239  53.789  47.250  1.00  0.00     0.210 C 
ENDBRANCH  19  24
ENDBRANCH  13  16
ENDBRANCH   4  12
ENDBRANCH   1   4
BRANCH   1  26
HETATM   26  C   UNL     1      33.905  51.513  41.840  1.00  0.00     0.192 C 
BRANCH  26  27
HETATM   27  C   UNL     1      33.393  50.127  41.756  1.00  0.00     0.070 A 
HETATM   28  O   UNL     1      32.260  49.904  42.485  1.00  0.00    -0.325 OA
HETATM   29  C   UNL     1      31.922  48.602  42.318  1.00  0.00     0.142 A 
HETATM   30  C   UNL     1      32.821  47.980  41.485  1.00  0.00     0.027 A 
HETATM   31  C   UNL     1      33.774  48.961  41.123  1.00  0.00     0.036 A 
ENDBRANCH  26  27
ENDBRANCH   1  26
BRANCH   2  32
HETATM   32  C   UNL     1      32.057  52.990  40.001  1.00  0.00     0.228 C 
BRANCH  32  33
HETATM   33  N   UNL     1      30.810  52.276  40.209  1.00  0.00    -0.347 N 
HETATM   34  C   UNL     1      30.097  52.134  41.396  1.00  0.00     0.171 C 
HETATM   35  S   UNL     1      30.441  52.744  42.893  1.00  0.00    -0.041 SA
HETATM   36  N   UNL     1      28.996  51.331  41.138  1.00  0.00    -0.357 N 
HETATM   37  C   UNL     1      29.012  50.813  39.786  1.00  0.00     0.135 C 
HETATM   38  H   UNL     1      28.397  50.985  41.877  1.00  0.00     0.162 HD
HETATM   39  C   UNL     1      30.083  51.678  39.101  1.00  0.00     0.155 C 
BRANCH  37  40
HETATM   40  C   UNL     1      29.338  49.334  39.726  1.00  0.00    -0.034 A 
HETATM   41  C   UNL     1      28.636  48.437  40.547  1.00  0.00     0.009 A 
HETATM   42  C   UNL     1      28.880  47.063  40.481  1.00  0.00     0.001 A 
HETATM   43  C   UNL     1      29.827  46.565  39.591  1.00  0.00     0.000 A 
HETATM   44  C   UNL     1      30.532  47.438  38.767  1.00  0.00     0.001 A 
HETATM   45  C   UNL     1      30.288  48.812  38.831  1.00  0.00     0.009 A 
ENDBRANCH  37  40
ENDBRANCH  32  33
ENDBRANCH   2  32
TORSDOF 10
ENDMDL
MODEL 7
REMARK VINA RESULT:      -8.2     13.402     16.876
REMARK  10 active torsions:
REMARK  status: ('A' for Active; 'I' for Inactive)
REMARK    1  A    between atoms: C_6  and  N_7 
REMARK    2  A    between atoms: C_6  and  C_29 
REMARK       I    between atoms: N_7  and  C_8 
REMARK    3  A    between atoms: N_7  and  C_23 
REMARK    4  A    between atoms: C_8  and  C_9 
REMARK    5  A    between atoms: C_9  and  N_10 
REMARK    6  A    between atoms: C_14  and  C_15 
REMARK    7  A    between atoms: C_23  and  C_24 
REMARK       I    between atoms: C_29  and  N_30 
REMARK    8  A    between atoms: N_30  and  C_31 
REMARK    9  A    between atoms: C_32  and  O_33 
REMARK   10  A    between atoms: C_36  and  O_37 
ROOT
HETATM    1  N   UNL     1      34.254  51.584  40.538  1.00  0.00    -0.326 N 
HETATM    2  C   UNL     1      33.298  51.921  39.565  1.00  0.00     0.239 C 
HETATM    3  O   UNL     1      33.544  51.844  38.364  1.00  0.00    -0.271 OA
ENDROOT
BRANCH   1   4
HETATM    4  C   UNL     1      35.724  51.783  40.273  1.00  0.00     0.120 C 
HETATM    5  C   UNL     1      36.618  51.067  41.305  1.00  0.00     0.069 C 
HETATM    6  C   UNL     1      38.105  51.264  41.027  1.00  0.00     0.237 C 
HETATM    7  N   UNL     1      38.449  50.808  39.639  1.00  0.00    -0.075 N 
HETATM    8  C   UNL     1      39.924  50.961  39.361  1.00  0.00     0.269 C 
HETATM    9  H   UNL     1      38.250  49.797  39.581  1.00  0.00     0.279 HD
HETATM   10  C   UNL     1      37.619  51.477  38.567  1.00  0.00     0.237 C 
HETATM   11  C   UNL     1      36.143  51.240  38.864  1.00  0.00     0.069 C 
BRANCH   4  12
HETATM   12  C   UNL     1      35.959  53.335  40.179  1.00  0.00     0.251 C 
HETATM   13  N   UNL     1      35.471  53.970  39.058  1.00  0.00    -0.323 N 
HETATM   14  H   UNL     1      34.941  53.471  38.354  1.00  0.00     0.169 HD
HETATM   15  O   UNL     1      36.571  53.906  41.081  1.00  0.00    -0.270 OA
BRANCH  13  16
HETATM   16  C   UNL     1      35.572  55.353  38.759  1.00  0.00     0.068 A 
HETATM   17  C   UNL     1      36.506  55.722  37.767  1.00  0.00     0.097 A 
HETATM   18  C   UNL     1      36.646  57.070  37.403  1.00  0.00     0.075 A 
HETATM   19  C   UNL     1      35.866  58.047  38.024  1.00  0.00     0.070 A 
HETATM   20  C   UNL     1      34.966  57.677  39.020  1.00  0.00     0.039 A 
HETATM   21  C   UNL     1      34.813  56.340  39.386  1.00  0.00     0.035 A 
BRANCH  17  22
HETATM   22  O   UNL     1      37.199  54.671  37.204  1.00  0.00    -0.354 OA
HETATM   23  C   UNL     1      37.910  54.947  35.999  1.00  0.00     0.210 C 
ENDBRANCH  17  22
BRANCH  19  24
HETATM   24  O   UNL     1      35.893  59.389  37.761  1.00  0.00    -0.356 OA
HETATM   25  C   UNL     1      34.807  60.170  38.236  1.00  0.00     0.210 C 
ENDBRANCH  19  24
ENDBRANCH  13  16
ENDBRANCH   4  12
ENDBRANCH   1   4
BRANCH   1  26
HETATM   26  C   UNL     1      33.826  50.524  41.463  1.00  0.00     0.192 C 
BRANCH  26  27
HETATM   27  C   UNL     1      33.312  51.033  42.753  1.00  0.00     0.070 A 
HETATM   28  O   UNL     1      34.193  51.820  43.437  1.00  0.00    -0.325 OA
HETATM   29  C   UNL     1      33.588  52.196  44.590  1.00  0.00     0.142 A 
HETATM   30  C   UNL     1      32.323  51.666  44.660  1.00  0.00     0.027 A 
HETATM   31  C   UNL     1      32.142  50.910  43.476  1.00  0.00     0.036 A 
ENDBRANCH  26  27
ENDBRANCH   1  26
BRANCH   2  32
HETATM   32  C   UNL     1      31.986  52.494  40.152  1.00  0.00     0.228 C 
BRANCH  32  33
HETATM   33  N   UNL     1      30.773  51.837  39.700  1.00  0.00    -0.347 N 
HETATM   34  C   UNL     1      29.514  51.874  40.290  1.00  0.00     0.171 C 
HETATM   35  S   UNL     1      29.027  52.680  41.649  1.00  0.00    -0.041 SA
HETATM   36  N   UNL     1      28.671  51.062  39.547  1.00  0.00    -0.357 N 
HETATM   37  C   UNL     1      29.383  50.361  38.499  1.00  0.00     0.135 C 
HETATM   38  H   UNL     1      27.734  50.832  39.855  1.00  0.00     0.162 HD
HETATM   39  C   UNL     1      30.728  51.103  38.445  1.00  0.00     0.155 C 
BRANCH  37  40
HETATM   40  C   UNL     1      29.550  48.882  38.788  1.00  0.00    -0.034 A 
HETATM   41  C   UNL     1      30.692  48.437  39.475  1.00  0.00     0.009 A 
HETATM   42  C   UNL     1      30.852  47.088  39.798  1.00  0.00     0.001 A 
HETATM   43  C   UNL     1      29.874  46.163  39.442  1.00  0.00     0.000 A 
HETATM   44  C   UNL     1      28.734  46.586  38.763  1.00  0.00     0.001 A 
HETATM   45  C   UNL     1      28.572  47.935  38.441  1.00  0.00     0.009 A 
ENDBRANCH  37  40
ENDBRANCH  32  33
ENDBRANCH   2  32
TORSDOF 10
ENDMDL
MODEL 8
REMARK VINA RESULT:      -8.1      3.239      6.519
REMARK  10 active torsions:
REMARK  status: ('A' for Active; 'I' for Inactive)
REMARK    1  A    between atoms: C_6  and  N_7 
REMARK    2  A    between atoms: C_6  and  C_29 
REMARK       I    between atoms: N_7  and  C_8 
REMARK    3  A    between atoms: N_7  and  C_23 
REMARK    4  A    between atoms: C_8  and  C_9 
REMARK    5  A    between atoms: C_9  and  N_10 
REMARK    6  A    between atoms: C_14  and  C_15 
REMARK    7  A    between atoms: C_23  and  C_24 
REMARK       I    between atoms: C_29  and  N_30 
REMARK    8  A    between atoms: N_30  and  C_31 
REMARK    9  A    between atoms: C_32  and  O_33 
REMARK   10  A    between atoms: C_36  and  O_37 
ROOT
HETATM    1  N   UNL     1      18.727  45.264  46.699  1.00  0.00    -0.326 N 
HETATM    2  C   UNL     1      18.625  46.656  46.862  1.00  0.00     0.239 C 
HETATM    3  O   UNL     1      19.403  47.429  46.308  1.00  0.00    -0.271 OA
ENDROOT
BRANCH   1   4
HETATM    4  C   UNL     1      20.065  44.612  46.468  1.00  0.00     0.120 C 
HETATM    5  C   UNL     1      19.951  43.099  46.191  1.00  0.00     0.069 C 
HETATM    6  C   UNL     1      21.308  42.445  45.947  1.00  0.00     0.237 C 
HETATM    7  N   UNL     1      22.029  43.126  44.821  1.00  0.00    -0.075 N 
HETATM    8  C   UNL     1      23.358  42.467  44.543  1.00  0.00     0.269 C 
HETATM    9  H   UNL     1      21.465  43.004  43.965  1.00  0.00     0.279 HD
HETATM   10  C   UNL     1      22.191  44.615  45.026  1.00  0.00     0.237 C 
HETATM   11  C   UNL     1      20.816  45.237  45.242  1.00  0.00     0.069 C 
BRANCH   4  12
HETATM   12  C   UNL     1      20.965  44.977  47.705  1.00  0.00     0.251 C 
HETATM   13  N   UNL     1      22.038  45.807  47.468  1.00  0.00    -0.323 N 
HETATM   14  H   UNL     1      22.209  46.205  46.553  1.00  0.00     0.169 HD
HETATM   15  O   UNL     1      20.691  44.504  48.807  1.00  0.00    -0.270 OA
BRANCH  13  16
HETATM   16  C   UNL     1      22.982  46.262  48.424  1.00  0.00     0.068 A 
HETATM   17  C   UNL     1      24.020  45.369  48.767  1.00  0.00     0.097 A 
HETATM   18  C   UNL     1      25.003  45.756  49.690  1.00  0.00     0.075 A 
HETATM   19  C   UNL     1      24.953  47.024  50.274  1.00  0.00     0.070 A 
HETATM   20  C   UNL     1      23.910  47.890  49.950  1.00  0.00     0.039 A 
HETATM   21  C   UNL     1      22.931  47.517  49.029  1.00  0.00     0.035 A 
BRANCH  17  22
HETATM   22  O   UNL     1      23.984  44.158  48.108  1.00  0.00    -0.354 OA
HETATM   23  C   UNL     1      24.246  42.996  48.890  1.00  0.00     0.210 C 
ENDBRANCH  17  22
BRANCH  19  24
HETATM   24  O   UNL     1      25.845  47.532  51.176  1.00  0.00    -0.356 OA
HETATM   25  C   UNL     1      25.989  46.845  52.411  1.00  0.00     0.210 C 
ENDBRANCH  19  24
ENDBRANCH  13  16
ENDBRANCH   4  12
ENDBRANCH   1   4
BRANCH   1  26
HETATM   26  C   UNL     1      17.514  44.630  46.161  1.00  0.00     0.192 C 
BRANCH  26  27
HETATM   27  C   UNL     1      17.159  45.085  44.799  1.00  0.00     0.070 A 
HETATM   28  O   UNL     1      16.120  45.970  44.756  1.00  0.00    -0.325 OA
HETATM   29  C   UNL     1      15.908  46.282  43.455  1.00  0.00     0.142 A 
HETATM   30  C   UNL     1      16.801  45.612  42.653  1.00  0.00     0.027 A 
HETATM   31  C   UNL     1      17.608  44.835  43.518  1.00  0.00     0.036 A 
ENDBRANCH  26  27
ENDBRANCH   1  26
BRANCH   2  32
HETATM   32  C   UNL     1      17.540  47.089  47.875  1.00  0.00     0.228 C 
BRANCH  32  33
HETATM   33  N   UNL     1      17.859  48.276  48.648  1.00  0.00    -0.347 N 
HETATM   34  C   UNL     1      17.238  49.520  48.594  1.00  0.00     0.171 C 
HETATM   35  S   UNL     1      15.960  50.003  47.663  1.00  0.00    -0.041 SA
HETATM   36  N   UNL     1      17.903  50.366  49.468  1.00  0.00    -0.357 N 
HETATM   37  C   UNL     1      19.072  49.735  50.045  1.00  0.00     0.135 C 
HETATM   38  H   UNL     1      17.710  51.359  49.507  1.00  0.00     0.162 HD
HETATM   39  C   UNL     1      18.866  48.252  49.696  1.00  0.00     0.155 C 
BRANCH  37  40
HETATM   40  C   UNL     1      20.372  50.284  49.490  1.00  0.00    -0.034 A 
HETATM   41  C   UNL     1      21.332  50.807  50.371  1.00  0.00     0.009 A 
HETATM   42  C   UNL     1      22.560  51.276  49.896  1.00  0.00     0.001 A 
HETATM   43  C   UNL     1      22.846  51.228  48.534  1.00  0.00     0.000 A 
HETATM   44  C   UNL     1      21.907  50.710  47.646  1.00  0.00     0.001 A 
HETATM   45  C   UNL     1      20.681  50.239  48.120  1.00  0.00     0.009 A 
ENDBRANCH  37  40
ENDBRANCH  32  33
ENDBRANCH   2  32
TORSDOF 10
ENDMDL
MODEL 9
REMARK VINA RESULT:      -8.1      5.146      9.910
REMARK  10 active torsions:
REMARK  status: ('A' for Active; 'I' for Inactive)
REMARK    1  A    between atoms: C_6  and  N_7 
REMARK    2  A    between atoms: C_6  and  C_29 
REMARK       I    between atoms: N_7  and  C_8 
REMARK    3  A    between atoms: N_7  and  C_23 
REMARK    4  A    between atoms: C_8  and  C_9 
REMARK    5  A    between atoms: C_9  and  N_10 
REMARK    6  A    between atoms: C_14  and  C_15 
REMARK    7  A    between atoms: C_23  and  C_24 
REMARK       I    between atoms: C_29  and  N_30 
REMARK    8  A    between atoms: N_30  and  C_31 
REMARK    9  A    between atoms: C_32  and  O_33 
REMARK   10  A    between atoms: C_36  and  O_37 
ROOT
HETATM    1  N   UNL     1      25.015  41.765  48.286  1.00  0.00    -0.326 N 
HETATM    2  C   UNL     1      24.893  43.060  48.816  1.00  0.00     0.239 C 
HETATM    3  O   UNL     1      23.838  43.685  48.757  1.00  0.00    -0.271 OA
ENDROOT
BRANCH   1   4
HETATM    4  C   UNL     1      24.204  41.344  47.088  1.00  0.00     0.120 C 
HETATM    5  C   UNL     1      22.997  40.461  47.463  1.00  0.00     0.069 C 
HETATM    6  C   UNL     1      22.174  40.047  46.247  1.00  0.00     0.237 C 
HETATM    7  N   UNL     1      21.714  41.255  45.483  1.00  0.00    -0.075 N 
HETATM    8  C   UNL     1      20.867  40.863  44.298  1.00  0.00     0.269 C 
HETATM    9  H   UNL     1      21.102  41.806  46.103  1.00  0.00     0.279 HD
HETATM   10  C   UNL     1      22.846  42.167  45.068  1.00  0.00     0.237 C 
HETATM   11  C   UNL     1      23.631  42.578  46.308  1.00  0.00     0.069 C 
BRANCH   4  12
HETATM   12  C   UNL     1      25.206  40.676  46.077  1.00  0.00     0.251 C 
HETATM   13  N   UNL     1      26.159  41.494  45.514  1.00  0.00    -0.323 N 
HETATM   14  H   UNL     1      26.244  42.469  45.777  1.00  0.00     0.169 HD
HETATM   15  O   UNL     1      25.090  39.477  45.822  1.00  0.00    -0.270 OA
BRANCH  13  16
HETATM   16  C   UNL     1      27.155  41.114  44.578  1.00  0.00     0.068 A 
HETATM   17  C   UNL     1      27.141  41.773  43.331  1.00  0.00     0.097 A 
HETATM   18  C   UNL     1      28.108  41.464  42.362  1.00  0.00     0.075 A 
HETATM   19  C   UNL     1      29.083  40.501  42.631  1.00  0.00     0.070 A 
HETATM   20  C   UNL     1      29.074  39.836  43.855  1.00  0.00     0.039 A 
HETATM   21  C   UNL     1      28.121  40.140  44.827  1.00  0.00     0.035 A 
BRANCH  17  22
HETATM   22  O   UNL     1      26.152  42.723  43.189  1.00  0.00    -0.354 OA
HETATM   23  C   UNL     1      26.435  43.818  42.320  1.00  0.00     0.210 C 
ENDBRANCH  17  22
BRANCH  19  24
HETATM   24  O   UNL     1      30.085  40.111  41.786  1.00  0.00    -0.356 OA
HETATM   25  C   UNL     1      31.163  39.374  42.347  1.00  0.00     0.210 C 
ENDBRANCH  19  24
ENDBRANCH  13  16
ENDBRANCH   4  12
ENDBRANCH   1   4
BRANCH   1  26
HETATM   26  C   UNL     1      25.433  40.749  49.263  1.00  0.00     0.192 C 
BRANCH  26  27
HETATM   27  C   UNL     1      26.702  40.073  48.912  1.00  0.00     0.070 A 
HETATM   28  O   UNL     1      27.758  40.920  48.732  1.00  0.00    -0.325 OA
HETATM   29  C   UNL     1      28.833  40.162  48.409  1.00  0.00     0.142 A 
HETATM   30  C   UNL     1      28.488  38.832  48.381  1.00  0.00     0.027 A 
HETATM   31  C   UNL     1      27.111  38.771  48.703  1.00  0.00     0.036 A 
ENDBRANCH  26  27
ENDBRANCH   1  26
BRANCH   2  32
HETATM   32  C   UNL     1      26.221  43.639  49.357  1.00  0.00     0.228 C 
BRANCH  32  33
HETATM   33  N   UNL     1      26.151  44.188  50.700  1.00  0.00    -0.347 N 
HETATM   34  C   UNL     1      26.164  45.528  51.074  1.00  0.00     0.171 C 
HETATM   35  S   UNL     1      26.242  46.873  50.116  1.00  0.00    -0.041 SA
HETATM   36  N   UNL     1      26.128  45.584  52.459  1.00  0.00    -0.357 N 
HETATM   37  C   UNL     1      26.212  44.266  53.054  1.00  0.00     0.135 C 
HETATM   38  H   UNL     1      26.255  46.450  52.967  1.00  0.00     0.162 HD
HETATM   39  C   UNL     1      25.948  43.335  51.859  1.00  0.00     0.155 C 
BRANCH  37  40
HETATM   40  C   UNL     1      27.553  43.999  53.708  1.00  0.00    -0.034 A 
HETATM   41  C   UNL     1      28.267  42.838  53.372  1.00  0.00     0.009 A 
HETATM   42  C   UNL     1      29.527  42.588  53.922  1.00  0.00     0.001 A 
HETATM   43  C   UNL     1      30.092  43.495  54.814  1.00  0.00     0.000 A 
HETATM   44  C   UNL     1      29.400  44.653  55.157  1.00  0.00     0.001 A 
HETATM   45  C   UNL     1      28.142  44.905  54.607  1.00  0.00     0.009 A 
ENDBRANCH  37  40
ENDBRANCH  32  33
ENDBRANCH   2  32
TORSDOF 10
ENDMDL
MODEL 10
REMARK VINA RESULT:      -8.0      3.698      9.525
REMARK  10 active torsions:
REMARK  status: ('A' for Active; 'I' for Inactive)
REMARK    1  A    between atoms: C_6  and  N_7 
REMARK    2  A    between atoms: C_6  and  C_29 
REMARK       I    between atoms: N_7  and  C_8 
REMARK    3  A    between atoms: N_7  and  C_23 
REMARK    4  A    between atoms: C_8  and  C_9 
REMARK    5  A    between atoms: C_9  and  N_10 
REMARK    6  A    between atoms: C_14  and  C_15 
REMARK    7  A    between atoms: C_23  and  C_24 
REMARK       I    between atoms: C_29  and  N_30 
REMARK    8  A    between atoms: N_30  and  C_31 
REMARK    9  A    between atoms: C_32  and  O_33 
REMARK   10  A    between atoms: C_36  and  O_37 
ROOT
HETATM    1  N   UNL     1      26.353  41.499  48.037  1.00  0.00    -0.326 N 
HETATM    2  C   UNL     1      26.209  41.530  49.434  1.00  0.00     0.239 C 
HETATM    3  O   UNL     1      25.440  40.773  50.020  1.00  0.00    -0.271 OA
ENDROOT
BRANCH   1   4
HETATM    4  C   UNL     1      25.197  41.111  47.152  1.00  0.00     0.120 C 
HETATM    5  C   UNL     1      25.583  41.042  45.661  1.00  0.00     0.069 C 
HETATM    6  C   UNL     1      24.411  40.640  44.771  1.00  0.00     0.237 C 
HETATM    7  N   UNL     1      23.833  39.328  45.218  1.00  0.00    -0.075 N 
HETATM    8  C   UNL     1      22.696  38.898  44.324  1.00  0.00     0.269 C 
HETATM    9  H   UNL     1      24.566  38.609  45.115  1.00  0.00     0.279 HD
HETATM   10  C   UNL     1      23.418  39.321  46.671  1.00  0.00     0.237 C 
HETATM   11  C   UNL     1      24.617  39.704  47.531  1.00  0.00     0.069 C 
BRANCH   4  12
HETATM   12  C   UNL     1      24.027  42.113  47.472  1.00  0.00     0.251 C 
HETATM   13  N   UNL     1      24.136  43.382  46.950  1.00  0.00    -0.323 N 
HETATM   14  H   UNL     1      24.906  43.643  46.346  1.00  0.00     0.169 HD
HETATM   15  O   UNL     1      23.090  41.736  48.175  1.00  0.00    -0.270 OA
BRANCH  13  16
HETATM   16  C   UNL     1      23.212  44.446  47.113  1.00  0.00     0.068 A 
HETATM   17  C   UNL     1      22.348  44.709  46.029  1.00  0.00     0.097 A 
HETATM   18  C   UNL     1      21.394  45.733  46.125  1.00  0.00     0.075 A 
HETATM   19  C   UNL     1      21.300  46.495  47.291  1.00  0.00     0.070 A 
HETATM   20  C   UNL     1      22.175  46.246  48.347  1.00  0.00     0.039 A 
HETATM   21  C   UNL     1      23.123  45.227  48.265  1.00  0.00     0.035 A 
BRANCH  17  22
HETATM   22  O   UNL     1      22.512  43.876  44.942  1.00  0.00    -0.354 OA
HETATM   23  C   UNL     1      21.434  42.992  44.646  1.00  0.00     0.210 C 
ENDBRANCH  17  22
BRANCH  19  24
HETATM   24  O   UNL     1      20.415  47.511  47.522  1.00  0.00    -0.356 OA
HETATM   25  C   UNL     1      20.172  47.872  48.875  1.00  0.00     0.210 C 
ENDBRANCH  19  24
ENDBRANCH  13  16
ENDBRANCH   4  12
ENDBRANCH   1   4
BRANCH   1  26
HETATM   26  C   UNL     1      27.726  41.246  47.577  1.00  0.00     0.192 C 
BRANCH  26  27
HETATM   27  C   UNL     1      28.258  39.927  47.987  1.00  0.00     0.070 A 
HETATM   28  O   UNL     1      28.003  38.920  47.100  1.00  0.00    -0.325 OA
HETATM   29  C   UNL     1      28.537  37.785  47.614  1.00  0.00     0.142 A 
HETATM   30  C   UNL     1      29.139  38.046  48.821  1.00  0.00     0.027 A 
HETATM   31  C   UNL     1      28.957  39.428  49.067  1.00  0.00     0.036 A 
ENDBRANCH  26  27
ENDBRANCH   1  26
BRANCH   2  32
HETATM   32  C   UNL     1      27.008  42.664  50.118  1.00  0.00     0.228 C 
BRANCH  32  33
HETATM   33  N   UNL     1      26.783  42.799  51.546  1.00  0.00    -0.347 N 
HETATM   34  C   UNL     1      25.870  43.627  52.190  1.00  0.00     0.171 C 
HETATM   35  S   UNL     1      24.773  44.674  51.532  1.00  0.00    -0.041 SA
HETATM   36  N   UNL     1      26.037  43.465  53.557  1.00  0.00    -0.357 N 
HETATM   37  C   UNL     1      27.160  42.603  53.864  1.00  0.00     0.135 C 
HETATM   38  H   UNL     1      25.570  44.057  54.231  1.00  0.00     0.162 HD
HETATM   39  C   UNL     1      27.470  41.951  52.506  1.00  0.00     0.155 C 
BRANCH  37  40
HETATM   40  C   UNL     1      28.347  43.360  54.426  1.00  0.00    -0.034 A 
HETATM   41  C   UNL     1      28.170  44.669  54.902  1.00  0.00     0.009 A 
HETATM   42  C   UNL     1      29.233  45.375  55.469  1.00  0.00     0.001 A 
HETATM   43  C   UNL     1      30.489  44.783  55.572  1.00  0.00     0.000 A 
HETATM   44  C   UNL     1      30.683  43.484  55.108  1.00  0.00     0.001 A 
HETATM   45  C   UNL     1      29.620  42.777  54.542  1.00  0.00     0.009 A 
ENDBRANCH  37  40
ENDBRANCH  32  33
ENDBRANCH   2  32
TORSDOF 10
ENDMDL
