MODEL 1
REMARK VINA RESULT:      -8.5      0.000      0.000
REMARK  5 active torsions:
REMARK  status: ('A' for Active; 'I' for Inactive)
REMARK    1  A    between atoms: C_3  and  C_4 
REMARK    2  A    between atoms: C_15  and  C_16 
REMARK       I    between atoms: C_16  and  N_17 
REMARK    3  A    between atoms: N_17  and  C_18 
REMARK    4  A    between atoms: C_18  and  C_19 
REMARK    5  A    between atoms: C_22  and  O_23 
ROOT
HETATM    1  C   UNL     1      25.768  47.885  54.057  1.00  0.00     0.055 C 
HETATM    2  C   UNL     1      26.734  46.742  54.153  1.00  0.00     0.024 A 
HETATM    3  C   UNL     1      26.835  45.691  53.320  1.00  0.00     0.096 A 
HETATM    4  O   UNL     1      27.778  44.688  53.414  1.00  0.00    -0.307 OA
HETATM    5  C   UNL     1      28.653  44.674  54.469  1.00  0.00     0.106 A 
HETATM    6  C   UNL     1      28.624  45.675  55.442  1.00  0.00     0.050 A 
HETATM    7  C   UNL     1      27.677  46.792  55.298  1.00  0.00     0.193 A 
HETATM    8  O   UNL     1      27.667  47.720  56.100  1.00  0.00    -0.287 OA
HETATM    9  C   UNL     1      29.588  43.629  54.573  1.00  0.00     0.066 A 
HETATM   10  C   UNL     1      30.443  43.594  55.691  1.00  0.00     0.020 A 
HETATM   11  C   UNL     1      30.393  44.587  56.670  1.00  0.00     0.002 A 
HETATM   12  C   UNL     1      29.489  45.636  56.541  1.00  0.00     0.018 A 
ENDROOT
BRANCH   9  13
HETATM   13  C   UNL     1      29.791  42.556  53.543  1.00  0.00     0.254 C 
HETATM   14  N   UNL     1      28.731  41.725  53.265  1.00  0.00    -0.353 N 
HETATM   15  H   UNL     1      27.903  41.756  53.844  1.00  0.00     0.163 HD
HETATM   16  O   UNL     1      30.862  42.479  52.949  1.00  0.00    -0.268 OA
BRANCH  14  17
HETATM   17  C   UNL     1      28.768  40.748  52.205  1.00  0.00     0.161 C 
BRANCH  17  18
HETATM   18  C   UNL     1      27.813  41.089  51.094  1.00  0.00    -0.040 A 
HETATM   19  C   UNL     1      26.959  40.119  50.556  1.00  0.00     0.011 A 
HETATM   20  C   UNL     1      26.047  40.460  49.555  1.00  0.00     0.037 A 
HETATM   21  C   UNL     1      25.970  41.769  49.075  1.00  0.00     0.068 A 
HETATM   22  C   UNL     1      26.845  42.732  49.580  1.00  0.00     0.037 A 
HETATM   23  C   UNL     1      27.764  42.392  50.579  1.00  0.00     0.011 A 
BRANCH  21  24
HETATM   24  O   UNL     1      25.016  41.977  48.118  1.00  0.00    -0.356 OA
HETATM   25  C   UNL     1      23.684  41.613  48.458  1.00  0.00     0.210 C 
ENDBRANCH  21  24
ENDBRANCH  17  18
ENDBRANCH  14  17
ENDBRANCH   9  13
BRANCH   3  26
HETATM   26  C   UNL     1      25.919  45.478  52.190  1.00  0.00    -0.002 A 
HETATM   27  C   UNL     1      24.921  44.499  52.260  1.00  0.00     0.014 A 
HETATM   28  C   UNL     1      24.041  44.318  51.191  1.00  0.00     0.001 A 
HETATM   29  C   UNL     1      24.150  45.117  50.051  1.00  0.00     0.000 A 
HETATM   30  C   UNL     1      25.137  46.098  49.978  1.00  0.00     0.001 A 
HETATM   31  C   UNL     1      26.017  46.281  51.045  1.00  0.00     0.014 A 
ENDBRANCH   3  26
TORSDOF 5
ENDMDL
MODEL 2
REMARK VINA RESULT:      -8.5      1.806      4.620
REMARK  5 active torsions:
REMARK  status: ('A' for Active; 'I' for Inactive)
REMARK    1  A    between atoms: C_3  and  C_4 
REMARK    2  A    between atoms: C_15  and  C_16 
REMARK       I    between atoms: C_16  and  N_17 
REMARK    3  A    between atoms: N_17  and  C_18 
REMARK    4  A    between atoms: C_18  and  C_19 
REMARK    5  A    between atoms: C_22  and  O_23 
ROOT
HETATM    1  C   UNL     1      29.046  40.974  53.107  1.00  0.00     0.055 C 
HETATM    2  C   UNL     1      28.533  42.378  53.217  1.00  0.00     0.024 A 
HETATM    3  C   UNL     1      27.647  42.985  52.407  1.00  0.00     0.096 A 
HETATM    4  O   UNL     1      27.158  44.264  52.578  1.00  0.00    -0.307 OA
HETATM    5  C   UNL     1      27.644  45.049  53.592  1.00  0.00     0.106 A 
HETATM    6  C   UNL     1      28.612  44.565  54.475  1.00  0.00     0.050 A 
HETATM    7  C   UNL     1      29.071  43.172  54.349  1.00  0.00     0.193 A 
HETATM    8  O   UNL     1      29.873  42.697  55.145  1.00  0.00    -0.287 OA
HETATM    9  C   UNL     1      27.164  46.362  53.737  1.00  0.00     0.066 A 
HETATM   10  C   UNL     1      27.712  47.176  54.746  1.00  0.00     0.020 A 
HETATM   11  C   UNL     1      28.694  46.692  55.611  1.00  0.00     0.002 A 
HETATM   12  C   UNL     1      29.138  45.380  55.484  1.00  0.00     0.018 A 
ENDROOT
BRANCH   9  13
HETATM   13  C   UNL     1      26.055  46.962  52.923  1.00  0.00     0.254 C 
HETATM   14  N   UNL     1      25.950  46.585  51.605  1.00  0.00    -0.353 N 
HETATM   15  H   UNL     1      26.685  46.037  51.179  1.00  0.00     0.163 HD
HETATM   16  O   UNL     1      25.253  47.723  53.456  1.00  0.00    -0.268 OA
BRANCH  14  17
HETATM   17  C   UNL     1      24.850  46.993  50.766  1.00  0.00     0.161 C 
BRANCH  17  18
HETATM   18  C   UNL     1      24.116  45.813  50.188  1.00  0.00    -0.040 A 
HETATM   19  C   UNL     1      23.453  45.911  48.959  1.00  0.00     0.011 A 
HETATM   20  C   UNL     1      22.813  44.795  48.414  1.00  0.00     0.037 A 
HETATM   21  C   UNL     1      22.825  43.569  49.081  1.00  0.00     0.068 A 
HETATM   22  C   UNL     1      23.452  43.475  50.324  1.00  0.00     0.037 A 
HETATM   23  C   UNL     1      24.089  44.593  50.876  1.00  0.00     0.011 A 
BRANCH  21  24
HETATM   24  O   UNL     1      22.188  42.550  48.427  1.00  0.00    -0.356 OA
HETATM   25  C   UNL     1      22.775  42.115  47.207  1.00  0.00     0.210 C 
ENDBRANCH  21  24
ENDBRANCH  17  18
ENDBRANCH  14  17
ENDBRANCH   9  13
BRANCH   3  26
HETATM   26  C   UNL     1      27.091  42.342  51.208  1.00  0.00    -0.002 A 
HETATM   27  C   UNL     1      26.443  41.104  51.302  1.00  0.00     0.014 A 
HETATM   28  C   UNL     1      25.898  40.510  50.161  1.00  0.00     0.001 A 
HETATM   29  C   UNL     1      25.994  41.151  48.925  1.00  0.00     0.000 A 
HETATM   30  C   UNL     1      26.632  42.386  48.826  1.00  0.00     0.001 A 
HETATM   31  C   UNL     1      27.176  42.982  49.964  1.00  0.00     0.014 A 
ENDBRANCH   3  26
TORSDOF 5
ENDMDL
MODEL 3
REMARK VINA RESULT:      -8.4      2.032      7.675
REMARK  5 active torsions:
REMARK  status: ('A' for Active; 'I' for Inactive)
REMARK    1  A    between atoms: C_3  and  C_4 
REMARK    2  A    between atoms: C_15  and  C_16 
REMARK       I    between atoms: C_16  and  N_17 
REMARK    3  A    between atoms: N_17  and  C_18 
REMARK    4  A    between atoms: C_18  and  C_19 
REMARK    5  A    between atoms: C_22  and  O_23 
ROOT
HETATM    1  C   UNL     1      27.185  40.555  49.458  1.00  0.00     0.055 C 
HETATM    2  C   UNL     1      26.517  41.882  49.656  1.00  0.00     0.024 A 
HETATM    3  C   UNL     1      26.798  42.801  50.597  1.00  0.00     0.096 A 
HETATM    4  O   UNL     1      26.194  44.037  50.709  1.00  0.00    -0.307 OA
HETATM    5  C   UNL     1      25.165  44.370  49.867  1.00  0.00     0.106 A 
HETATM    6  C   UNL     1      24.730  43.487  48.877  1.00  0.00     0.050 A 
HETATM    7  C   UNL     1      25.429  42.203  48.699  1.00  0.00     0.193 A 
HETATM    8  O   UNL     1      25.113  41.432  47.800  1.00  0.00    -0.287 OA
HETATM    9  C   UNL     1      24.535  45.619  50.011  1.00  0.00     0.066 A 
HETATM   10  C   UNL     1      23.442  45.926  49.178  1.00  0.00     0.020 A 
HETATM   11  C   UNL     1      23.000  45.029  48.206  1.00  0.00     0.002 A 
HETATM   12  C   UNL     1      23.652  43.810  48.046  1.00  0.00     0.018 A 
ENDROOT
BRANCH   9  13
HETATM   13  C   UNL     1      24.975  46.694  50.961  1.00  0.00     0.254 C 
HETATM   14  N   UNL     1      25.176  46.345  52.276  1.00  0.00    -0.353 N 
HETATM   15  H   UNL     1      24.895  45.431  52.602  1.00  0.00     0.163 HD
HETATM   16  O   UNL     1      25.187  47.828  50.540  1.00  0.00    -0.268 OA
BRANCH  14  17
HETATM   17  C   UNL     1      25.722  47.261  53.247  1.00  0.00     0.161 C 
BRANCH  17  18
HETATM   18  C   UNL     1      26.815  46.626  54.065  1.00  0.00    -0.040 A 
HETATM   19  C   UNL     1      27.890  47.386  54.541  1.00  0.00     0.011 A 
HETATM   20  C   UNL     1      28.873  46.793  55.336  1.00  0.00     0.037 A 
HETATM   21  C   UNL     1      28.802  45.439  55.669  1.00  0.00     0.068 A 
HETATM   22  C   UNL     1      27.754  44.668  55.165  1.00  0.00     0.037 A 
HETATM   23  C   UNL     1      26.770  45.258  54.364  1.00  0.00     0.011 A 
BRANCH  21  24
HETATM   24  O   UNL     1      29.810  44.990  56.477  1.00  0.00    -0.356 OA
HETATM   25  C   UNL     1      30.319  45.913  57.431  1.00  0.00     0.210 C 
ENDBRANCH  21  24
ENDBRANCH  17  18
ENDBRANCH  14  17
ENDBRANCH   9  13
BRANCH   3  26
HETATM   26  C   UNL     1      27.799  42.582  51.651  1.00  0.00    -0.002 A 
HETATM   27  C   UNL     1      28.922  43.412  51.747  1.00  0.00     0.014 A 
HETATM   28  C   UNL     1      29.857  43.212  52.765  1.00  0.00     0.001 A 
HETATM   29  C   UNL     1      29.672  42.186  53.693  1.00  0.00     0.000 A 
HETATM   30  C   UNL     1      28.553  41.360  53.607  1.00  0.00     0.001 A 
HETATM   31  C   UNL     1      27.617  41.558  52.591  1.00  0.00     0.014 A 
ENDBRANCH   3  26
TORSDOF 5
ENDMDL
MODEL 4
REMARK VINA RESULT:      -8.1      4.245      8.084
REMARK  5 active torsions:
REMARK  status: ('A' for Active; 'I' for Inactive)
REMARK    1  A    between atoms: C_3  and  C_4 
REMARK    2  A    between atoms: C_15  and  C_16 
REMARK       I    between atoms: C_16  and  N_17 
REMARK    3  A    between atoms: N_17  and  C_18 
REMARK    4  A    between atoms: C_18  and  C_19 
REMARK    5  A    between atoms: C_22  and  O_23 
ROOT
HETATM    1  C   UNL     1      22.857  51.232  49.162  1.00  0.00     0.055 C 
HETATM    2  C   UNL     1      22.387  49.818  48.998  1.00  0.00     0.024 A 
HETATM    3  C   UNL     1      23.144  48.706  48.996  1.00  0.00     0.096 A 
HETATM    4  O   UNL     1      22.663  47.416  48.898  1.00  0.00    -0.307 OA
HETATM    5  C   UNL     1      21.323  47.202  48.704  1.00  0.00     0.106 A 
HETATM    6  C   UNL     1      20.427  48.270  48.629  1.00  0.00     0.050 A 
HETATM    7  C   UNL     1      20.925  49.643  48.820  1.00  0.00     0.193 A 
HETATM    8  O   UNL     1      20.156  50.598  48.822  1.00  0.00    -0.287 OA
HETATM    9  C   UNL     1      20.848  45.885  48.572  1.00  0.00     0.066 A 
HETATM   10  C   UNL     1      19.479  45.681  48.316  1.00  0.00     0.020 A 
HETATM   11  C   UNL     1      18.594  46.756  48.221  1.00  0.00     0.002 A 
HETATM   12  C   UNL     1      19.066  48.053  48.388  1.00  0.00     0.018 A 
ENDROOT
BRANCH   9  13
HETATM   13  C   UNL     1      21.688  44.652  48.739  1.00  0.00     0.254 C 
HETATM   14  N   UNL     1      22.604  44.633  49.764  1.00  0.00    -0.353 N 
HETATM   15  H   UNL     1      22.793  45.478  50.285  1.00  0.00     0.163 HD
HETATM   16  O   UNL     1      21.507  43.689  47.999  1.00  0.00    -0.268 OA
BRANCH  14  17
HETATM   17  C   UNL     1      23.369  43.458  50.100  1.00  0.00     0.161 C 
BRANCH  17  18
HETATM   18  C   UNL     1      24.567  43.791  50.947  1.00  0.00    -0.040 A 
HETATM   19  C   UNL     1      24.575  44.925  51.768  1.00  0.00     0.011 A 
HETATM   20  C   UNL     1      25.677  45.197  52.582  1.00  0.00     0.037 A 
HETATM   21  C   UNL     1      26.784  44.347  52.593  1.00  0.00     0.068 A 
HETATM   22  C   UNL     1      26.798  43.236  51.749  1.00  0.00     0.037 A 
HETATM   23  C   UNL     1      25.698  42.964  50.927  1.00  0.00     0.011 A 
BRANCH  21  24
HETATM   24  O   UNL     1      27.782  44.710  53.455  1.00  0.00    -0.356 OA
HETATM   25  C   UNL     1      27.434  45.639  54.474  1.00  0.00     0.210 C 
ENDBRANCH  21  24
ENDBRANCH  17  18
ENDBRANCH  14  17
ENDBRANCH   9  13
BRANCH   3  26
HETATM   26  C   UNL     1      24.611  48.739  49.089  1.00  0.00    -0.002 A 
HETATM   27  C   UNL     1      25.294  47.796  49.866  1.00  0.00     0.014 A 
HETATM   28  C   UNL     1      26.689  47.820  49.931  1.00  0.00     0.001 A 
HETATM   29  C   UNL     1      27.406  48.783  49.218  1.00  0.00     0.000 A 
HETATM   30  C   UNL     1      26.732  49.720  48.439  1.00  0.00     0.001 A 
HETATM   31  C   UNL     1      25.338  49.698  48.371  1.00  0.00     0.014 A 
ENDBRANCH   3  26
TORSDOF 5
ENDMDL
MODEL 5
REMARK VINA RESULT:      -8.1      7.672     10.886
REMARK  5 active torsions:
REMARK  status: ('A' for Active; 'I' for Inactive)
REMARK    1  A    between atoms: C_3  and  C_4 
REMARK    2  A    between atoms: C_15  and  C_16 
REMARK       I    between atoms: C_16  and  N_17 
REMARK    3  A    between atoms: N_17  and  C_18 
REMARK    4  A    between atoms: C_18  and  C_19 
REMARK    5  A    between atoms: C_22  and  O_23 
ROOT
HETATM    1  C   UNL     1      23.120  51.043  49.083  1.00  0.00     0.055 C 
HETATM    2  C   UNL     1      22.486  49.688  48.988  1.00  0.00     0.024 A 
HETATM    3  C   UNL     1      21.182  49.411  48.811  1.00  0.00     0.096 A 
HETATM    4  O   UNL     1      20.649  48.146  48.672  1.00  0.00    -0.307 OA
HETATM    5  C   UNL     1      21.459  47.048  48.798  1.00  0.00     0.106 A 
HETATM    6  C   UNL     1      22.828  47.187  49.040  1.00  0.00     0.050 A 
HETATM    7  C   UNL     1      23.414  48.536  49.102  1.00  0.00     0.193 A 
HETATM    8  O   UNL     1      24.621  48.693  49.251  1.00  0.00    -0.287 OA
HETATM    9  C   UNL     1      20.900  45.763  48.688  1.00  0.00     0.066 A 
HETATM   10  C   UNL     1      21.732  44.643  48.876  1.00  0.00     0.020 A 
HETATM   11  C   UNL     1      23.094  44.791  49.140  1.00  0.00     0.002 A 
HETATM   12  C   UNL     1      23.647  46.066  49.211  1.00  0.00     0.018 A 
ENDROOT
BRANCH   9  13
HETATM   13  C   UNL     1      19.470  45.480  48.327  1.00  0.00     0.254 C 
HETATM   14  N   UNL     1      18.527  46.425  48.654  1.00  0.00    -0.353 N 
HETATM   15  H   UNL     1      18.781  47.206  49.244  1.00  0.00     0.163 HD
HETATM   16  O   UNL     1      19.190  44.454  47.715  1.00  0.00    -0.268 OA
BRANCH  14  17
HETATM   17  C   UNL     1      17.149  46.322  48.241  1.00  0.00     0.161 C 
BRANCH  17  18
HETATM   18  C   UNL     1      16.661  47.589  47.593  1.00  0.00    -0.040 A 
HETATM   19  C   UNL     1      16.769  47.777  46.210  1.00  0.00     0.011 A 
HETATM   20  C   UNL     1      16.271  48.939  45.617  1.00  0.00     0.037 A 
HETATM   21  C   UNL     1      15.659  49.929  46.388  1.00  0.00     0.068 A 
HETATM   22  C   UNL     1      15.582  49.764  47.771  1.00  0.00     0.037 A 
HETATM   23  C   UNL     1      16.085  48.604  48.370  1.00  0.00     0.011 A 
BRANCH  21  24
HETATM   24  O   UNL     1      15.188  51.002  45.682  1.00  0.00    -0.356 OA
HETATM   25  C   UNL     1      15.132  52.243  46.374  1.00  0.00     0.210 C 
ENDBRANCH  21  24
ENDBRANCH  17  18
ENDBRANCH  14  17
ENDBRANCH   9  13
BRANCH   3  26
HETATM   26  C   UNL     1      20.146  50.452  48.755  1.00  0.00    -0.002 A 
HETATM   27  C   UNL     1      19.648  50.894  47.524  1.00  0.00     0.014 A 
HETATM   28  C   UNL     1      18.648  51.868  47.481  1.00  0.00     0.001 A 
HETATM   29  C   UNL     1      18.138  52.400  48.666  1.00  0.00     0.000 A 
HETATM   30  C   UNL     1      18.625  51.960  49.895  1.00  0.00     0.001 A 
HETATM   31  C   UNL     1      19.624  50.987  49.941  1.00  0.00     0.014 A 
ENDBRANCH   3  26
TORSDOF 5
ENDMDL
MODEL 6
REMARK VINA RESULT:      -8.0      3.375      7.640
REMARK  5 active torsions:
REMARK  status: ('A' for Active; 'I' for Inactive)
REMARK    1  A    between atoms: C_3  and  C_4 
REMARK    2  A    between atoms: C_15  and  C_16 
REMARK       I    between atoms: C_16  and  N_17 
REMARK    3  A    between atoms: N_17  and  C_18 
REMARK    4  A    between atoms: C_18  and  C_19 
REMARK    5  A    between atoms: C_22  and  O_23 
ROOT
HETATM    1  C   UNL     1      21.016  46.530  46.733  1.00  0.00     0.055 C 
HETATM    2  C   UNL     1      22.105  46.293  47.735  1.00  0.00     0.024 A 
HETATM    3  C   UNL     1      22.622  47.186  48.599  1.00  0.00     0.096 A 
HETATM    4  O   UNL     1      23.588  46.910  49.546  1.00  0.00    -0.307 OA
HETATM    5  C   UNL     1      24.155  45.663  49.596  1.00  0.00     0.106 A 
HETATM    6  C   UNL     1      23.754  44.653  48.719  1.00  0.00     0.050 A 
HETATM    7  C   UNL     1      22.663  44.919  47.766  1.00  0.00     0.193 A 
HETATM    8  O   UNL     1      22.244  44.037  47.025  1.00  0.00    -0.287 OA
HETATM    9  C   UNL     1      25.161  45.403  50.543  1.00  0.00     0.066 A 
HETATM   10  C   UNL     1      25.776  44.136  50.547  1.00  0.00     0.020 A 
HETATM   11  C   UNL     1      25.384  43.140  49.652  1.00  0.00     0.002 A 
HETATM   12  C   UNL     1      24.363  43.394  48.743  1.00  0.00     0.018 A 
ENDROOT
BRANCH   9  13
HETATM   13  C   UNL     1      25.606  46.365  51.606  1.00  0.00     0.254 C 
HETATM   14  N   UNL     1      25.894  45.858  52.851  1.00  0.00    -0.353 N 
HETATM   15  H   UNL     1      25.670  44.895  53.066  1.00  0.00     0.163 HD
HETATM   16  O   UNL     1      25.747  47.553  51.330  1.00  0.00    -0.268 OA
BRANCH  14  17
HETATM   17  C   UNL     1      26.454  46.664  53.907  1.00  0.00     0.161 C 
BRANCH  17  18
HETATM   18  C   UNL     1      27.629  45.992  54.565  1.00  0.00    -0.040 A 
HETATM   19  C   UNL     1      28.056  44.724  54.150  1.00  0.00     0.011 A 
HETATM   20  C   UNL     1      29.175  44.132  54.740  1.00  0.00     0.037 A 
HETATM   21  C   UNL     1      29.885  44.790  55.747  1.00  0.00     0.068 A 
HETATM   22  C   UNL     1      29.441  46.036  56.190  1.00  0.00     0.037 A 
HETATM   23  C   UNL     1      28.316  46.630  55.605  1.00  0.00     0.011 A 
BRANCH  21  24
HETATM   24  O   UNL     1      30.977  44.115  56.218  1.00  0.00    -0.356 OA
HETATM   25  C   UNL     1      31.275  44.275  57.599  1.00  0.00     0.210 C 
ENDBRANCH  21  24
ENDBRANCH  17  18
ENDBRANCH  14  17
ENDBRANCH   9  13
BRANCH   3  26
HETATM   26  C   UNL     1      22.215  48.598  48.626  1.00  0.00    -0.002 A 
HETATM   27  C   UNL     1      21.002  48.976  49.212  1.00  0.00     0.014 A 
HETATM   28  C   UNL     1      20.632  50.322  49.254  1.00  0.00     0.001 A 
HETATM   29  C   UNL     1      21.475  51.295  48.715  1.00  0.00     0.000 A 
HETATM   30  C   UNL     1      22.687  50.926  48.135  1.00  0.00     0.001 A 
HETATM   31  C   UNL     1      23.059  49.582  48.093  1.00  0.00     0.014 A 
ENDBRANCH   3  26
TORSDOF 5
ENDMDL
MODEL 7
REMARK VINA RESULT:      -7.7      1.925      7.689
REMARK  5 active torsions:
REMARK  status: ('A' for Active; 'I' for Inactive)
REMARK    1  A    between atoms: C_3  and  C_4 
REMARK    2  A    between atoms: C_15  and  C_16 
REMARK       I    between atoms: C_16  and  N_17 
REMARK    3  A    between atoms: N_17  and  C_18 
REMARK    4  A    between atoms: C_18  and  C_19 
REMARK    5  A    between atoms: C_22  and  O_23 
ROOT
HETATM    1  C   UNL     1      28.990  39.114  50.697  1.00  0.00     0.055 C 
HETATM    2  C   UNL     1      27.888  40.039  50.277  1.00  0.00     0.024 A 
HETATM    3  C   UNL     1      27.570  41.225  50.826  1.00  0.00     0.096 A 
HETATM    4  O   UNL     1      26.581  42.073  50.370  1.00  0.00    -0.307 OA
HETATM    5  C   UNL     1      25.778  41.685  49.329  1.00  0.00     0.106 A 
HETATM    6  C   UNL     1      25.960  40.451  48.701  1.00  0.00     0.050 A 
HETATM    7  C   UNL     1      27.069  39.583  49.128  1.00  0.00     0.193 A 
HETATM    8  O   UNL     1      27.295  38.521  48.556  1.00  0.00    -0.287 OA
HETATM    9  C   UNL     1      24.752  42.542  48.895  1.00  0.00     0.066 A 
HETATM   10  C   UNL     1      23.898  42.108  47.863  1.00  0.00     0.020 A 
HETATM   11  C   UNL     1      24.073  40.865  47.256  1.00  0.00     0.002 A 
HETATM   12  C   UNL     1      25.113  40.038  47.667  1.00  0.00     0.018 A 
ENDROOT
BRANCH   9  13
HETATM   13  C   UNL     1      24.520  43.932  49.414  1.00  0.00     0.254 C 
HETATM   14  N   UNL     1      24.692  44.150  50.761  1.00  0.00    -0.353 N 
HETATM   15  H   UNL     1      24.826  43.366  51.384  1.00  0.00     0.163 HD
HETATM   16  O   UNL     1      24.237  44.833  48.631  1.00  0.00    -0.268 OA
BRANCH  14  17
HETATM   17  C   UNL     1      24.626  45.465  51.349  1.00  0.00     0.161 C 
BRANCH  17  18
HETATM   18  C   UNL     1      25.484  45.574  52.580  1.00  0.00    -0.040 A 
HETATM   19  C   UNL     1      25.728  44.456  53.387  1.00  0.00     0.011 A 
HETATM   20  C   UNL     1      26.563  44.562  54.502  1.00  0.00     0.037 A 
HETATM   21  C   UNL     1      27.166  45.778  54.830  1.00  0.00     0.068 A 
HETATM   22  C   UNL     1      26.895  46.904  54.051  1.00  0.00     0.037 A 
HETATM   23  C   UNL     1      26.055  46.802  52.936  1.00  0.00     0.011 A 
BRANCH  21  24
HETATM   24  O   UNL     1      27.983  45.740  55.926  1.00  0.00    -0.356 OA
HETATM   25  C   UNL     1      29.350  46.065  55.711  1.00  0.00     0.210 C 
ENDBRANCH  21  24
ENDBRANCH  17  18
ENDBRANCH  14  17
ENDBRANCH   9  13
BRANCH   3  26
HETATM   26  C   UNL     1      28.250  41.763  52.013  1.00  0.00    -0.002 A 
HETATM   27  C   UNL     1      28.069  41.167  53.266  1.00  0.00     0.014 A 
HETATM   28  C   UNL     1      28.737  41.671  54.385  1.00  0.00     0.001 A 
HETATM   29  C   UNL     1      29.589  42.768  54.255  1.00  0.00     0.000 A 
HETATM   30  C   UNL     1      29.777  43.363  53.010  1.00  0.00     0.001 A 
HETATM   31  C   UNL     1      29.113  42.862  51.890  1.00  0.00     0.014 A 
ENDBRANCH   3  26
TORSDOF 5
ENDMDL
MODEL 8
REMARK VINA RESULT:      -7.7      5.287      8.741
REMARK  5 active torsions:
REMARK  status: ('A' for Active; 'I' for Inactive)
REMARK    1  A    between atoms: C_3  and  C_4 
REMARK    2  A    between atoms: C_15  and  C_16 
REMARK       I    between atoms: C_16  and  N_17 
REMARK    3  A    between atoms: N_17  and  C_18 
REMARK    4  A    between atoms: C_18  and  C_19 
REMARK    5  A    between atoms: C_22  and  O_23 
ROOT
HETATM    1  C   UNL     1      26.678  48.240  49.873  1.00  0.00     0.055 C 
HETATM    2  C   UNL     1      25.583  47.232  49.695  1.00  0.00     0.024 A 
HETATM    3  C   UNL     1      24.319  47.466  49.299  1.00  0.00     0.096 A 
HETATM    4  O   UNL     1      23.357  46.498  49.093  1.00  0.00    -0.307 OA
HETATM    5  C   UNL     1      23.638  45.187  49.379  1.00  0.00     0.106 A 
HETATM    6  C   UNL     1      24.896  44.808  49.853  1.00  0.00     0.050 A 
HETATM    7  C   UNL     1      25.951  45.825  49.991  1.00  0.00     0.193 A 
HETATM    8  O   UNL     1      27.083  45.516  50.345  1.00  0.00    -0.287 OA
HETATM    9  C   UNL     1      22.640  44.214  49.197  1.00  0.00     0.066 A 
HETATM   10  C   UNL     1      22.923  42.880  49.549  1.00  0.00     0.020 A 
HETATM   11  C   UNL     1      24.175  42.513  50.043  1.00  0.00     0.002 A 
HETATM   12  C   UNL     1      25.169  43.476  50.185  1.00  0.00     0.018 A 
ENDROOT
BRANCH   9  13
HETATM   13  C   UNL     1      21.289  44.475  48.598  1.00  0.00     0.254 C 
HETATM   14  N   UNL     1      20.581  45.559  49.060  1.00  0.00    -0.353 N 
HETATM   15  H   UNL     1      20.907  46.064  49.873  1.00  0.00     0.163 HD
HETATM   16  O   UNL     1      20.878  43.757  47.691  1.00  0.00    -0.268 OA
BRANCH  14  17
HETATM   17  C   UNL     1      19.336  45.982  48.469  1.00  0.00     0.161 C 
BRANCH  17  18
HETATM   18  C   UNL     1      19.080  47.449  48.688  1.00  0.00    -0.040 A 
HETATM   19  C   UNL     1      18.926  47.966  49.979  1.00  0.00     0.011 A 
HETATM   20  C   UNL     1      18.732  49.337  50.170  1.00  0.00     0.037 A 
HETATM   21  C   UNL     1      18.690  50.210  49.082  1.00  0.00     0.068 A 
HETATM   22  C   UNL     1      18.806  49.695  47.790  1.00  0.00     0.037 A 
HETATM   23  C   UNL     1      18.993  48.322  47.595  1.00  0.00     0.011 A 
BRANCH  21  24
HETATM   24  O   UNL     1      18.526  51.529  49.406  1.00  0.00    -0.356 OA
HETATM   25  C   UNL     1      19.078  52.479  48.503  1.00  0.00     0.210 C 
ENDBRANCH  21  24
ENDBRANCH  17  18
ENDBRANCH  14  17
ENDBRANCH   9  13
BRANCH   3  26
HETATM   26  C   UNL     1      23.800  48.818  49.044  1.00  0.00    -0.002 A 
HETATM   27  C   UNL     1      24.441  49.664  48.131  1.00  0.00     0.014 A 
HETATM   28  C   UNL     1      23.929  50.938  47.878  1.00  0.00     0.001 A 
HETATM   29  C   UNL     1      22.774  51.370  48.532  1.00  0.00     0.000 A 
HETATM   30  C   UNL     1      22.128  50.531  49.437  1.00  0.00     0.001 A 
HETATM   31  C   UNL     1      22.637  49.257  49.691  1.00  0.00     0.014 A 
ENDBRANCH   3  26
TORSDOF 5
ENDMDL
MODEL 9
REMARK VINA RESULT:      -7.6      1.758      2.423
REMARK  5 active torsions:
REMARK  status: ('A' for Active; 'I' for Inactive)
REMARK    1  A    between atoms: C_3  and  C_4 
REMARK    2  A    between atoms: C_15  and  C_16 
REMARK       I    between atoms: C_16  and  N_17 
REMARK    3  A    between atoms: N_17  and  C_18 
REMARK    4  A    between atoms: C_18  and  C_19 
REMARK    5  A    between atoms: C_22  and  O_23 
ROOT
HETATM    1  C   UNL     1      25.252  47.027  52.174  1.00  0.00     0.055 C 
HETATM    2  C   UNL     1      26.101  45.821  52.448  1.00  0.00     0.024 A 
HETATM    3  C   UNL     1      26.046  44.630  51.825  1.00  0.00     0.096 A 
HETATM    4  O   UNL     1      26.886  43.564  52.071  1.00  0.00    -0.307 OA
HETATM    5  C   UNL     1      27.815  43.646  53.076  1.00  0.00     0.106 A 
HETATM    6  C   UNL     1      27.944  44.806  53.843  1.00  0.00     0.050 A 
HETATM    7  C   UNL     1      27.108  45.976  53.526  1.00  0.00     0.193 A 
HETATM    8  O   UNL     1      27.240  47.030  54.139  1.00  0.00    -0.287 OA
HETATM    9  C   UNL     1      28.643  42.542  53.340  1.00  0.00     0.066 A 
HETATM   10  C   UNL     1      29.554  42.619  54.412  1.00  0.00     0.020 A 
HETATM   11  C   UNL     1      29.661  43.773  55.187  1.00  0.00     0.002 A 
HETATM   12  C   UNL     1      28.863  44.875  54.896  1.00  0.00     0.018 A 
ENDROOT
BRANCH   9  13
HETATM   13  C   UNL     1      28.676  41.282  52.524  1.00  0.00     0.254 C 
HETATM   14  N   UNL     1      28.459  41.389  51.171  1.00  0.00    -0.353 N 
HETATM   15  H   UNL     1      28.147  42.267  50.779  1.00  0.00     0.163 HD
HETATM   16  O   UNL     1      28.940  40.213  53.067  1.00  0.00    -0.268 OA
BRANCH  14  17
HETATM   17  C   UNL     1      28.597  40.270  50.272  1.00  0.00     0.161 C 
BRANCH  17  18
HETATM   18  C   UNL     1      27.735  40.423  49.048  1.00  0.00    -0.040 A 
HETATM   19  C   UNL     1      26.445  40.958  49.139  1.00  0.00     0.011 A 
HETATM   20  C   UNL     1      25.674  41.136  47.988  1.00  0.00     0.037 A 
HETATM   21  C   UNL     1      26.174  40.786  46.732  1.00  0.00     0.068 A 
HETATM   22  C   UNL     1      27.445  40.217  46.639  1.00  0.00     0.037 A 
HETATM   23  C   UNL     1      28.218  40.032  47.792  1.00  0.00     0.011 A 
BRANCH  21  24
HETATM   24  O   UNL     1      25.331  41.038  45.685  1.00  0.00    -0.356 OA
HETATM   25  C   UNL     1      24.026  41.495  46.016  1.00  0.00     0.210 C 
ENDBRANCH  21  24
ENDBRANCH  17  18
ENDBRANCH  14  17
ENDBRANCH   9  13
BRANCH   3  26
HETATM   26  C   UNL     1      25.049  44.316  50.791  1.00  0.00    -0.002 A 
HETATM   27  C   UNL     1      25.127  44.910  49.526  1.00  0.00     0.014 A 
HETATM   28  C   UNL     1      24.189  44.589  48.542  1.00  0.00     0.001 A 
HETATM   29  C   UNL     1      23.174  43.671  48.817  1.00  0.00     0.000 A 
HETATM   30  C   UNL     1      23.094  43.072  50.072  1.00  0.00     0.001 A 
HETATM   31  C   UNL     1      24.030  43.391  51.056  1.00  0.00     0.014 A 
ENDBRANCH   3  26
TORSDOF 5
ENDMDL
MODEL 10
REMARK VINA RESULT:      -7.6      4.540      8.703
REMARK  5 active torsions:
REMARK  status: ('A' for Active; 'I' for Inactive)
REMARK    1  A    between atoms: C_3  and  C_4 
REMARK    2  A    between atoms: C_15  and  C_16 
REMARK       I    between atoms: C_16  and  N_17 
REMARK    3  A    between atoms: N_17  and  C_18 
REMARK    4  A    between atoms: C_18  and  C_19 
REMARK    5  A    between atoms: C_22  and  O_23 
ROOT
HETATM    1  C   UNL     1      19.181  44.901  47.533  1.00  0.00     0.055 C 
HETATM    2  C   UNL     1      20.112  46.059  47.731  1.00  0.00     0.024 A 
HETATM    3  C   UNL     1      21.429  46.006  47.999  1.00  0.00     0.096 A 
HETATM    4  O   UNL     1      22.262  47.100  48.118  1.00  0.00    -0.307 OA
HETATM    5  C   UNL     1      21.738  48.365  48.046  1.00  0.00     0.106 A 
HETATM    6  C   UNL     1      20.374  48.568  47.828  1.00  0.00     0.050 A 
HETATM    7  C   UNL     1      19.498  47.404  47.614  1.00  0.00     0.193 A 
HETATM    8  O   UNL     1      18.307  47.549  47.359  1.00  0.00    -0.287 OA
HETATM    9  C   UNL     1      22.590  49.472  48.202  1.00  0.00     0.066 A 
HETATM   10  C   UNL     1      22.032  50.765  48.184  1.00  0.00     0.020 A 
HETATM   11  C   UNL     1      20.664  50.958  47.987  1.00  0.00     0.002 A 
HETATM   12  C   UNL     1      19.833  49.858  47.798  1.00  0.00     0.018 A 
ENDROOT
BRANCH   9  13
HETATM   13  C   UNL     1      24.083  49.391  48.336  1.00  0.00     0.254 C 
HETATM   14  N   UNL     1      24.596  48.591  49.330  1.00  0.00    -0.353 N 
HETATM   15  H   UNL     1      23.978  48.196  50.026  1.00  0.00     0.163 HD
HETATM   16  O   UNL     1      24.798  49.991  47.538  1.00  0.00    -0.268 OA
BRANCH  14  17
HETATM   17  C   UNL     1      26.008  48.334  49.469  1.00  0.00     0.161 C 
BRANCH  17  18
HETATM   18  C   UNL     1      26.276  47.097  50.281  1.00  0.00    -0.040 A 
HETATM   19  C   UNL     1      26.007  47.066  51.655  1.00  0.00     0.011 A 
HETATM   20  C   UNL     1      26.220  45.897  52.388  1.00  0.00     0.037 A 
HETATM   21  C   UNL     1      26.701  44.742  51.767  1.00  0.00     0.068 A 
HETATM   22  C   UNL     1      27.006  44.778  50.406  1.00  0.00     0.037 A 
HETATM   23  C   UNL     1      26.800  45.950  49.670  1.00  0.00     0.011 A 
BRANCH  21  24
HETATM   24  O   UNL     1      26.836  43.658  52.590  1.00  0.00    -0.356 OA
HETATM   25  C   UNL     1      27.698  43.815  53.710  1.00  0.00     0.210 C 
ENDBRANCH  21  24
ENDBRANCH  17  18
ENDBRANCH  14  17
ENDBRANCH   9  13
BRANCH   3  26
HETATM   26  C   UNL     1      22.149  44.743  48.213  1.00  0.00    -0.002 A 
HETATM   27  C   UNL     1      22.686  44.039  47.129  1.00  0.00     0.014 A 
HETATM   28  C   UNL     1      23.389  42.851  47.343  1.00  0.00     0.001 A 
HETATM   29  C   UNL     1      23.561  42.364  48.639  1.00  0.00     0.000 A 
HETATM   30  C   UNL     1      23.034  43.063  49.724  1.00  0.00     0.001 A 
HETATM   31  C   UNL     1      22.333  44.251  49.513  1.00  0.00     0.014 A 
ENDBRANCH   3  26
TORSDOF 5
ENDMDL
