MODEL 1
REMARK VINA RESULT:      -9.2      0.000      0.000
REMARK  10 active torsions:
REMARK  status: ('A' for Active; 'I' for Inactive)
REMARK    1  A    between atoms: C_2  and  O_3 
REMARK    2  A    between atoms: O_3  and  C_4 
REMARK    3  A    between atoms: C_9  and  C_10 
REMARK    4  A    between atoms: C_10  and  O_11 
REMARK    5  A    between atoms: O_11  and  C_12 
REMARK    6  A    between atoms: C_12  and  C_13 
REMARK       I    between atoms: C_13  and  N_14 
REMARK    7  A    between atoms: N_14  and  C_15 
REMARK    8  A    between atoms: C_16  and  C_17 
REMARK       I    between atoms: C_17  and  N_18 
REMARK    9  A    between atoms: N_18  and  C_19 
REMARK   10  A    between atoms: C_19  and  C_20 
ROOT
HETATM    1  C   UNL     1      25.107  45.717  50.606  1.00  0.00     0.050 A 
HETATM    2  C   UNL     1      25.570  45.255  51.859  1.00  0.00     0.058 A 
HETATM    3  C   UNL     1      25.354  43.921  52.249  1.00  0.00     0.019 A 
HETATM    4  C   UNL     1      24.654  43.045  51.424  1.00  0.00     0.001 A 
HETATM    5  C   UNL     1      24.170  43.498  50.203  1.00  0.00     0.002 A 
HETATM    6  C   UNL     1      24.395  44.818  49.800  1.00  0.00     0.030 A 
ENDROOT
BRANCH   1   7
HETATM    7  N   UNL     1      25.392  47.042  50.182  1.00  0.00    -0.324 N 
HETATM    8  C   UNL     1      26.511  47.490  49.500  1.00  0.00     0.246 C 
HETATM    9  O   UNL     1      27.467  46.808  49.137  1.00  0.00    -0.271 OA
HETATM   10  H   UNL     1      24.716  47.758  50.463  1.00  0.00     0.169 HD
BRANCH   8  11
HETATM   11  C   UNL     1      26.460  48.981  49.156  1.00  0.00     0.282 C 
BRANCH  11  12
HETATM   12  O   UNL     1      25.157  49.548  49.276  1.00  0.00    -0.308 OA
BRANCH  12  13
HETATM   13  C   UNL     1      24.593  49.935  48.105  1.00  0.00     0.298 C 
HETATM   14  O   UNL     1      25.211  50.196  47.088  1.00  0.00    -0.259 OA
BRANCH  13  15
HETATM   15  C   UNL     1      23.126  50.000  48.285  1.00  0.00     0.092 A 
HETATM   16  C   UNL     1      22.335  48.859  48.203  1.00  0.00     0.180 A 
HETATM   17  N   UNL     1      20.984  48.885  48.349  1.00  0.00    -0.236 NA
HETATM   18  C   UNL     1      20.404  50.083  48.580  1.00  0.00     0.119 A 
HETATM   19  C   UNL     1      21.108  51.270  48.677  1.00  0.00     0.020 A 
HETATM   20  C   UNL     1      22.490  51.226  48.525  1.00  0.00     0.023 A 
BRANCH  16  21
HETATM   21  O   UNL     1      22.949  47.639  48.014  1.00  0.00    -0.334 OA
BRANCH  21  22
HETATM   22  C   UNL     1      22.051  46.528  48.049  1.00  0.00     0.173 C 
HETATM   23  C   UNL     1      22.072  45.864  46.684  1.00  0.00     0.034 C 
ENDBRANCH  21  22
ENDBRANCH  16  21
ENDBRANCH  13  15
ENDBRANCH  12  13
ENDBRANCH  11  12
ENDBRANCH   8  11
ENDBRANCH   1   7
BRANCH   2  24
HETATM   24  C   UNL     1      26.246  46.118  52.871  1.00  0.00     0.254 C 
HETATM   25  N   UNL     1      27.150  45.481  53.696  1.00  0.00    -0.349 N 
HETATM   26  H   UNL     1      27.475  44.570  53.394  1.00  0.00     0.163 HD
HETATM   27  O   UNL     1      26.046  47.327  52.884  1.00  0.00    -0.268 OA
BRANCH  25  28
HETATM   28  C   UNL     1      28.037  46.219  54.585  1.00  0.00     0.114 C 
HETATM   29  C   UNL     1      27.285  46.969  55.690  1.00  0.00     0.037 C 
BRANCH  28  30
HETATM   30  C   UNL     1      29.066  45.254  55.155  1.00  0.00    -0.036 A 
HETATM   31  C   UNL     1      29.340  44.023  54.535  1.00  0.00     0.009 A 
HETATM   32  C   UNL     1      30.310  43.163  55.053  1.00  0.00     0.001 A 
HETATM   33  C   UNL     1      31.024  43.524  56.192  1.00  0.00     0.000 A 
HETATM   34  C   UNL     1      30.772  44.746  56.814  1.00  0.00     0.001 A 
HETATM   35  C   UNL     1      29.802  45.607  56.297  1.00  0.00     0.009 A 
ENDBRANCH  28  30
ENDBRANCH  25  28
ENDBRANCH   2  24
TORSDOF 10
ENDMDL
MODEL 2
REMARK VINA RESULT:      -9.1      2.214      3.659
REMARK  10 active torsions:
REMARK  status: ('A' for Active; 'I' for Inactive)
REMARK    1  A    between atoms: C_2  and  O_3 
REMARK    2  A    between atoms: O_3  and  C_4 
REMARK    3  A    between atoms: C_9  and  C_10 
REMARK    4  A    between atoms: C_10  and  O_11 
REMARK    5  A    between atoms: O_11  and  C_12 
REMARK    6  A    between atoms: C_12  and  C_13 
REMARK       I    between atoms: C_13  and  N_14 
REMARK    7  A    between atoms: N_14  and  C_15 
REMARK    8  A    between atoms: C_16  and  C_17 
REMARK       I    between atoms: C_17  and  N_18 
REMARK    9  A    between atoms: N_18  and  C_19 
REMARK   10  A    between atoms: C_19  and  C_20 
ROOT
HETATM    1  C   UNL     1      26.937  42.629  51.185  1.00  0.00     0.050 A 
HETATM    2  C   UNL     1      27.865  42.927  52.209  1.00  0.00     0.058 A 
HETATM    3  C   UNL     1      28.788  41.955  52.637  1.00  0.00     0.019 A 
HETATM    4  C   UNL     1      28.780  40.678  52.084  1.00  0.00     0.001 A 
HETATM    5  C   UNL     1      27.852  40.366  51.099  1.00  0.00     0.002 A 
HETATM    6  C   UNL     1      26.942  41.331  50.654  1.00  0.00     0.030 A 
ENDROOT
BRANCH   1   7
HETATM    7  N   UNL     1      26.058  43.634  50.701  1.00  0.00    -0.324 N 
HETATM    8  C   UNL     1      24.692  43.734  50.906  1.00  0.00     0.246 C 
HETATM    9  O   UNL     1      23.992  42.958  51.552  1.00  0.00    -0.271 OA
HETATM   10  H   UNL     1      26.476  44.336  50.083  1.00  0.00     0.169 HD
BRANCH   8  11
HETATM   11  C   UNL     1      24.071  44.984  50.277  1.00  0.00     0.282 C 
BRANCH  11  12
HETATM   12  O   UNL     1      25.034  45.933  49.827  1.00  0.00    -0.308 OA
BRANCH  12  13
HETATM   13  C   UNL     1      25.067  47.093  50.532  1.00  0.00     0.298 C 
HETATM   14  O   UNL     1      24.920  47.176  51.739  1.00  0.00    -0.259 OA
BRANCH  13  15
HETATM   15  C   UNL     1      25.289  48.212  49.592  1.00  0.00     0.092 A 
HETATM   16  C   UNL     1      24.228  48.841  48.950  1.00  0.00     0.180 A 
HETATM   17  N   UNL     1      24.398  49.863  48.071  1.00  0.00    -0.236 NA
HETATM   18  C   UNL     1      25.662  50.268  47.820  1.00  0.00     0.119 A 
HETATM   19  C   UNL     1      26.779  49.703  48.409  1.00  0.00     0.020 A 
HETATM   20  C   UNL     1      26.588  48.658  49.308  1.00  0.00     0.023 A 
BRANCH  16  21
HETATM   21  O   UNL     1      22.942  48.447  49.254  1.00  0.00    -0.334 OA
BRANCH  21  22
HETATM   22  C   UNL     1      22.090  48.328  48.113  1.00  0.00     0.173 C 
HETATM   23  C   UNL     1      20.715  48.843  48.498  1.00  0.00     0.034 C 
ENDBRANCH  21  22
ENDBRANCH  16  21
ENDBRANCH  13  15
ENDBRANCH  12  13
ENDBRANCH  11  12
ENDBRANCH   8  11
ENDBRANCH   1   7
BRANCH   2  24
HETATM   24  C   UNL     1      27.911  44.224  52.945  1.00  0.00     0.254 C 
HETATM   25  N   UNL     1      28.541  44.197  54.171  1.00  0.00    -0.349 N 
HETATM   26  H   UNL     1      29.136  43.398  54.357  1.00  0.00     0.163 HD
HETATM   27  O   UNL     1      27.477  45.245  52.424  1.00  0.00    -0.268 OA
BRANCH  25  28
HETATM   28  C   UNL     1      28.849  45.415  54.909  1.00  0.00     0.114 C 
HETATM   29  C   UNL     1      27.598  46.123  55.440  1.00  0.00     0.037 C 
BRANCH  28  30
HETATM   30  C   UNL     1      29.824  45.073  56.025  1.00  0.00    -0.036 A 
HETATM   31  C   UNL     1      29.812  45.765  57.248  1.00  0.00     0.009 A 
HETATM   32  C   UNL     1      30.692  45.417  58.274  1.00  0.00     0.001 A 
HETATM   33  C   UNL     1      31.590  44.368  58.095  1.00  0.00     0.000 A 
HETATM   34  C   UNL     1      31.609  43.665  56.892  1.00  0.00     0.001 A 
HETATM   35  C   UNL     1      30.729  44.012  55.865  1.00  0.00     0.009 A 
ENDBRANCH  28  30
ENDBRANCH  25  28
ENDBRANCH   2  24
TORSDOF 10
ENDMDL
MODEL 3
REMARK VINA RESULT:      -8.9      2.087      9.473
REMARK  10 active torsions:
REMARK  status: ('A' for Active; 'I' for Inactive)
REMARK    1  A    between atoms: C_2  and  O_3 
REMARK    2  A    between atoms: O_3  and  C_4 
REMARK    3  A    between atoms: C_9  and  C_10 
REMARK    4  A    between atoms: C_10  and  O_11 
REMARK    5  A    between atoms: O_11  and  C_12 
REMARK    6  A    between atoms: C_12  and  C_13 
REMARK       I    between atoms: C_13  and  N_14 
REMARK    7  A    between atoms: N_14  and  C_15 
REMARK    8  A    between atoms: C_16  and  C_17 
REMARK       I    between atoms: C_17  and  N_18 
REMARK    9  A    between atoms: N_18  and  C_19 
REMARK   10  A    between atoms: C_19  and  C_20 
ROOT
HETATM    1  C   UNL     1      24.397  47.755  49.592  1.00  0.00     0.050 A 
HETATM    2  C   UNL     1      23.398  48.487  48.910  1.00  0.00     0.058 A 
HETATM    3  C   UNL     1      23.740  49.629  48.163  1.00  0.00     0.019 A 
HETATM    4  C   UNL     1      25.057  50.075  48.111  1.00  0.00     0.001 A 
HETATM    5  C   UNL     1      26.041  49.379  48.802  1.00  0.00     0.002 A 
HETATM    6  C   UNL     1      25.714  48.232  49.533  1.00  0.00     0.030 A 
ENDROOT
BRANCH   1   7
HETATM    7  N   UNL     1      24.062  46.559  50.281  1.00  0.00    -0.324 N 
HETATM    8  C   UNL     1      24.423  45.263  49.953  1.00  0.00     0.246 C 
HETATM    9  O   UNL     1      25.106  44.917  48.992  1.00  0.00    -0.271 OA
HETATM   10  H   UNL     1      23.435  46.665  51.084  1.00  0.00     0.169 HD
BRANCH   8  11
HETATM   11  C   UNL     1      23.927  44.219  50.956  1.00  0.00     0.282 C 
BRANCH  11  12
HETATM   12  O   UNL     1      24.522  44.342  52.246  1.00  0.00    -0.308 OA
BRANCH  12  13
HETATM   13  C   UNL     1      25.849  44.062  52.292  1.00  0.00     0.298 C 
HETATM   14  O   UNL     1      26.393  43.167  51.668  1.00  0.00    -0.259 OA
BRANCH  13  15
HETATM   15  C   UNL     1      26.500  45.005  53.227  1.00  0.00     0.092 A 
HETATM   16  C   UNL     1      27.364  44.560  54.220  1.00  0.00     0.180 A 
HETATM   17  N   UNL     1      27.967  45.397  55.104  1.00  0.00    -0.236 NA
HETATM   18  C   UNL     1      27.699  46.717  54.997  1.00  0.00     0.119 A 
HETATM   19  C   UNL     1      26.854  47.252  54.042  1.00  0.00     0.020 A 
HETATM   20  C   UNL     1      26.244  46.381  53.144  1.00  0.00     0.023 A 
BRANCH  16  21
HETATM   21  O   UNL     1      27.663  43.216  54.286  1.00  0.00    -0.334 OA
BRANCH  21  22
HETATM   22  C   UNL     1      29.059  42.938  54.405  1.00  0.00     0.173 C 
HETATM   23  C   UNL     1      29.677  43.029  53.022  1.00  0.00     0.034 C 
ENDBRANCH  21  22
ENDBRANCH  16  21
ENDBRANCH  13  15
ENDBRANCH  12  13
ENDBRANCH  11  12
ENDBRANCH   8  11
ENDBRANCH   1   7
BRANCH   2  24
HETATM   24  C   UNL     1      21.942  48.168  48.966  1.00  0.00     0.254 C 
HETATM   25  N   UNL     1      21.160  49.058  49.671  1.00  0.00    -0.349 N 
HETATM   26  H   UNL     1      21.567  49.966  49.864  1.00  0.00     0.163 HD
HETATM   27  O   UNL     1      21.495  47.211  48.345  1.00  0.00    -0.268 OA
BRANCH  25  28
HETATM   28  C   UNL     1      19.704  48.999  49.641  1.00  0.00     0.114 C 
HETATM   29  C   UNL     1      19.075  49.060  51.037  1.00  0.00     0.037 C 
BRANCH  28  30
HETATM   30  C   UNL     1      19.192  50.114  48.740  1.00  0.00    -0.036 A 
HETATM   31  C   UNL     1      18.647  49.842  47.473  1.00  0.00     0.009 A 
HETATM   32  C   UNL     1      18.152  50.873  46.673  1.00  0.00     0.001 A 
HETATM   33  C   UNL     1      18.188  52.188  47.130  1.00  0.00     0.000 A 
HETATM   34  C   UNL     1      18.716  52.474  48.387  1.00  0.00     0.001 A 
HETATM   35  C   UNL     1      19.212  51.443  49.189  1.00  0.00     0.009 A 
ENDBRANCH  28  30
ENDBRANCH  25  28
ENDBRANCH   2  24
TORSDOF 10
ENDMDL
MODEL 4
REMARK VINA RESULT:      -8.9      2.823      5.167
REMARK  10 active torsions:
REMARK  status: ('A' for Active; 'I' for Inactive)
REMARK    1  A    between atoms: C_2  and  O_3 
REMARK    2  A    between atoms: O_3  and  C_4 
REMARK    3  A    between atoms: C_9  and  C_10 
REMARK    4  A    between atoms: C_10  and  O_11 
REMARK    5  A    between atoms: O_11  and  C_12 
REMARK    6  A    between atoms: C_12  and  C_13 
REMARK       I    between atoms: C_13  and  N_14 
REMARK    7  A    between atoms: N_14  and  C_15 
REMARK    8  A    between atoms: C_16  and  C_17 
REMARK       I    between atoms: C_17  and  N_18 
REMARK    9  A    between atoms: N_18  and  C_19 
REMARK   10  A    between atoms: C_19  and  C_20 
ROOT
HETATM    1  C   UNL     1      24.346  48.720  49.158  1.00  0.00     0.050 A 
HETATM    2  C   UNL     1      25.374  47.966  49.767  1.00  0.00     0.058 A 
HETATM    3  C   UNL     1      26.724  48.297  49.548  1.00  0.00     0.019 A 
HETATM    4  C   UNL     1      27.068  49.350  48.705  1.00  0.00     0.001 A 
HETATM    5  C   UNL     1      26.065  50.078  48.078  1.00  0.00     0.002 A 
HETATM    6  C   UNL     1      24.720  49.767  48.303  1.00  0.00     0.030 A 
ENDROOT
BRANCH   1   7
HETATM    7  N   UNL     1      22.984  48.432  49.441  1.00  0.00    -0.324 N 
HETATM    8  C   UNL     1      21.995  48.055  48.547  1.00  0.00     0.246 C 
HETATM    9  O   UNL     1      22.127  47.901  47.335  1.00  0.00    -0.271 OA
HETATM   10  H   UNL     1      22.688  48.574  50.411  1.00  0.00     0.169 HD
BRANCH   8  11
HETATM   11  C   UNL     1      20.646  47.772  49.214  1.00  0.00     0.282 C 
BRANCH  11  12
HETATM   12  O   UNL     1      19.979  48.947  49.667  1.00  0.00    -0.308 OA
BRANCH  12  13
HETATM   13  C   UNL     1      18.799  48.725  50.300  1.00  0.00     0.298 C 
HETATM   14  O   UNL     1      18.689  48.309  51.441  1.00  0.00    -0.259 OA
BRANCH  13  15
HETATM   15  C   UNL     1      17.695  49.053  49.372  1.00  0.00     0.092 A 
HETATM   16  C   UNL     1      17.163  50.335  49.303  1.00  0.00     0.180 A 
HETATM   17  N   UNL     1      16.140  50.667  48.473  1.00  0.00    -0.236 NA
HETATM   18  C   UNL     1      15.629  49.692  47.691  1.00  0.00     0.119 A 
HETATM   19  C   UNL     1      16.091  48.388  47.691  1.00  0.00     0.020 A 
HETATM   20  C   UNL     1      17.139  48.064  48.547  1.00  0.00     0.023 A 
BRANCH  16  21
HETATM   21  O   UNL     1      17.728  51.329  50.074  1.00  0.00    -0.334 OA
BRANCH  21  22
HETATM   22  C   UNL     1      17.952  52.551  49.368  1.00  0.00     0.173 C 
HETATM   23  C   UNL     1      19.200  52.383  48.520  1.00  0.00     0.034 C 
ENDBRANCH  21  22
ENDBRANCH  16  21
ENDBRANCH  13  15
ENDBRANCH  12  13
ENDBRANCH  11  12
ENDBRANCH   8  11
ENDBRANCH   1   7
BRANCH   2  24
HETATM   24  C   UNL     1      25.138  46.759  50.613  1.00  0.00     0.254 C 
HETATM   25  N   UNL     1      26.098  46.499  51.569  1.00  0.00    -0.349 N 
HETATM   26  H   UNL     1      26.726  47.260  51.799  1.00  0.00     0.163 HD
HETATM   27  O   UNL     1      24.106  46.111  50.490  1.00  0.00    -0.268 OA
BRANCH  25  28
HETATM   28  C   UNL     1      25.905  45.489  52.601  1.00  0.00     0.114 C 
HETATM   29  C   UNL     1      25.983  44.058  52.056  1.00  0.00     0.037 C 
BRANCH  28  30
HETATM   30  C   UNL     1      26.919  45.729  53.710  1.00  0.00    -0.036 A 
HETATM   31  C   UNL     1      26.947  46.934  54.431  1.00  0.00     0.009 A 
HETATM   32  C   UNL     1      27.862  47.126  55.467  1.00  0.00     0.001 A 
HETATM   33  C   UNL     1      28.757  46.112  55.802  1.00  0.00     0.000 A 
HETATM   34  C   UNL     1      28.736  44.907  55.104  1.00  0.00     0.001 A 
HETATM   35  C   UNL     1      27.821  44.714  54.067  1.00  0.00     0.009 A 
ENDBRANCH  28  30
ENDBRANCH  25  28
ENDBRANCH   2  24
TORSDOF 10
ENDMDL
MODEL 5
REMARK VINA RESULT:      -8.8      4.258      7.598
REMARK  10 active torsions:
REMARK  status: ('A' for Active; 'I' for Inactive)
REMARK    1  A    between atoms: C_2  and  O_3 
REMARK    2  A    between atoms: O_3  and  C_4 
REMARK    3  A    between atoms: C_9  and  C_10 
REMARK    4  A    between atoms: C_10  and  O_11 
REMARK    5  A    between atoms: O_11  and  C_12 
REMARK    6  A    between atoms: C_12  and  C_13 
REMARK       I    between atoms: C_13  and  N_14 
REMARK    7  A    between atoms: N_14  and  C_15 
REMARK    8  A    between atoms: C_16  and  C_17 
REMARK       I    between atoms: C_17  and  N_18 
REMARK    9  A    between atoms: N_18  and  C_19 
REMARK   10  A    between atoms: C_19  and  C_20 
ROOT
HETATM    1  C   UNL     1      25.778  44.927  51.185  1.00  0.00     0.050 A 
HETATM    2  C   UNL     1      26.538  44.930  52.377  1.00  0.00     0.058 A 
HETATM    3  C   UNL     1      26.550  46.064  53.209  1.00  0.00     0.019 A 
HETATM    4  C   UNL     1      25.842  47.210  52.858  1.00  0.00     0.001 A 
HETATM    5  C   UNL     1      25.116  47.227  51.674  1.00  0.00     0.002 A 
HETATM    6  C   UNL     1      25.084  46.099  50.848  1.00  0.00     0.030 A 
ENDROOT
BRANCH   1   7
HETATM    7  N   UNL     1      25.706  43.756  50.385  1.00  0.00    -0.324 N 
HETATM    8  C   UNL     1      24.713  42.790  50.386  1.00  0.00     0.246 C 
HETATM    9  O   UNL     1      23.707  42.778  51.091  1.00  0.00    -0.271 OA
HETATM   10  H   UNL     1      26.510  43.579  49.776  1.00  0.00     0.169 HD
BRANCH   8  11
HETATM   11  C   UNL     1      24.935  41.686  49.349  1.00  0.00     0.282 C 
BRANCH  11  12
HETATM   12  O   UNL     1      25.974  40.776  49.700  1.00  0.00    -0.308 OA
BRANCH  12  13
HETATM   13  C   UNL     1      27.175  41.031  49.123  1.00  0.00     0.298 C 
HETATM   14  O   UNL     1      27.421  42.002  48.429  1.00  0.00    -0.259 OA
BRANCH  13  15
HETATM   15  C   UNL     1      28.107  39.934  49.465  1.00  0.00     0.092 A 
HETATM   16  C   UNL     1      28.457  38.963  48.534  1.00  0.00     0.180 A 
HETATM   17  N   UNL     1      29.298  37.935  48.819  1.00  0.00    -0.236 NA
HETATM   18  C   UNL     1      29.802  37.869  50.071  1.00  0.00     0.119 A 
HETATM   19  C   UNL     1      29.511  38.787  51.064  1.00  0.00     0.020 A 
HETATM   20  C   UNL     1      28.648  39.835  50.755  1.00  0.00     0.023 A 
BRANCH  16  21
HETATM   21  O   UNL     1      27.970  39.072  47.249  1.00  0.00    -0.334 OA
BRANCH  21  22
HETATM   22  C   UNL     1      27.362  37.876  46.757  1.00  0.00     0.173 C 
HETATM   23  C   UNL     1      25.901  37.889  47.168  1.00  0.00     0.034 C 
ENDBRANCH  21  22
ENDBRANCH  16  21
ENDBRANCH  13  15
ENDBRANCH  12  13
ENDBRANCH  11  12
ENDBRANCH   8  11
ENDBRANCH   1   7
BRANCH   2  24
HETATM   24  C   UNL     1      27.413  43.803  52.813  1.00  0.00     0.254 C 
HETATM   25  N   UNL     1      28.576  44.163  53.462  1.00  0.00    -0.349 N 
HETATM   26  H   UNL     1      28.622  45.110  53.818  1.00  0.00     0.163 HD
HETATM   27  O   UNL     1      27.048  42.644  52.660  1.00  0.00    -0.268 OA
BRANCH  25  28
HETATM   28  C   UNL     1      29.423  43.182  54.128  1.00  0.00     0.114 C 
HETATM   29  C   UNL     1      30.518  42.621  53.215  1.00  0.00     0.037 C 
BRANCH  28  30
HETATM   30  C   UNL     1      30.002  43.815  55.385  1.00  0.00    -0.036 A 
HETATM   31  C   UNL     1      29.565  45.070  55.842  1.00  0.00     0.009 A 
HETATM   32  C   UNL     1      30.083  45.622  57.015  1.00  0.00     0.001 A 
HETATM   33  C   UNL     1      31.039  44.925  57.750  1.00  0.00     0.000 A 
HETATM   34  C   UNL     1      31.477  43.676  57.315  1.00  0.00     0.001 A 
HETATM   35  C   UNL     1      30.959  43.122  56.142  1.00  0.00     0.009 A 
ENDBRANCH  28  30
ENDBRANCH  25  28
ENDBRANCH   2  24
TORSDOF 10
ENDMDL
MODEL 6
REMARK VINA RESULT:      -8.7      2.019      9.982
REMARK  10 active torsions:
REMARK  status: ('A' for Active; 'I' for Inactive)
REMARK    1  A    between atoms: C_2  and  O_3 
REMARK    2  A    between atoms: O_3  and  C_4 
REMARK    3  A    between atoms: C_9  and  C_10 
REMARK    4  A    between atoms: C_10  and  O_11 
REMARK    5  A    between atoms: O_11  and  C_12 
REMARK    6  A    between atoms: C_12  and  C_13 
REMARK       I    between atoms: C_13  and  N_14 
REMARK    7  A    between atoms: N_14  and  C_15 
REMARK    8  A    between atoms: C_16  and  C_17 
REMARK       I    between atoms: C_17  and  N_18 
REMARK    9  A    between atoms: N_18  and  C_19 
REMARK   10  A    between atoms: C_19  and  C_20 
ROOT
HETATM    1  C   UNL     1      24.764  48.098  49.410  1.00  0.00     0.050 A 
HETATM    2  C   UNL     1      23.662  48.753  48.813  1.00  0.00     0.058 A 
HETATM    3  C   UNL     1      23.860  49.896  48.019  1.00  0.00     0.019 A 
HETATM    4  C   UNL     1      25.136  50.420  47.833  1.00  0.00     0.001 A 
HETATM    5  C   UNL     1      26.221  49.801  48.439  1.00  0.00     0.002 A 
HETATM    6  C   UNL     1      26.037  48.653  49.218  1.00  0.00     0.030 A 
ENDROOT
BRANCH   1   7
HETATM    7  N   UNL     1      24.571  46.901  50.149  1.00  0.00    -0.324 N 
HETATM    8  C   UNL     1      25.093  46.578  51.390  1.00  0.00     0.246 C 
HETATM    9  O   UNL     1      25.826  47.283  52.079  1.00  0.00    -0.271 OA
HETATM   10  H   UNL     1      24.026  46.169  49.682  1.00  0.00     0.169 HD
BRANCH   8  11
HETATM   11  C   UNL     1      24.629  45.215  51.912  1.00  0.00     0.282 C 
BRANCH  11  12
HETATM   12  O   UNL     1      25.700  44.371  52.327  1.00  0.00    -0.308 OA
BRANCH  12  13
HETATM   13  C   UNL     1      25.748  44.124  53.660  1.00  0.00     0.298 C 
HETATM   14  O   UNL     1      24.779  44.106  54.399  1.00  0.00    -0.259 OA
BRANCH  13  15
HETATM   15  C   UNL     1      27.158  43.902  54.050  1.00  0.00     0.092 A 
HETATM   16  C   UNL     1      27.861  44.844  54.792  1.00  0.00     0.180 A 
HETATM   17  N   UNL     1      29.160  44.679  55.154  1.00  0.00    -0.236 NA
HETATM   18  C   UNL     1      29.778  43.543  54.763  1.00  0.00     0.119 A 
HETATM   19  C   UNL     1      29.161  42.551  54.023  1.00  0.00     0.020 A 
HETATM   20  C   UNL     1      27.830  42.735  53.660  1.00  0.00     0.023 A 
BRANCH  16  21
HETATM   21  O   UNL     1      27.201  45.975  55.223  1.00  0.00    -0.334 OA
BRANCH  21  22
HETATM   22  C   UNL     1      28.022  47.144  55.262  1.00  0.00     0.173 C 
HETATM   23  C   UNL     1      27.115  48.358  55.189  1.00  0.00     0.034 C 
ENDBRANCH  21  22
ENDBRANCH  16  21
ENDBRANCH  13  15
ENDBRANCH  12  13
ENDBRANCH  11  12
ENDBRANCH   8  11
ENDBRANCH   1   7
BRANCH   2  24
HETATM   24  C   UNL     1      22.240  48.348  49.014  1.00  0.00     0.254 C 
HETATM   25  N   UNL     1      21.396  49.332  49.484  1.00  0.00    -0.349 N 
HETATM   26  H   UNL     1      21.727  50.287  49.408  1.00  0.00     0.163 HD
HETATM   27  O   UNL     1      21.866  47.226  48.693  1.00  0.00    -0.268 OA
BRANCH  25  28
HETATM   28  C   UNL     1      19.951  49.153  49.531  1.00  0.00     0.114 C 
HETATM   29  C   UNL     1      19.368  49.373  50.931  1.00  0.00     0.037 C 
BRANCH  28  30
HETATM   30  C   UNL     1      19.314  50.074  48.500  1.00  0.00    -0.036 A 
HETATM   31  C   UNL     1      18.952  51.393  48.819  1.00  0.00     0.009 A 
HETATM   32  C   UNL     1      18.399  52.235  47.853  1.00  0.00     0.001 A 
HETATM   33  C   UNL     1      18.208  51.773  46.553  1.00  0.00     0.000 A 
HETATM   34  C   UNL     1      18.571  50.470  46.217  1.00  0.00     0.001 A 
HETATM   35  C   UNL     1      19.124  49.626  47.183  1.00  0.00     0.009 A 
ENDBRANCH  28  30
ENDBRANCH  25  28
ENDBRANCH   2  24
TORSDOF 10
ENDMDL
MODEL 7
REMARK VINA RESULT:      -8.6      2.692      4.739
REMARK  10 active torsions:
REMARK  status: ('A' for Active; 'I' for Inactive)
REMARK    1  A    between atoms: C_2  and  O_3 
REMARK    2  A    between atoms: O_3  and  C_4 
REMARK    3  A    between atoms: C_9  and  C_10 
REMARK    4  A    between atoms: C_10  and  O_11 
REMARK    5  A    between atoms: O_11  and  C_12 
REMARK    6  A    between atoms: C_12  and  C_13 
REMARK       I    between atoms: C_13  and  N_14 
REMARK    7  A    between atoms: N_14  and  C_15 
REMARK    8  A    between atoms: C_16  and  C_17 
REMARK       I    between atoms: C_17  and  N_18 
REMARK    9  A    between atoms: N_18  and  C_19 
REMARK   10  A    between atoms: C_19  and  C_20 
ROOT
HETATM    1  C   UNL     1      24.522  48.851  49.143  1.00  0.00     0.050 A 
HETATM    2  C   UNL     1      25.496  48.037  49.764  1.00  0.00     0.058 A 
HETATM    3  C   UNL     1      26.866  48.279  49.549  1.00  0.00     0.019 A 
HETATM    4  C   UNL     1      27.281  49.300  48.700  1.00  0.00     0.001 A 
HETATM    5  C   UNL     1      26.330  50.087  48.062  1.00  0.00     0.002 A 
HETATM    6  C   UNL     1      24.967  49.865  48.282  1.00  0.00     0.030 A 
ENDROOT
BRANCH   1   7
HETATM    7  N   UNL     1      23.143  48.654  49.420  1.00  0.00    -0.324 N 
HETATM    8  C   UNL     1      22.145  48.287  48.532  1.00  0.00     0.246 C 
HETATM    9  O   UNL     1      22.281  48.065  47.332  1.00  0.00    -0.271 OA
HETATM   10  H   UNL     1      22.844  48.862  50.377  1.00  0.00     0.169 HD
BRANCH   8  11
HETATM   11  C   UNL     1      20.774  48.114  49.193  1.00  0.00     0.282 C 
BRANCH  11  12
HETATM   12  O   UNL     1      20.332  49.271  49.896  1.00  0.00    -0.308 OA
BRANCH  12  13
HETATM   13  C   UNL     1      19.056  49.207  50.356  1.00  0.00     0.298 C 
HETATM   14  O   UNL     1      18.651  48.398  51.172  1.00  0.00    -0.259 OA
BRANCH  13  15
HETATM   15  C   UNL     1      18.259  50.260  49.689  1.00  0.00     0.092 A 
HETATM   16  C   UNL     1      17.231  49.943  48.810  1.00  0.00     0.180 A 
HETATM   17  N   UNL     1      16.489  50.884  48.170  1.00  0.00    -0.236 NA
HETATM   18  C   UNL     1      16.783  52.180  48.410  1.00  0.00     0.119 A 
HETATM   19  C   UNL     1      17.788  52.592  49.267  1.00  0.00     0.020 A 
HETATM   20  C   UNL     1      18.538  51.616  49.915  1.00  0.00     0.023 A 
BRANCH  16  21
HETATM   21  O   UNL     1      16.913  48.616  48.612  1.00  0.00    -0.334 OA
BRANCH  21  22
HETATM   22  C   UNL     1      17.345  48.099  47.352  1.00  0.00     0.173 C 
HETATM   23  C   UNL     1      17.693  46.633  47.540  1.00  0.00     0.034 C 
ENDBRANCH  21  22
ENDBRANCH  16  21
ENDBRANCH  13  15
ENDBRANCH  12  13
ENDBRANCH  11  12
ENDBRANCH   8  11
ENDBRANCH   1   7
BRANCH   2  24
HETATM   24  C   UNL     1      25.179  46.855  50.617  1.00  0.00     0.254 C 
HETATM   25  N   UNL     1      26.118  46.537  51.575  1.00  0.00    -0.349 N 
HETATM   26  H   UNL     1      26.797  47.254  51.800  1.00  0.00     0.163 HD
HETATM   27  O   UNL     1      24.104  46.278  50.498  1.00  0.00    -0.268 OA
BRANCH  25  28
HETATM   28  C   UNL     1      25.858  45.548  52.614  1.00  0.00     0.114 C 
HETATM   29  C   UNL     1      25.851  44.112  52.081  1.00  0.00     0.037 C 
BRANCH  28  30
HETATM   30  C   UNL     1      26.877  45.735  53.728  1.00  0.00    -0.036 A 
HETATM   31  C   UNL     1      26.915  46.910  54.498  1.00  0.00     0.009 A 
HETATM   32  C   UNL     1      27.835  47.052  55.538  1.00  0.00     0.001 A 
HETATM   33  C   UNL     1      28.724  46.020  55.827  1.00  0.00     0.000 A 
HETATM   34  C   UNL     1      28.693  44.844  55.080  1.00  0.00     0.001 A 
HETATM   35  C   UNL     1      27.773  44.701  54.039  1.00  0.00     0.009 A 
ENDBRANCH  28  30
ENDBRANCH  25  28
ENDBRANCH   2  24
TORSDOF 10
ENDMDL
MODEL 8
REMARK VINA RESULT:      -8.6      2.559      4.003
REMARK  10 active torsions:
REMARK  status: ('A' for Active; 'I' for Inactive)
REMARK    1  A    between atoms: C_2  and  O_3 
REMARK    2  A    between atoms: O_3  and  C_4 
REMARK    3  A    between atoms: C_9  and  C_10 
REMARK    4  A    between atoms: C_10  and  O_11 
REMARK    5  A    between atoms: O_11  and  C_12 
REMARK    6  A    between atoms: C_12  and  C_13 
REMARK       I    between atoms: C_13  and  N_14 
REMARK    7  A    between atoms: N_14  and  C_15 
REMARK    8  A    between atoms: C_16  and  C_17 
REMARK       I    between atoms: C_17  and  N_18 
REMARK    9  A    between atoms: N_18  and  C_19 
REMARK   10  A    between atoms: C_19  and  C_20 
ROOT
HETATM    1  C   UNL     1      26.551  42.240  49.399  1.00  0.00     0.050 A 
HETATM    2  C   UNL     1      27.261  42.334  50.618  1.00  0.00     0.058 A 
HETATM    3  C   UNL     1      28.169  41.327  50.991  1.00  0.00     0.019 A 
HETATM    4  C   UNL     1      28.359  40.208  50.185  1.00  0.00     0.001 A 
HETATM    5  C   UNL     1      27.644  40.092  49.000  1.00  0.00     0.002 A 
HETATM    6  C   UNL     1      26.752  41.097  48.611  1.00  0.00     0.030 A 
ENDROOT
BRANCH   1   7
HETATM    7  N   UNL     1      25.693  43.294  48.988  1.00  0.00    -0.324 N 
HETATM    8  C   UNL     1      24.379  43.513  49.368  1.00  0.00     0.246 C 
HETATM    9  O   UNL     1      23.718  42.823  50.139  1.00  0.00    -0.271 OA
HETATM   10  H   UNL     1      26.075  43.934  48.285  1.00  0.00     0.169 HD
BRANCH   8  11
HETATM   11  C   UNL     1      23.775  44.785  48.766  1.00  0.00     0.282 C 
BRANCH  11  12
HETATM   12  O   UNL     1      24.711  45.850  48.628  1.00  0.00    -0.308 OA
BRANCH  12  13
HETATM   13  C   UNL     1      24.795  46.679  49.699  1.00  0.00     0.298 C 
HETATM   14  O   UNL     1      24.275  46.471  50.782  1.00  0.00    -0.259 OA
BRANCH  13  15
HETATM   15  C   UNL     1      25.596  47.863  49.320  1.00  0.00     0.092 A 
HETATM   16  C   UNL     1      25.016  48.960  48.693  1.00  0.00     0.180 A 
HETATM   17  N   UNL     1      25.724  50.058  48.319  1.00  0.00    -0.236 NA
HETATM   18  C   UNL     1      27.051  50.060  48.573  1.00  0.00     0.119 A 
HETATM   19  C   UNL     1      27.715  49.016  49.190  1.00  0.00     0.020 A 
HETATM   20  C   UNL     1      26.975  47.900  49.568  1.00  0.00     0.023 A 
BRANCH  16  21
HETATM   21  O   UNL     1      23.653  48.960  48.484  1.00  0.00    -0.334 OA
BRANCH  21  22
HETATM   22  C   UNL     1      22.948  49.932  49.259  1.00  0.00     0.173 C 
HETATM   23  C   UNL     1      22.010  50.682  48.332  1.00  0.00     0.034 C 
ENDBRANCH  21  22
ENDBRANCH  16  21
ENDBRANCH  13  15
ENDBRANCH  12  13
ENDBRANCH  11  12
ENDBRANCH   8  11
ENDBRANCH   1   7
BRANCH   2  24
HETATM   24  C   UNL     1      27.075  43.431  51.611  1.00  0.00     0.254 C 
HETATM   25  N   UNL     1      26.844  43.032  52.911  1.00  0.00    -0.349 N 
HETATM   26  H   UNL     1      27.074  42.071  53.137  1.00  0.00     0.163 HD
HETATM   27  O   UNL     1      27.207  44.601  51.271  1.00  0.00    -0.268 OA
BRANCH  25  28
HETATM   28  C   UNL     1      26.852  43.975  54.022  1.00  0.00     0.114 C 
HETATM   29  C   UNL     1      25.781  43.666  55.074  1.00  0.00     0.037 C 
BRANCH  28  30
HETATM   30  C   UNL     1      28.248  44.003  54.625  1.00  0.00    -0.036 A 
HETATM   31  C   UNL     1      29.163  42.958  54.407  1.00  0.00     0.009 A 
HETATM   32  C   UNL     1      30.451  43.014  54.941  1.00  0.00     0.001 A 
HETATM   33  C   UNL     1      30.846  44.118  55.693  1.00  0.00     0.000 A 
HETATM   34  C   UNL     1      29.955  45.167  55.911  1.00  0.00     0.001 A 
HETATM   35  C   UNL     1      28.665  45.112  55.377  1.00  0.00     0.009 A 
ENDBRANCH  28  30
ENDBRANCH  25  28
ENDBRANCH   2  24
TORSDOF 10
ENDMDL
MODEL 9
REMARK VINA RESULT:      -8.4      2.474      4.835
REMARK  10 active torsions:
REMARK  status: ('A' for Active; 'I' for Inactive)
REMARK    1  A    between atoms: C_2  and  O_3 
REMARK    2  A    between atoms: O_3  and  C_4 
REMARK    3  A    between atoms: C_9  and  C_10 
REMARK    4  A    between atoms: C_10  and  O_11 
REMARK    5  A    between atoms: O_11  and  C_12 
REMARK    6  A    between atoms: C_12  and  C_13 
REMARK       I    between atoms: C_13  and  N_14 
REMARK    7  A    between atoms: N_14  and  C_15 
REMARK    8  A    between atoms: C_16  and  C_17 
REMARK       I    between atoms: C_17  and  N_18 
REMARK    9  A    between atoms: N_18  and  C_19 
REMARK   10  A    between atoms: C_19  and  C_20 
ROOT
HETATM    1  C   UNL     1      23.927  48.381  48.941  1.00  0.00     0.050 A 
HETATM    2  C   UNL     1      25.059  47.838  49.589  1.00  0.00     0.058 A 
HETATM    3  C   UNL     1      26.317  48.456  49.460  1.00  0.00     0.019 A 
HETATM    4  C   UNL     1      26.472  49.590  48.667  1.00  0.00     0.001 A 
HETATM    5  C   UNL     1      25.371  50.113  48.003  1.00  0.00     0.002 A 
HETATM    6  C   UNL     1      24.113  49.516  48.139  1.00  0.00     0.030 A 
ENDROOT
BRANCH   1   7
HETATM    7  N   UNL     1      22.645  47.801  49.134  1.00  0.00    -0.324 N 
HETATM    8  C   UNL     1      21.881  47.107  48.210  1.00  0.00     0.246 C 
HETATM    9  O   UNL     1      22.185  46.870  47.043  1.00  0.00    -0.271 OA
HETATM   10  H   UNL     1      22.213  47.964  50.048  1.00  0.00     0.169 HD
BRANCH   8  11
HETATM   11  C   UNL     1      20.566  46.574  48.783  1.00  0.00     0.282 C 
BRANCH  11  12
HETATM   12  O   UNL     1      19.614  47.595  49.070  1.00  0.00    -0.308 OA
BRANCH  12  13
HETATM   13  C   UNL     1      19.115  48.232  47.981  1.00  0.00     0.298 C 
HETATM   14  O   UNL     1      18.774  47.681  46.948  1.00  0.00    -0.259 OA
BRANCH  13  15
HETATM   15  C   UNL     1      19.075  49.685  48.258  1.00  0.00     0.092 A 
HETATM   16  C   UNL     1      17.880  50.337  48.537  1.00  0.00     0.180 A 
HETATM   17  N   UNL     1      17.806  51.671  48.783  1.00  0.00    -0.236 NA
HETATM   18  C   UNL     1      18.957  52.377  48.746  1.00  0.00     0.119 A 
HETATM   19  C   UNL     1      20.192  51.816  48.477  1.00  0.00     0.020 A 
HETATM   20  C   UNL     1      20.251  50.449  48.227  1.00  0.00     0.023 A 
BRANCH  16  21
HETATM   21  O   UNL     1      16.722  49.593  48.617  1.00  0.00    -0.334 OA
BRANCH  21  22
HETATM   22  C   UNL     1      15.644  50.113  47.836  1.00  0.00     0.173 C 
HETATM   23  C   UNL     1      15.863  49.693  46.395  1.00  0.00     0.034 C 
ENDBRANCH  21  22
ENDBRANCH  16  21
ENDBRANCH  13  15
ENDBRANCH  12  13
ENDBRANCH  11  12
ENDBRANCH   8  11
ENDBRANCH   1   7
BRANCH   2  24
HETATM   24  C   UNL     1      25.042  46.577  50.386  1.00  0.00     0.254 C 
HETATM   25  N   UNL     1      26.062  46.432  51.302  1.00  0.00    -0.349 N 
HETATM   26  H   UNL     1      26.573  47.272  51.549  1.00  0.00     0.163 HD
HETATM   27  O   UNL     1      24.119  45.781  50.262  1.00  0.00    -0.268 OA
BRANCH  25  28
HETATM   28  C   UNL     1      26.064  45.363  52.293  1.00  0.00     0.114 C 
HETATM   29  C   UNL     1      26.559  44.027  51.728  1.00  0.00     0.037 C 
BRANCH  28  30
HETATM   30  C   UNL     1      26.890  45.812  53.490  1.00  0.00    -0.036 A 
HETATM   31  C   UNL     1      26.788  47.116  54.004  1.00  0.00     0.009 A 
HETATM   32  C   UNL     1      27.528  47.502  55.123  1.00  0.00     0.001 A 
HETATM   33  C   UNL     1      28.374  46.589  55.747  1.00  0.00     0.000 A 
HETATM   34  C   UNL     1      28.479  45.289  55.256  1.00  0.00     0.001 A 
HETATM   35  C   UNL     1      27.739  44.901  54.137  1.00  0.00     0.009 A 
ENDBRANCH  28  30
ENDBRANCH  25  28
ENDBRANCH   2  24
TORSDOF 10
ENDMDL
MODEL 10
REMARK VINA RESULT:      -8.3      1.950      5.568
REMARK  10 active torsions:
REMARK  status: ('A' for Active; 'I' for Inactive)
REMARK    1  A    between atoms: C_2  and  O_3 
REMARK    2  A    between atoms: O_3  and  C_4 
REMARK    3  A    between atoms: C_9  and  C_10 
REMARK    4  A    between atoms: C_10  and  O_11 
REMARK    5  A    between atoms: O_11  and  C_12 
REMARK    6  A    between atoms: C_12  and  C_13 
REMARK       I    between atoms: C_13  and  N_14 
REMARK    7  A    between atoms: N_14  and  C_15 
REMARK    8  A    between atoms: C_16  and  C_17 
REMARK       I    between atoms: C_17  and  N_18 
REMARK    9  A    between atoms: N_18  and  C_19 
REMARK   10  A    between atoms: C_19  and  C_20 
ROOT
HETATM    1  C   UNL     1      28.521  45.301  54.672  1.00  0.00     0.050 A 
HETATM    2  C   UNL     1      29.352  44.177  54.461  1.00  0.00     0.058 A 
HETATM    3  C   UNL     1      30.285  43.789  55.439  1.00  0.00     0.019 A 
HETATM    4  C   UNL     1      30.427  44.521  56.615  1.00  0.00     0.001 A 
HETATM    5  C   UNL     1      29.635  45.644  56.818  1.00  0.00     0.002 A 
HETATM    6  C   UNL     1      28.693  46.029  55.859  1.00  0.00     0.030 A 
ENDROOT
BRANCH   1   7
HETATM    7  N   UNL     1      27.528  45.646  53.718  1.00  0.00    -0.324 N 
HETATM    8  C   UNL     1      26.404  46.433  53.912  1.00  0.00     0.246 C 
HETATM    9  O   UNL     1      26.066  46.976  54.960  1.00  0.00    -0.271 OA
HETATM   10  H   UNL     1      27.627  45.218  52.793  1.00  0.00     0.169 HD
BRANCH   8  11
HETATM   11  C   UNL     1      25.577  46.640  52.640  1.00  0.00     0.282 C 
BRANCH  11  12
HETATM   12  O   UNL     1      26.160  47.566  51.727  1.00  0.00    -0.308 OA
BRANCH  12  13
HETATM   13  C   UNL     1      26.256  47.124  50.447  1.00  0.00     0.298 C 
HETATM   14  O   UNL     1      26.593  45.998  50.125  1.00  0.00    -0.259 OA
BRANCH  13  15
HETATM   15  C   UNL     1      25.904  48.233  49.535  1.00  0.00     0.092 A 
HETATM   16  C   UNL     1      24.585  48.486  49.177  1.00  0.00     0.180 A 
HETATM   17  N   UNL     1      24.228  49.487  48.331  1.00  0.00    -0.236 NA
HETATM   18  C   UNL     1      25.215  50.258  47.824  1.00  0.00     0.119 A 
HETATM   19  C   UNL     1      26.554  50.082  48.122  1.00  0.00     0.020 A 
HETATM   20  C   UNL     1      26.903  49.053  48.990  1.00  0.00     0.023 A 
BRANCH  16  21
HETATM   21  O   UNL     1      23.587  47.719  49.740  1.00  0.00    -0.334 OA
BRANCH  21  22
HETATM   22  C   UNL     1      22.601  47.276  48.806  1.00  0.00     0.173 C 
HETATM   23  C   UNL     1      22.874  45.818  48.490  1.00  0.00     0.034 C 
ENDBRANCH  21  22
ENDBRANCH  16  21
ENDBRANCH  13  15
ENDBRANCH  12  13
ENDBRANCH  11  12
ENDBRANCH   8  11
ENDBRANCH   1   7
BRANCH   2  24
HETATM   24  C   UNL     1      29.363  43.370  53.206  1.00  0.00     0.254 C 
HETATM   25  N   UNL     1      28.177  42.744  52.885  1.00  0.00    -0.349 N 
HETATM   26  H   UNL     1      27.345  43.079  53.357  1.00  0.00     0.163 HD
HETATM   27  O   UNL     1      30.358  43.353  52.491  1.00  0.00    -0.268 OA
BRANCH  25  28
HETATM   28  C   UNL     1      27.970  42.097  51.595  1.00  0.00     0.114 C 
HETATM   29  C   UNL     1      28.289  40.599  51.621  1.00  0.00     0.037 C 
BRANCH  28  30
HETATM   30  C   UNL     1      26.541  42.364  51.143  1.00  0.00    -0.036 A 
HETATM   31  C   UNL     1      25.988  41.705  50.033  1.00  0.00     0.009 A 
HETATM   32  C   UNL     1      24.665  41.937  49.651  1.00  0.00     0.001 A 
HETATM   33  C   UNL     1      23.877  42.826  50.377  1.00  0.00     0.000 A 
HETATM   34  C   UNL     1      24.407  43.481  51.487  1.00  0.00     0.001 A 
HETATM   35  C   UNL     1      25.730  43.249  51.870  1.00  0.00     0.009 A 
ENDBRANCH  28  30
ENDBRANCH  25  28
ENDBRANCH   2  24
TORSDOF 10
ENDMDL
