MODEL 1
REMARK VINA RESULT:      -9.5      0.000      0.000
REMARK  4 active torsions:
REMARK  status: ('A' for Active; 'I' for Inactive)
REMARK    1  A    between atoms: O_2  and  C_3 
REMARK    2  A    between atoms: C_3  and  C_4 
REMARK    3  A    between atoms: N_11  and  C_13 
REMARK    4  A    between atoms: C_13  and  C_14 
ROOT
HETATM    1  C   UNL     1      23.148  44.373  48.046  1.00  0.00     0.290 C 
HETATM    2  N   UNL     1      24.615  44.568  48.588  1.00  0.00    -0.047 N 
HETATM    3  H   UNL     1      25.146  44.855  47.755  1.00  0.00     0.279 HD
HETATM    4  H   UNL     1      24.921  43.622  48.850  1.00  0.00     0.279 HD
HETATM    5  C   UNL     1      24.832  45.611  49.692  1.00  0.00     0.172 C 
HETATM    6  C   UNL     1      24.458  45.095  51.095  1.00  0.00     0.073 C 
HETATM    7  C   UNL     1      25.339  43.963  51.600  1.00  0.00     0.238 C 
HETATM    8  N   UNL     1      26.785  44.401  51.570  1.00  0.00    -0.067 N 
HETATM    9  H   UNL     1      26.896  45.159  52.261  1.00  0.00     0.280 HD
HETATM   10  C   UNL     1      27.243  44.884  50.222  1.00  0.00     0.238 C 
HETATM   11  C   UNL     1      26.331  45.989  49.698  1.00  0.00     0.073 C 
HETATM   12  C   UNL     1      23.975  46.794  49.342  1.00  0.00     0.053 A 
HETATM   13  C   UNL     1      22.958  46.840  48.403  1.00  0.00    -0.018 A 
HETATM   14  C   UNL     1      22.577  45.697  47.531  1.00  0.00     0.085 C 
HETATM   15  N   UNL     1      24.026  48.033  49.941  1.00  0.00    -0.356 N 
HETATM   16  H   UNL     1      24.644  48.337  50.684  1.00  0.00     0.166 HD
HETATM   17  C   UNL     1      23.083  48.869  49.389  1.00  0.00     0.043 A 
HETATM   18  C   UNL     1      22.397  48.145  48.417  1.00  0.00    -0.001 A 
HETATM   19  C   UNL     1      22.789  50.206  49.680  1.00  0.00     0.030 A 
HETATM   20  C   UNL     1      21.766  50.818  48.951  1.00  0.00     0.002 A 
HETATM   21  C   UNL     1      21.064  50.119  47.973  1.00  0.00     0.001 A 
HETATM   22  C   UNL     1      21.369  48.782  47.694  1.00  0.00     0.014 A 
ENDROOT
BRANCH   1  23
HETATM   23  C   UNL     1      22.300  43.596  49.048  1.00  0.00     0.289 C 
HETATM   24  O   UNL     1      21.329  44.135  49.579  1.00  0.00    -0.263 OA
BRANCH  23  25
HETATM   25  O   UNL     1      22.768  42.359  49.300  1.00  0.00    -0.325 OA
HETATM   26  C   UNL     1      22.824  41.481  48.168  1.00  0.00     0.213 C 
ENDBRANCH  23  25
ENDBRANCH   1  23
BRANCH   8  27
HETATM   27  C   UNL     1      27.736  43.312  52.098  1.00  0.00     0.273 C 
BRANCH  27  28
HETATM   28  C   UNL     1      28.524  43.734  53.303  1.00  0.00    -0.033 A 
HETATM   29  C   UNL     1      29.664  43.012  53.690  1.00  0.00     0.009 A 
HETATM   30  C   UNL     1      30.388  43.385  54.823  1.00  0.00     0.001 A 
HETATM   31  C   UNL     1      29.982  44.481  55.579  1.00  0.00     0.000 A 
HETATM   32  C   UNL     1      28.858  45.212  55.201  1.00  0.00     0.001 A 
HETATM   33  C   UNL     1      28.131  44.844  54.067  1.00  0.00     0.009 A 
ENDBRANCH  27  28
ENDBRANCH   8  27
TORSDOF 4
ENDMDL
MODEL 2
REMARK VINA RESULT:      -9.2      3.412      7.056
REMARK  4 active torsions:
REMARK  status: ('A' for Active; 'I' for Inactive)
REMARK    1  A    between atoms: O_2  and  C_3 
REMARK    2  A    between atoms: C_3  and  C_4 
REMARK    3  A    between atoms: N_11  and  C_13 
REMARK    4  A    between atoms: C_13  and  C_14 
ROOT
HETATM    1  C   UNL     1      25.079  42.498  50.687  1.00  0.00     0.290 C 
HETATM    2  N   UNL     1      25.904  42.489  52.029  1.00  0.00    -0.047 N 
HETATM    3  H   UNL     1      25.470  41.734  52.576  1.00  0.00     0.279 HD
HETATM    4  H   UNL     1      25.672  43.383  52.480  1.00  0.00     0.279 HD
HETATM    5  C   UNL     1      27.412  42.223  51.935  1.00  0.00     0.172 C 
HETATM    6  C   UNL     1      28.223  43.469  51.528  1.00  0.00     0.073 C 
HETATM    7  C   UNL     1      28.198  44.593  52.553  1.00  0.00     0.238 C 
HETATM    8  N   UNL     1      28.678  44.066  53.885  1.00  0.00    -0.067 N 
HETATM    9  H   UNL     1      29.674  43.816  53.783  1.00  0.00     0.280 HD
HETATM   10  C   UNL     1      27.911  42.870  54.375  1.00  0.00     0.238 C 
HETATM   11  C   UNL     1      27.899  41.761  53.328  1.00  0.00     0.073 C 
HETATM   12  C   UNL     1      27.596  41.141  50.909  1.00  0.00     0.053 A 
HETATM   13  C   UNL     1      26.656  40.685  50.000  1.00  0.00    -0.018 A 
HETATM   14  C   UNL     1      25.256  41.179  49.930  1.00  0.00     0.085 C 
HETATM   15  N   UNL     1      28.762  40.450  50.665  1.00  0.00    -0.356 N 
HETATM   16  H   UNL     1      29.652  40.549  51.139  1.00  0.00     0.166 HD
HETATM   17  C   UNL     1      28.577  39.550  49.641  1.00  0.00     0.043 A 
HETATM   18  C   UNL     1      27.261  39.675  49.204  1.00  0.00    -0.001 A 
HETATM   19  C   UNL     1      29.477  38.641  49.073  1.00  0.00     0.030 A 
HETATM   20  C   UNL     1      29.012  37.836  48.029  1.00  0.00     0.002 A 
HETATM   21  C   UNL     1      27.701  37.938  47.573  1.00  0.00     0.001 A 
HETATM   22  C   UNL     1      26.813  38.853  48.151  1.00  0.00     0.014 A 
ENDROOT
BRANCH   1  23
HETATM   23  C   UNL     1      25.332  43.784  49.905  1.00  0.00     0.289 C 
HETATM   24  O   UNL     1      25.861  43.735  48.795  1.00  0.00    -0.263 OA
BRANCH  23  25
HETATM   25  O   UNL     1      24.982  44.897  50.579  1.00  0.00    -0.325 OA
HETATM   26  C   UNL     1      25.643  46.099  50.164  1.00  0.00     0.213 C 
ENDBRANCH  23  25
ENDBRANCH   1  23
BRANCH   8  27
HETATM   27  C   UNL     1      28.708  45.160  54.968  1.00  0.00     0.273 C 
BRANCH  27  28
HETATM   28  C   UNL     1      29.735  44.921  56.037  1.00  0.00    -0.033 A 
HETATM   29  C   UNL     1      30.701  43.916  55.874  1.00  0.00     0.009 A 
HETATM   30  C   UNL     1      31.645  43.673  56.873  1.00  0.00     0.001 A 
HETATM   31  C   UNL     1      31.633  44.430  58.042  1.00  0.00     0.000 A 
HETATM   32  C   UNL     1      30.686  45.437  58.210  1.00  0.00     0.001 A 
HETATM   33  C   UNL     1      29.741  45.686  57.214  1.00  0.00     0.009 A 
ENDBRANCH  27  28
ENDBRANCH   8  27
TORSDOF 4
ENDMDL
MODEL 3
REMARK VINA RESULT:      -8.5     18.592     20.449
REMARK  4 active torsions:
REMARK  status: ('A' for Active; 'I' for Inactive)
REMARK    1  A    between atoms: O_2  and  C_3 
REMARK    2  A    between atoms: C_3  and  C_4 
REMARK    3  A    between atoms: N_11  and  C_13 
REMARK    4  A    between atoms: C_13  and  C_14 
ROOT
HETATM    1  C   UNL     1      35.758  44.498  64.824  1.00  0.00     0.290 C 
HETATM    2  N   UNL     1      36.841  43.815  63.905  1.00  0.00    -0.047 N 
HETATM    3  H   UNL     1      36.607  44.152  62.962  1.00  0.00     0.279 HD
HETATM    4  H   UNL     1      36.619  42.812  63.948  1.00  0.00     0.279 HD
HETATM    5  C   UNL     1      38.315  44.130  64.188  1.00  0.00     0.172 C 
HETATM    6  C   UNL     1      38.896  43.313  65.358  1.00  0.00     0.073 C 
HETATM    7  C   UNL     1      38.972  41.816  65.098  1.00  0.00     0.238 C 
HETATM    8  N   UNL     1      39.768  41.566  63.838  1.00  0.00    -0.067 N 
HETATM    9  H   UNL     1      40.740  41.859  64.019  1.00  0.00     0.280 HD
HETATM   10  C   UNL     1      39.242  42.299  62.635  1.00  0.00     0.238 C 
HETATM   11  C   UNL     1      39.124  43.794  62.914  1.00  0.00     0.073 C 
HETATM   12  C   UNL     1      38.389  45.596  64.508  1.00  0.00     0.053 A 
HETATM   13  C   UNL     1      37.332  46.441  64.801  1.00  0.00    -0.018 A 
HETATM   14  C   UNL     1      35.905  46.022  64.797  1.00  0.00     0.085 C 
HETATM   15  N   UNL     1      39.543  46.342  64.612  1.00  0.00    -0.356 N 
HETATM   16  H   UNL     1      40.497  46.029  64.479  1.00  0.00     0.166 HD
HETATM   17  C   UNL     1      39.241  47.643  64.942  1.00  0.00     0.043 A 
HETATM   18  C   UNL     1      37.856  47.735  65.065  1.00  0.00    -0.001 A 
HETATM   19  C   UNL     1      40.089  48.739  65.139  1.00  0.00     0.030 A 
HETATM   20  C   UNL     1      39.501  49.962  65.469  1.00  0.00     0.002 A 
HETATM   21  C   UNL     1      38.120  50.084  65.598  1.00  0.00     0.001 A 
HETATM   22  C   UNL     1      37.285  48.979  65.398  1.00  0.00     0.014 A 
ENDROOT
BRANCH   1  23
HETATM   23  C   UNL     1      35.714  43.832  66.195  1.00  0.00     0.289 C 
HETATM   24  O   UNL     1      35.876  44.506  67.212  1.00  0.00    -0.263 OA
BRANCH  23  25
HETATM   25  O   UNL     1      35.554  42.496  66.136  1.00  0.00    -0.325 OA
HETATM   26  C   UNL     1      34.245  42.050  65.759  1.00  0.00     0.213 C 
ENDBRANCH  23  25
ENDBRANCH   1  23
BRANCH   8  27
HETATM   27  C   UNL     1      39.913  40.065  63.527  1.00  0.00     0.273 C 
BRANCH  27  28
HETATM   28  C   UNL     1      40.551  39.280  64.636  1.00  0.00    -0.033 A 
HETATM   29  C   UNL     1      41.907  39.469  64.944  1.00  0.00     0.009 A 
HETATM   30  C   UNL     1      42.512  38.726  65.958  1.00  0.00     0.001 A 
HETATM   31  C   UNL     1      41.771  37.789  66.673  1.00  0.00     0.000 A 
HETATM   32  C   UNL     1      40.421  37.600  66.383  1.00  0.00     0.001 A 
HETATM   33  C   UNL     1      39.810  38.341  65.371  1.00  0.00     0.009 A 
ENDBRANCH  27  28
ENDBRANCH   8  27
TORSDOF 4
ENDMDL
MODEL 4
REMARK VINA RESULT:      -8.5      2.222      8.214
REMARK  4 active torsions:
REMARK  status: ('A' for Active; 'I' for Inactive)
REMARK    1  A    between atoms: O_2  and  C_3 
REMARK    2  A    between atoms: C_3  and  C_4 
REMARK    3  A    between atoms: N_11  and  C_13 
REMARK    4  A    between atoms: C_13  and  C_14 
ROOT
HETATM    1  C   UNL     1      27.068  41.437  52.163  1.00  0.00     0.290 C 
HETATM    2  N   UNL     1      26.021  42.615  52.159  1.00  0.00    -0.047 N 
HETATM    3  H   UNL     1      25.422  42.409  52.970  1.00  0.00     0.279 HD
HETATM    4  H   UNL     1      25.466  42.463  51.307  1.00  0.00     0.279 HD
HETATM    5  C   UNL     1      26.558  44.045  52.295  1.00  0.00     0.172 C 
HETATM    6  C   UNL     1      27.100  44.617  50.970  1.00  0.00     0.073 C 
HETATM    7  C   UNL     1      26.041  44.814  49.896  1.00  0.00     0.238 C 
HETATM    8  N   UNL     1      24.937  45.693  50.435  1.00  0.00    -0.067 N 
HETATM    9  H   UNL     1      25.335  46.631  50.597  1.00  0.00     0.280 HD
HETATM   10  C   UNL     1      24.326  45.184  51.711  1.00  0.00     0.238 C 
HETATM   11  C   UNL     1      25.395  44.944  52.772  1.00  0.00     0.073 C 
HETATM   12  C   UNL     1      27.661  43.996  53.314  1.00  0.00     0.053 A 
HETATM   13  C   UNL     1      28.291  42.868  53.809  1.00  0.00    -0.018 A 
HETATM   14  C   UNL     1      27.927  41.477  53.430  1.00  0.00     0.085 C 
HETATM   15  N   UNL     1      28.270  45.086  53.896  1.00  0.00    -0.356 N 
HETATM   16  H   UNL     1      28.065  46.066  53.742  1.00  0.00     0.166 HD
HETATM   17  C   UNL     1      29.255  44.675  54.764  1.00  0.00     0.043 A 
HETATM   18  C   UNL     1      29.289  43.283  54.731  1.00  0.00    -0.001 A 
HETATM   19  C   UNL     1      30.113  45.431  55.571  1.00  0.00     0.030 A 
HETATM   20  C   UNL     1      31.029  44.740  56.368  1.00  0.00     0.002 A 
HETATM   21  C   UNL     1      31.085  43.349  56.357  1.00  0.00     0.001 A 
HETATM   22  C   UNL     1      30.221  42.607  55.544  1.00  0.00     0.014 A 
ENDROOT
BRANCH   1  23
HETATM   23  C   UNL     1      27.806  41.366  50.829  1.00  0.00     0.289 C 
HETATM   24  O   UNL     1      29.030  41.231  50.810  1.00  0.00    -0.263 OA
BRANCH  23  25
HETATM   25  O   UNL     1      27.000  41.526  49.763  1.00  0.00    -0.325 OA
HETATM   26  C   UNL     1      27.529  41.055  48.516  1.00  0.00     0.213 C 
ENDBRANCH  23  25
ENDBRANCH   1  23
BRANCH   8  27
HETATM   27  C   UNL     1      23.840  45.962  49.388  1.00  0.00     0.273 C 
BRANCH  27  28
HETATM   28  C   UNL     1      23.738  47.402  48.979  1.00  0.00    -0.033 A 
HETATM   29  C   UNL     1      22.569  47.882  48.370  1.00  0.00     0.009 A 
HETATM   30  C   UNL     1      22.476  49.214  47.967  1.00  0.00     0.001 A 
HETATM   31  C   UNL     1      23.548  50.080  48.168  1.00  0.00     0.000 A 
HETATM   32  C   UNL     1      24.710  49.618  48.782  1.00  0.00     0.001 A 
HETATM   33  C   UNL     1      24.808  48.287  49.189  1.00  0.00     0.009 A 
ENDBRANCH  27  28
ENDBRANCH   8  27
TORSDOF 4
ENDMDL
MODEL 5
REMARK VINA RESULT:      -8.1     11.950     13.411
REMARK  4 active torsions:
REMARK  status: ('A' for Active; 'I' for Inactive)
REMARK    1  A    between atoms: O_2  and  C_3 
REMARK    2  A    between atoms: C_3  and  C_4 
REMARK    3  A    between atoms: N_11  and  C_13 
REMARK    4  A    between atoms: C_13  and  C_14 
ROOT
HETATM    1  C   UNL     1      28.171  51.578  40.729  1.00  0.00     0.290 C 
HETATM    2  N   UNL     1      29.265  51.039  41.727  1.00  0.00    -0.047 N 
HETATM    3  H   UNL     1      28.718  50.526  42.431  1.00  0.00     0.279 HD
HETATM    4  H   UNL     1      29.645  51.884  42.172  1.00  0.00     0.279 HD
HETATM    5  C   UNL     1      30.342  50.104  41.163  1.00  0.00     0.172 C 
HETATM    6  C   UNL     1      31.476  50.854  40.437  1.00  0.00     0.073 C 
HETATM    7  C   UNL     1      32.318  51.741  41.342  1.00  0.00     0.238 C 
HETATM    8  N   UNL     1      32.877  50.914  42.475  1.00  0.00    -0.067 N 
HETATM    9  H   UNL     1      33.540  50.235  42.070  1.00  0.00     0.280 HD
HETATM   10  C   UNL     1      31.829  50.178  43.262  1.00  0.00     0.238 C 
HETATM   11  C   UNL     1      30.958  49.323  42.347  1.00  0.00     0.073 C 
HETATM   12  C   UNL     1      29.651  49.178  40.203  1.00  0.00     0.053 A 
HETATM   13  C   UNL     1      28.376  49.318  39.680  1.00  0.00    -0.018 A 
HETATM   14  C   UNL     1      27.444  50.420  40.039  1.00  0.00     0.085 C 
HETATM   15  N   UNL     1      30.197  48.048  39.636  1.00  0.00    -0.356 N 
HETATM   16  H   UNL     1      31.123  47.665  39.787  1.00  0.00     0.166 HD
HETATM   17  C   UNL     1      29.292  47.455  38.786  1.00  0.00     0.043 A 
HETATM   18  C   UNL     1      28.136  48.232  38.795  1.00  0.00    -0.001 A 
HETATM   19  C   UNL     1      29.414  46.294  38.014  1.00  0.00     0.030 A 
HETATM   20  C   UNL     1      28.319  45.919  37.232  1.00  0.00     0.002 A 
HETATM   21  C   UNL     1      27.151  46.676  37.221  1.00  0.00     0.001 A 
HETATM   22  C   UNL     1      27.044  47.835  37.999  1.00  0.00     0.014 A 
ENDROOT
BRANCH   1  23
HETATM   23  C   UNL     1      28.749  52.666  39.829  1.00  0.00     0.289 C 
HETATM   24  O   UNL     1      29.347  53.620  40.324  1.00  0.00    -0.263 OA
BRANCH  23  25
HETATM   25  O   UNL     1      28.474  52.482  38.523  1.00  0.00    -0.325 OA
HETATM   26  C   UNL     1      29.609  52.225  37.686  1.00  0.00     0.213 C 
ENDBRANCH  23  25
ENDBRANCH   1  23
BRANCH   8  27
HETATM   27  C   UNL     1      33.768  51.743  43.419  1.00  0.00     0.273 C 
BRANCH  27  28
HETATM   28  C   UNL     1      35.234  51.630  43.117  1.00  0.00    -0.033 A 
HETATM   29  C   UNL     1      36.150  52.498  43.730  1.00  0.00     0.009 A 
HETATM   30  C   UNL     1      37.511  52.413  43.437  1.00  0.00     0.001 A 
HETATM   31  C   UNL     1      37.971  51.461  42.530  1.00  0.00     0.000 A 
HETATM   32  C   UNL     1      37.072  50.587  41.922  1.00  0.00     0.001 A 
HETATM   33  C   UNL     1      35.710  50.666  42.213  1.00  0.00     0.009 A 
ENDBRANCH  27  28
ENDBRANCH   8  27
TORSDOF 4
ENDMDL
MODEL 6
REMARK VINA RESULT:      -8.0      6.112     11.440
REMARK  4 active torsions:
REMARK  status: ('A' for Active; 'I' for Inactive)
REMARK    1  A    between atoms: O_2  and  C_3 
REMARK    2  A    between atoms: C_3  and  C_4 
REMARK    3  A    between atoms: N_11  and  C_13 
REMARK    4  A    between atoms: C_13  and  C_14 
ROOT
HETATM    1  C   UNL     1      17.930  48.377  49.432  1.00  0.00     0.290 C 
HETATM    2  N   UNL     1      17.549  49.850  49.840  1.00  0.00    -0.047 N 
HETATM    3  H   UNL     1      17.801  49.899  50.837  1.00  0.00     0.279 HD
HETATM    4  H   UNL     1      16.524  49.880  49.770  1.00  0.00     0.279 HD
HETATM    5  C   UNL     1      18.249  50.997  49.100  1.00  0.00     0.172 C 
HETATM    6  C   UNL     1      17.629  51.295  47.720  1.00  0.00     0.073 C 
HETATM    7  C   UNL     1      16.204  51.823  47.776  1.00  0.00     0.238 C 
HETATM    8  N   UNL     1      16.161  53.056  48.648  1.00  0.00    -0.067 N 
HETATM    9  H   UNL     1      16.704  53.794  48.174  1.00  0.00     0.280 HD
HETATM   10  C   UNL     1      16.713  52.840  50.030  1.00  0.00     0.238 C 
HETATM   11  C   UNL     1      18.126  52.268  49.971  1.00  0.00     0.073 C 
HETATM   12  C   UNL     1      19.685  50.589  48.932  1.00  0.00     0.053 A 
HETATM   13  C   UNL     1      20.221  49.326  49.116  1.00  0.00    -0.018 A 
HETATM   14  C   UNL     1      19.438  48.146  49.569  1.00  0.00     0.085 C 
HETATM   15  N   UNL     1      20.712  51.407  48.515  1.00  0.00    -0.356 N 
HETATM   16  H   UNL     1      20.664  52.390  48.275  1.00  0.00     0.166 HD
HETATM   17  C   UNL     1      21.890  50.698  48.451  1.00  0.00     0.043 A 
HETATM   18  C   UNL     1      21.611  49.385  48.826  1.00  0.00    -0.001 A 
HETATM   19  C   UNL     1      23.174  51.122  48.091  1.00  0.00     0.030 A 
HETATM   20  C   UNL     1      24.200  50.174  48.118  1.00  0.00     0.002 A 
HETATM   21  C   UNL     1      23.951  48.856  48.489  1.00  0.00     0.001 A 
HETATM   22  C   UNL     1      22.661  48.447  48.846  1.00  0.00     0.014 A 
ENDROOT
BRANCH   1  23
HETATM   23  C   UNL     1      17.292  48.003  48.098  1.00  0.00     0.289 C 
HETATM   24  O   UNL     1      17.996  47.856  47.099  1.00  0.00    -0.263 OA
BRANCH  23  25
HETATM   25  O   UNL     1      15.948  47.929  48.150  1.00  0.00    -0.325 OA
HETATM   26  C   UNL     1      15.264  48.337  46.958  1.00  0.00     0.213 C 
ENDBRANCH  23  25
ENDBRANCH   1  23
BRANCH   8  27
HETATM   27  C   UNL     1      14.749  53.666  48.728  1.00  0.00     0.273 C 
BRANCH  27  28
HETATM   28  C   UNL     1      14.573  54.628  49.866  1.00  0.00    -0.033 A 
HETATM   29  C   UNL     1      15.006  55.957  49.740  1.00  0.00     0.009 A 
HETATM   30  C   UNL     1      14.866  56.851  50.802  1.00  0.00     0.001 A 
HETATM   31  C   UNL     1      14.292  56.428  51.998  1.00  0.00     0.000 A 
HETATM   32  C   UNL     1      13.849  55.114  52.131  1.00  0.00     0.001 A 
HETATM   33  C   UNL     1      13.984  54.217  51.072  1.00  0.00     0.009 A 
ENDBRANCH  27  28
ENDBRANCH   8  27
TORSDOF 4
ENDMDL
MODEL 7
REMARK VINA RESULT:      -8.0      4.183      9.773
REMARK  4 active torsions:
REMARK  status: ('A' for Active; 'I' for Inactive)
REMARK    1  A    between atoms: O_2  and  C_3 
REMARK    2  A    between atoms: C_3  and  C_4 
REMARK    3  A    between atoms: N_11  and  C_13 
REMARK    4  A    between atoms: C_13  and  C_14 
ROOT
HETATM    1  C   UNL     1      21.459  50.676  47.784  1.00  0.00     0.290 C 
HETATM    2  N   UNL     1      20.588  49.400  47.470  1.00  0.00    -0.047 N 
HETATM    3  H   UNL     1      20.897  49.121  46.530  1.00  0.00     0.279 HD
HETATM    4  H   UNL     1      19.627  49.758  47.397  1.00  0.00     0.279 HD
HETATM    5  C   UNL     1      20.725  48.197  48.411  1.00  0.00     0.172 C 
HETATM    6  C   UNL     1      19.911  48.346  49.711  1.00  0.00     0.073 C 
HETATM    7  C   UNL     1      18.404  48.372  49.504  1.00  0.00     0.238 C 
HETATM    8  N   UNL     1      17.979  47.129  48.758  1.00  0.00    -0.067 N 
HETATM    9  H   UNL     1      18.153  46.320  49.374  1.00  0.00     0.280 HD
HETATM   10  C   UNL     1      18.701  46.928  47.455  1.00  0.00     0.238 C 
HETATM   11  C   UNL     1      20.212  46.947  47.659  1.00  0.00     0.073 C 
HETATM   12  C   UNL     1      22.186  48.071  48.740  1.00  0.00     0.053 A 
HETATM   13  C   UNL     1      23.176  49.011  48.513  1.00  0.00    -0.018 A 
HETATM   14  C   UNL     1      22.947  50.317  47.841  1.00  0.00     0.085 C 
HETATM   15  N   UNL     1      22.781  47.004  49.377  1.00  0.00    -0.356 N 
HETATM   16  H   UNL     1      22.340  46.152  49.702  1.00  0.00     0.166 HD
HETATM   17  C   UNL     1      24.127  47.236  49.538  1.00  0.00     0.043 A 
HETATM   18  C   UNL     1      24.405  48.491  49.002  1.00  0.00    -0.001 A 
HETATM   19  C   UNL     1      25.113  46.428  50.118  1.00  0.00     0.030 A 
HETATM   20  C   UNL     1      26.420  46.922  50.145  1.00  0.00     0.002 A 
HETATM   21  C   UNL     1      26.727  48.172  49.616  1.00  0.00     0.001 A 
HETATM   22  C   UNL     1      25.730  48.968  49.041  1.00  0.00     0.014 A 
ENDROOT
BRANCH   1  23
HETATM   23  C   UNL     1      20.887  51.444  48.971  1.00  0.00     0.289 C 
HETATM   24  O   UNL     1      21.362  51.283  50.094  1.00  0.00    -0.263 OA
BRANCH  23  25
HETATM   25  O   UNL     1      19.827  52.210  48.651  1.00  0.00    -0.325 OA
HETATM   26  C   UNL     1      18.690  52.079  49.514  1.00  0.00     0.213 C 
ENDBRANCH  23  25
ENDBRANCH   1  23
BRANCH   8  27
HETATM   27  C   UNL     1      16.456  47.072  48.538  1.00  0.00     0.273 C 
BRANCH  27  28
HETATM   28  C   UNL     1      15.933  48.172  47.662  1.00  0.00    -0.033 A 
HETATM   29  C   UNL     1      15.455  47.882  46.374  1.00  0.00     0.009 A 
HETATM   30  C   UNL     1      14.989  48.903  45.546  1.00  0.00     0.001 A 
HETATM   31  C   UNL     1      14.994  50.222  45.994  1.00  0.00     0.000 A 
HETATM   32  C   UNL     1      15.457  50.521  47.274  1.00  0.00     0.001 A 
HETATM   33  C   UNL     1      15.922  49.503  48.107  1.00  0.00     0.009 A 
ENDBRANCH  27  28
ENDBRANCH   8  27
TORSDOF 4
ENDMDL
MODEL 8
REMARK VINA RESULT:      -7.8     10.263     12.030
REMARK  4 active torsions:
REMARK  status: ('A' for Active; 'I' for Inactive)
REMARK    1  A    between atoms: O_2  and  C_3 
REMARK    2  A    between atoms: C_3  and  C_4 
REMARK    3  A    between atoms: N_11  and  C_13 
REMARK    4  A    between atoms: C_13  and  C_14 
ROOT
HETATM    1  C   UNL     1      28.969  47.693  38.456  1.00  0.00     0.290 C 
HETATM    2  N   UNL     1      28.643  49.144  38.977  1.00  0.00    -0.047 N 
HETATM    3  H   UNL     1      28.102  49.562  38.208  1.00  0.00     0.279 HD
HETATM    4  H   UNL     1      29.556  49.615  39.017  1.00  0.00     0.279 HD
HETATM    5  C   UNL     1      27.832  49.269  40.273  1.00  0.00     0.172 C 
HETATM    6  C   UNL     1      28.685  49.081  41.543  1.00  0.00     0.073 C 
HETATM    7  C   UNL     1      29.730  50.165  41.759  1.00  0.00     0.238 C 
HETATM    8  N   UNL     1      29.054  51.516  41.775  1.00  0.00    -0.067 N 
HETATM    9  H   UNL     1      28.450  51.554  42.610  1.00  0.00     0.280 HD
HETATM   10  C   UNL     1      28.229  51.796  40.550  1.00  0.00     0.238 C 
HETATM   11  C   UNL     1      27.213  50.685  40.310  1.00  0.00     0.073 C 
HETATM   12  C   UNL     1      26.766  48.210  40.219  1.00  0.00     0.053 A 
HETATM   13  C   UNL     1      26.701  47.137  39.347  1.00  0.00    -0.018 A 
HETATM   14  C   UNL     1      27.684  46.883  38.262  1.00  0.00     0.085 C 
HETATM   15  N   UNL     1      25.690  48.105  41.071  1.00  0.00    -0.356 N 
HETATM   16  H   UNL     1      25.446  48.717  41.840  1.00  0.00     0.166 HD
HETATM   17  C   UNL     1      24.931  47.004  40.747  1.00  0.00     0.043 A 
HETATM   18  C   UNL     1      25.543  46.376  39.664  1.00  0.00    -0.001 A 
HETATM   19  C   UNL     1      23.754  46.521  41.332  1.00  0.00     0.030 A 
HETATM   20  C   UNL     1      23.189  45.365  40.789  1.00  0.00     0.002 A 
HETATM   21  C   UNL     1      23.777  44.717  39.706  1.00  0.00     0.001 A 
HETATM   22  C   UNL     1      24.955  45.212  39.133  1.00  0.00     0.014 A 
ENDROOT
BRANCH   1  23
HETATM   23  C   UNL     1      30.071  47.052  39.294  1.00  0.00     0.289 C 
HETATM   24  O   UNL     1      29.872  45.972  39.849  1.00  0.00    -0.263 OA
BRANCH  23  25
HETATM   25  O   UNL     1      31.180  47.809  39.388  1.00  0.00    -0.325 OA
HETATM   26  C   UNL     1      31.958  47.617  40.577  1.00  0.00     0.213 C 
ENDBRANCH  23  25
ENDBRANCH   1  23
BRANCH   8  27
HETATM   27  C   UNL     1      30.051  52.665  42.021  1.00  0.00     0.273 C 
BRANCH  27  28
HETATM   28  C   UNL     1      31.448  52.198  42.305  1.00  0.00    -0.033 A 
HETATM   29  C   UNL     1      32.318  51.887  41.248  1.00  0.00     0.009 A 
HETATM   30  C   UNL     1      33.611  51.431  41.505  1.00  0.00     0.001 A 
HETATM   31  C   UNL     1      34.048  51.281  42.818  1.00  0.00     0.000 A 
HETATM   32  C   UNL     1      33.199  51.596  43.876  1.00  0.00     0.001 A 
HETATM   33  C   UNL     1      31.905  52.055  43.625  1.00  0.00     0.009 A 
ENDBRANCH  27  28
ENDBRANCH   8  27
TORSDOF 4
ENDMDL
MODEL 9
REMARK VINA RESULT:      -7.5     11.452     13.591
REMARK  4 active torsions:
REMARK  status: ('A' for Active; 'I' for Inactive)
REMARK    1  A    between atoms: O_2  and  C_3 
REMARK    2  A    between atoms: C_3  and  C_4 
REMARK    3  A    between atoms: N_11  and  C_13 
REMARK    4  A    between atoms: C_13  and  C_14 
ROOT
HETATM    1  C   UNL     1      30.146  51.662  38.609  1.00  0.00     0.290 C 
HETATM    2  N   UNL     1      29.973  50.103  38.459  1.00  0.00    -0.047 N 
HETATM    3  H   UNL     1      30.457  49.888  37.577  1.00  0.00     0.279 HD
HETATM    4  H   UNL     1      28.965  49.969  38.310  1.00  0.00     0.279 HD
HETATM    5  C   UNL     1      30.553  49.213  39.566  1.00  0.00     0.172 C 
HETATM    6  C   UNL     1      29.646  49.123  40.809  1.00  0.00     0.073 C 
HETATM    7  C   UNL     1      28.314  48.432  40.561  1.00  0.00     0.238 C 
HETATM    8  N   UNL     1      28.562  47.055  39.991  1.00  0.00    -0.067 N 
HETATM    9  H   UNL     1      29.026  46.493  40.721  1.00  0.00     0.280 HD
HETATM   10  C   UNL     1      29.411  47.057  38.750  1.00  0.00     0.238 C 
HETATM   11  C   UNL     1      30.727  47.790  38.988  1.00  0.00     0.073 C 
HETATM   12  C   UNL     1      31.878  49.810  39.949  1.00  0.00     0.053 A 
HETATM   13  C   UNL     1      32.356  51.066  39.615  1.00  0.00    -0.018 A 
HETATM   14  C   UNL     1      31.624  52.034  38.756  1.00  0.00     0.085 C 
HETATM   15  N   UNL     1      32.830  49.215  40.748  1.00  0.00    -0.356 N 
HETATM   16  H   UNL     1      32.793  48.300  41.180  1.00  0.00     0.166 HD
HETATM   17  C   UNL     1      33.908  50.055  40.910  1.00  0.00     0.043 A 
HETATM   18  C   UNL     1      33.638  51.226  40.206  1.00  0.00    -0.001 A 
HETATM   19  C   UNL     1      35.096  49.862  41.625  1.00  0.00     0.030 A 
HETATM   20  C   UNL     1      36.033  50.898  41.615  1.00  0.00     0.002 A 
HETATM   21  C   UNL     1      35.790  52.080  40.920  1.00  0.00     0.001 A 
HETATM   22  C   UNL     1      34.597  52.258  40.210  1.00  0.00     0.014 A 
ENDROOT
BRANCH   1  23
HETATM   23  C   UNL     1      29.186  52.214  39.658  1.00  0.00     0.289 C 
HETATM   24  O   UNL     1      27.985  51.951  39.591  1.00  0.00    -0.263 OA
BRANCH  23  25
HETATM   25  O   UNL     1      29.782  53.021  40.556  1.00  0.00    -0.325 OA
HETATM   26  C   UNL     1      29.736  52.566  41.915  1.00  0.00     0.213 C 
ENDBRANCH  23  25
ENDBRANCH   1  23
BRANCH   8  27
HETATM   27  C   UNL     1      27.254  46.282  39.741  1.00  0.00     0.273 C 
BRANCH  27  28
HETATM   28  C   UNL     1      26.975  45.224  40.769  1.00  0.00    -0.033 A 
HETATM   29  C   UNL     1      27.584  43.964  40.669  1.00  0.00     0.009 A 
HETATM   30  C   UNL     1      27.312  42.969  41.607  1.00  0.00     0.001 A 
HETATM   31  C   UNL     1      26.430  43.221  42.655  1.00  0.00     0.000 A 
HETATM   32  C   UNL     1      25.827  44.472  42.772  1.00  0.00     0.001 A 
HETATM   33  C   UNL     1      26.097  45.472  41.837  1.00  0.00     0.009 A 
ENDBRANCH  27  28
ENDBRANCH   8  27
TORSDOF 4
ENDMDL
MODEL 10
REMARK VINA RESULT:      -7.5      5.684      8.587
REMARK  4 active torsions:
REMARK  status: ('A' for Active; 'I' for Inactive)
REMARK    1  A    between atoms: O_2  and  C_3 
REMARK    2  A    between atoms: C_3  and  C_4 
REMARK    3  A    between atoms: N_11  and  C_13 
REMARK    4  A    between atoms: C_13  and  C_14 
ROOT
HETATM    1  C   UNL     1      21.820  49.559  49.382  1.00  0.00     0.290 C 
HETATM    2  N   UNL     1      21.239  48.096  49.315  1.00  0.00    -0.047 N 
HETATM    3  H   UNL     1      21.036  47.870  50.299  1.00  0.00     0.279 HD
HETATM    4  H   UNL     1      22.033  47.517  49.013  1.00  0.00     0.279 HD
HETATM    5  C   UNL     1      19.967  47.872  48.487  1.00  0.00     0.172 C 
HETATM    6  C   UNL     1      20.241  47.756  46.975  1.00  0.00     0.073 C 
HETATM    7  C   UNL     1      21.054  46.533  46.580  1.00  0.00     0.238 C 
HETATM    8  N   UNL     1      20.363  45.287  47.085  1.00  0.00    -0.067 N 
HETATM    9  H   UNL     1      19.471  45.196  46.576  1.00  0.00     0.280 HD
HETATM   10  C   UNL     1      20.093  45.303  48.564  1.00  0.00     0.238 C 
HETATM   11  C   UNL     1      19.317  46.553  48.965  1.00  0.00     0.073 C 
HETATM   12  C   UNL     1      19.069  49.048  48.751  1.00  0.00     0.053 A 
HETATM   13  C   UNL     1      19.415  50.243  49.357  1.00  0.00    -0.018 A 
HETATM   14  C   UNL     1      20.766  50.540  49.904  1.00  0.00     0.085 C 
HETATM   15  N   UNL     1      17.746  49.150  48.382  1.00  0.00    -0.356 N 
HETATM   16  H   UNL     1      17.181  48.461  47.901  1.00  0.00     0.166 HD
HETATM   17  C   UNL     1      17.239  50.372  48.761  1.00  0.00     0.043 A 
HETATM   18  C   UNL     1      18.267  51.081  49.378  1.00  0.00    -0.001 A 
HETATM   19  C   UNL     1      15.952  50.898  48.601  1.00  0.00     0.030 A 
HETATM   20  C   UNL     1      15.713  52.185  49.090  1.00  0.00     0.002 A 
HETATM   21  C   UNL     1      16.721  52.916  49.713  1.00  0.00     0.001 A 
HETATM   22  C   UNL     1      18.003  52.376  49.864  1.00  0.00     0.014 A 
ENDROOT
BRANCH   1  23
HETATM   23  C   UNL     1      22.517  49.924  48.075  1.00  0.00     0.289 C 
HETATM   24  O   UNL     1      22.038  50.789  47.343  1.00  0.00    -0.263 OA
BRANCH  23  25
HETATM   25  O   UNL     1      23.609  49.177  47.825  1.00  0.00    -0.325 OA
HETATM   26  C   UNL     1      24.813  49.611  48.472  1.00  0.00     0.213 C 
ENDBRANCH  23  25
ENDBRANCH   1  23
BRANCH   8  27
HETATM   27  C   UNL     1      21.117  44.003  46.694  1.00  0.00     0.273 C 
BRANCH  27  28
HETATM   28  C   UNL     1      20.356  43.125  45.744  1.00  0.00    -0.033 A 
HETATM   29  C   UNL     1      19.256  43.636  45.038  1.00  0.00     0.009 A 
HETATM   30  C   UNL     1      18.530  42.820  44.170  1.00  0.00     0.001 A 
HETATM   31  C   UNL     1      18.896  41.487  43.998  1.00  0.00     0.000 A 
HETATM   32  C   UNL     1      19.992  40.971  44.685  1.00  0.00     0.001 A 
HETATM   33  C   UNL     1      20.723  41.783  45.553  1.00  0.00     0.009 A 
ENDBRANCH  27  28
ENDBRANCH   8  27
TORSDOF 4
ENDMDL
