MODEL 1
REMARK VINA RESULT:      -8.5      0.000      0.000
REMARK  5 active torsions:
REMARK  status: ('A' for Active; 'I' for Inactive)
REMARK    1  A    between atoms: C_2  and  O_3 
REMARK    2  A    between atoms: O_3  and  C_4 
REMARK    3  A    between atoms: C_8  and  C_9 
REMARK    4  A    between atoms: C_9  and  N_10 
REMARK       I    between atoms: N_10  and  C_11 
REMARK       I    between atoms: C_11  and  N_12 
REMARK    5  A    between atoms: N_12  and  C_13 
ROOT
HETATM    1  N   UNL     1      24.222  47.113  50.775  1.00  0.00    -0.339 N 
HETATM    2  C   UNL     1      24.548  48.077  49.854  1.00  0.00     0.316 C 
HETATM    3  N   UNL     1      23.481  48.384  49.047  1.00  0.00    -0.337 N 
HETATM    4  O   UNL     1      25.656  48.588  49.759  1.00  0.00    -0.247 OA
HETATM    5  H   UNL     1      23.247  47.034  51.020  1.00  0.00     0.164 HD
HETATM    6  H   UNL     1      22.695  47.750  49.050  1.00  0.00     0.164 HD
ENDROOT
BRANCH   1   7
HETATM    7  C   UNL     1      25.182  46.656  51.753  1.00  0.00     0.163 C 
BRANCH   7   8
HETATM    8  C   UNL     1      25.522  45.204  51.555  1.00  0.00    -0.035 A 
HETATM    9  C   UNL     1      24.538  44.283  51.188  1.00  0.00     0.028 A 
HETATM   10  C   UNL     1      24.901  42.957  51.020  1.00  0.00     0.120 A 
HETATM   11  N   UNL     1      26.156  42.491  51.198  1.00  0.00    -0.237 NA
HETATM   12  C   UNL     1      27.090  43.389  51.556  1.00  0.00     0.165 A 
HETATM   13  C   UNL     1      26.830  44.742  51.724  1.00  0.00     0.066 A 
BRANCH  12  14
HETATM   14  O   UNL     1      28.400  43.005  51.727  1.00  0.00    -0.324 OA
BRANCH  14  15
HETATM   15  C   UNL     1      28.782  42.310  52.929  1.00  0.00     0.058 C 
HETATM   16  C   UNL     1      28.846  40.787  52.740  1.00  0.00     0.045 C 
HETATM   17  C   UNL     1      27.927  42.710  54.141  1.00  0.00     0.045 C 
HETATM   18  C   UNL     1      30.219  42.802  53.191  1.00  0.00     0.045 C 
ENDBRANCH  14  15
ENDBRANCH  12  14
ENDBRANCH   7   8
ENDBRANCH   1   7
BRANCH   3  19
HETATM   19  C   UNL     1      23.566  49.324  47.970  1.00  0.00     0.100 A 
HETATM   20  C   UNL     1      22.331  50.004  47.422  1.00  0.00     0.049 A 
HETATM   21  C   UNL     1      23.369  50.803  48.198  1.00  0.00     0.024 A 
HETATM   22  C   UNL     1      21.080  50.125  48.236  1.00  0.00    -0.045 A 
HETATM   23  C   UNL     1      22.740  51.375  49.458  1.00  0.00     0.046 A 
HETATM   24  C   UNL     1      21.306  50.900  49.390  1.00  0.00    -0.051 A 
HETATM   25  C   UNL     1      20.300  51.144  50.311  1.00  0.00     0.007 A 
HETATM   26  C   UNL     1      19.039  50.597  50.071  1.00  0.00     0.001 A 
HETATM   27  C   UNL     1      18.802  49.821  48.927  1.00  0.00     0.001 A 
HETATM   28  C   UNL     1      19.825  49.582  48.005  1.00  0.00     0.008 A 
ENDBRANCH   3  19
TORSDOF 5
ENDMDL
MODEL 2
REMARK VINA RESULT:      -8.2      1.866      3.019
REMARK  5 active torsions:
REMARK  status: ('A' for Active; 'I' for Inactive)
REMARK    1  A    between atoms: C_2  and  O_3 
REMARK    2  A    between atoms: O_3  and  C_4 
REMARK    3  A    between atoms: C_8  and  C_9 
REMARK    4  A    between atoms: C_9  and  N_10 
REMARK       I    between atoms: N_10  and  C_11 
REMARK       I    between atoms: C_11  and  N_12 
REMARK    5  A    between atoms: N_12  and  C_13 
ROOT
HETATM    1  N   UNL     1      22.916  48.137  49.610  1.00  0.00    -0.339 N 
HETATM    2  C   UNL     1      22.704  49.493  49.585  1.00  0.00     0.316 C 
HETATM    3  N   UNL     1      21.372  49.796  49.717  1.00  0.00    -0.337 N 
HETATM    4  O   UNL     1      23.593  50.324  49.451  1.00  0.00    -0.247 OA
HETATM    5  H   UNL     1      22.221  47.580  50.083  1.00  0.00     0.164 HD
HETATM    6  H   UNL     1      20.706  49.048  49.586  1.00  0.00     0.164 HD
ENDROOT
BRANCH   1   7
HETATM    7  C   UNL     1      24.248  47.585  49.520  1.00  0.00     0.163 C 
BRANCH   7   8
HETATM    8  C   UNL     1      24.377  46.323  50.327  1.00  0.00    -0.035 A 
HETATM    9  C   UNL     1      23.847  45.118  49.859  1.00  0.00     0.028 A 
HETATM   10  C   UNL     1      23.989  43.983  50.640  1.00  0.00     0.120 A 
HETATM   11  N   UNL     1      24.606  43.967  51.841  1.00  0.00    -0.237 NA
HETATM   12  C   UNL     1      25.107  45.135  52.280  1.00  0.00     0.165 A 
HETATM   13  C   UNL     1      25.036  46.320  51.559  1.00  0.00     0.066 A 
BRANCH  12  14
HETATM   14  O   UNL     1      25.779  45.203  53.479  1.00  0.00    -0.324 OA
BRANCH  14  15
HETATM   15  C   UNL     1      27.022  44.494  53.634  1.00  0.00     0.058 C 
HETATM   16  C   UNL     1      27.728  44.230  52.296  1.00  0.00     0.045 C 
HETATM   17  C   UNL     1      26.872  43.216  54.473  1.00  0.00     0.045 C 
HETATM   18  C   UNL     1      27.902  45.475  54.434  1.00  0.00     0.045 C 
ENDBRANCH  14  15
ENDBRANCH  12  14
ENDBRANCH   7   8
ENDBRANCH   1   7
BRANCH   3  19
HETATM   19  C   UNL     1      20.872  51.139  49.675  1.00  0.00     0.100 A 
HETATM   20  C   UNL     1      19.965  51.604  48.559  1.00  0.00     0.049 A 
HETATM   21  C   UNL     1      19.427  51.451  49.975  1.00  0.00     0.024 A 
HETATM   22  C   UNL     1      19.164  50.633  47.747  1.00  0.00    -0.045 A 
HETATM   23  C   UNL     1      18.333  50.395  49.997  1.00  0.00     0.046 A 
HETATM   24  C   UNL     1      18.239  49.945  48.557  1.00  0.00    -0.051 A 
HETATM   25  C   UNL     1      17.391  48.981  48.036  1.00  0.00     0.007 A 
HETATM   26  C   UNL     1      17.473  48.698  46.671  1.00  0.00     0.001 A 
HETATM   27  C   UNL     1      18.392  49.375  45.855  1.00  0.00     0.001 A 
HETATM   28  C   UNL     1      19.243  50.345  46.393  1.00  0.00     0.008 A 
ENDBRANCH   3  19
TORSDOF 5
ENDMDL
MODEL 3
REMARK VINA RESULT:      -8.0      1.686      2.322
REMARK  5 active torsions:
REMARK  status: ('A' for Active; 'I' for Inactive)
REMARK    1  A    between atoms: C_2  and  O_3 
REMARK    2  A    between atoms: O_3  and  C_4 
REMARK    3  A    between atoms: C_8  and  C_9 
REMARK    4  A    between atoms: C_9  and  N_10 
REMARK       I    between atoms: N_10  and  C_11 
REMARK       I    between atoms: C_11  and  N_12 
REMARK    5  A    between atoms: N_12  and  C_13 
ROOT
HETATM    1  N   UNL     1      24.115  47.001  50.703  1.00  0.00    -0.339 N 
HETATM    2  C   UNL     1      24.128  47.952  49.714  1.00  0.00     0.316 C 
HETATM    3  N   UNL     1      23.147  48.892  49.906  1.00  0.00    -0.337 N 
HETATM    4  O   UNL     1      24.911  47.953  48.773  1.00  0.00    -0.247 OA
HETATM    5  H   UNL     1      23.717  47.276  51.588  1.00  0.00     0.164 HD
HETATM    6  H   UNL     1      22.415  48.676  50.568  1.00  0.00     0.164 HD
ENDROOT
BRANCH   1   7
HETATM    7  C   UNL     1      25.083  45.929  50.724  1.00  0.00     0.163 C 
BRANCH   7   8
HETATM    8  C   UNL     1      25.825  45.883  52.032  1.00  0.00    -0.035 A 
HETATM    9  C   UNL     1      26.067  47.051  52.759  1.00  0.00     0.028 A 
HETATM   10  C   UNL     1      26.757  46.955  53.956  1.00  0.00     0.120 A 
HETATM   11  N   UNL     1      27.222  45.795  54.468  1.00  0.00    -0.237 NA
HETATM   12  C   UNL     1      26.985  44.681  53.754  1.00  0.00     0.165 A 
HETATM   13  C   UNL     1      26.283  44.671  52.557  1.00  0.00     0.066 A 
BRANCH  12  14
HETATM   14  O   UNL     1      27.397  43.453  54.218  1.00  0.00    -0.324 OA
BRANCH  14  15
HETATM   15  C   UNL     1      28.676  42.935  53.809  1.00  0.00     0.058 C 
HETATM   16  C   UNL     1      29.751  43.077  54.896  1.00  0.00     0.045 C 
HETATM   17  C   UNL     1      29.138  43.500  52.457  1.00  0.00     0.045 C 
HETATM   18  C   UNL     1      28.412  41.428  53.616  1.00  0.00     0.045 C 
ENDBRANCH  14  15
ENDBRANCH  12  14
ENDBRANCH   7   8
ENDBRANCH   1   7
BRANCH   3  19
HETATM   19  C   UNL     1      22.911  49.969  48.990  1.00  0.00     0.100 A 
HETATM   20  C   UNL     1      21.646  50.034  48.165  1.00  0.00     0.049 A 
HETATM   21  C   UNL     1      21.891  51.041  49.281  1.00  0.00     0.024 A 
HETATM   22  C   UNL     1      20.404  49.309  48.580  1.00  0.00    -0.045 A 
HETATM   23  C   UNL     1      20.813  50.899  50.345  1.00  0.00     0.046 A 
HETATM   24  C   UNL     1      19.928  49.794  49.814  1.00  0.00    -0.051 A 
HETATM   25  C   UNL     1      18.795  49.269  50.415  1.00  0.00     0.007 A 
HETATM   26  C   UNL     1      18.124  48.232  49.765  1.00  0.00     0.001 A 
HETATM   27  C   UNL     1      18.590  47.738  48.537  1.00  0.00     0.001 A 
HETATM   28  C   UNL     1      19.734  48.276  47.941  1.00  0.00     0.008 A 
ENDBRANCH   3  19
TORSDOF 5
ENDMDL
MODEL 4
REMARK VINA RESULT:      -8.0      1.552      2.099
REMARK  5 active torsions:
REMARK  status: ('A' for Active; 'I' for Inactive)
REMARK    1  A    between atoms: C_2  and  O_3 
REMARK    2  A    between atoms: O_3  and  C_4 
REMARK    3  A    between atoms: C_8  and  C_9 
REMARK    4  A    between atoms: C_9  and  N_10 
REMARK       I    between atoms: N_10  and  C_11 
REMARK       I    between atoms: C_11  and  N_12 
REMARK    5  A    between atoms: N_12  and  C_13 
ROOT
HETATM    1  N   UNL     1      24.121  47.957  49.184  1.00  0.00    -0.339 N 
HETATM    2  C   UNL     1      23.712  49.226  48.857  1.00  0.00     0.316 C 
HETATM    3  N   UNL     1      22.533  49.209  48.155  1.00  0.00    -0.337 N 
HETATM    4  O   UNL     1      24.330  50.242  49.147  1.00  0.00    -0.247 OA
HETATM    5  H   UNL     1      23.403  47.252  49.241  1.00  0.00     0.164 HD
HETATM    6  H   UNL     1      22.231  48.326  47.768  1.00  0.00     0.164 HD
ENDROOT
BRANCH   1   7
HETATM    7  C   UNL     1      25.323  47.733  49.955  1.00  0.00     0.163 C 
BRANCH   7   8
HETATM    8  C   UNL     1      25.219  46.483  50.784  1.00  0.00    -0.035 A 
HETATM    9  C   UNL     1      24.305  45.480  50.455  1.00  0.00     0.028 A 
HETATM   10  C   UNL     1      24.247  44.348  51.253  1.00  0.00     0.120 A 
HETATM   11  N   UNL     1      25.019  44.154  52.343  1.00  0.00    -0.237 NA
HETATM   12  C   UNL     1      25.890  45.131  52.649  1.00  0.00     0.165 A 
HETATM   13  C   UNL     1      26.040  46.289  51.899  1.00  0.00     0.066 A 
BRANCH  12  14
HETATM   14  O   UNL     1      26.737  45.001  53.726  1.00  0.00    -0.324 OA
BRANCH  14  15
HETATM   15  C   UNL     1      27.788  44.018  53.684  1.00  0.00     0.058 C 
HETATM   16  C   UNL     1      28.400  43.859  52.284  1.00  0.00     0.045 C 
HETATM   17  C   UNL     1      27.362  42.671  54.288  1.00  0.00     0.045 C 
HETATM   18  C   UNL     1      28.878  44.613  54.599  1.00  0.00     0.045 C 
ENDBRANCH  14  15
ENDBRANCH  12  14
ENDBRANCH   7   8
ENDBRANCH   1   7
BRANCH   3  19
HETATM   19  C   UNL     1      21.912  50.397  47.650  1.00  0.00     0.100 A 
HETATM   20  C   UNL     1      20.409  50.507  47.531  1.00  0.00     0.049 A 
HETATM   21  C   UNL     1      21.163  51.342  48.557  1.00  0.00     0.024 A 
HETATM   22  C   UNL     1      19.496  49.646  48.347  1.00  0.00    -0.045 A 
HETATM   23  C   UNL     1      20.708  50.966  49.959  1.00  0.00     0.046 A 
HETATM   24  C   UNL     1      19.662  49.901  49.722  1.00  0.00    -0.051 A 
HETATM   25  C   UNL     1      18.935  49.216  50.683  1.00  0.00     0.007 A 
HETATM   26  C   UNL     1      18.022  48.251  50.255  1.00  0.00     0.001 A 
HETATM   27  C   UNL     1      17.850  47.986  48.888  1.00  0.00     0.001 A 
HETATM   28  C   UNL     1      18.588  48.684  47.929  1.00  0.00     0.008 A 
ENDBRANCH   3  19
TORSDOF 5
ENDMDL
MODEL 5
REMARK VINA RESULT:      -7.9      4.610      7.848
REMARK  5 active torsions:
REMARK  status: ('A' for Active; 'I' for Inactive)
REMARK    1  A    between atoms: C_2  and  O_3 
REMARK    2  A    between atoms: O_3  and  C_4 
REMARK    3  A    between atoms: C_8  and  C_9 
REMARK    4  A    between atoms: C_9  and  N_10 
REMARK       I    between atoms: N_10  and  C_11 
REMARK       I    between atoms: C_11  and  N_12 
REMARK    5  A    between atoms: N_12  and  C_13 
ROOT
HETATM    1  N   UNL     1      25.465  45.127  50.393  1.00  0.00    -0.339 N 
HETATM    2  C   UNL     1      25.014  44.880  51.666  1.00  0.00     0.316 C 
HETATM    3  N   UNL     1      25.989  45.119  52.601  1.00  0.00    -0.337 N 
HETATM    4  O   UNL     1      23.885  44.484  51.929  1.00  0.00    -0.247 OA
HETATM    5  H   UNL     1      26.230  45.777  50.304  1.00  0.00     0.164 HD
HETATM    6  H   UNL     1      26.940  45.213  52.273  1.00  0.00     0.164 HD
ENDROOT
BRANCH   1   7
HETATM    7  C   UNL     1      24.597  44.974  49.248  1.00  0.00     0.163 C 
BRANCH   7   8
HETATM    8  C   UNL     1      24.421  43.526  48.880  1.00  0.00    -0.035 A 
HETATM    9  C   UNL     1      23.149  42.996  48.654  1.00  0.00     0.028 A 
HETATM   10  C   UNL     1      23.039  41.655  48.320  1.00  0.00     0.120 A 
HETATM   11  N   UNL     1      24.093  40.819  48.206  1.00  0.00    -0.237 NA
HETATM   12  C   UNL     1      25.310  41.344  48.432  1.00  0.00     0.165 A 
HETATM   13  C   UNL     1      25.523  42.678  48.747  1.00  0.00     0.066 A 
BRANCH  12  14
HETATM   14  O   UNL     1      26.440  40.569  48.306  1.00  0.00    -0.324 OA
BRANCH  14  15
HETATM   15  C   UNL     1      26.916  39.823  49.442  1.00  0.00     0.058 C 
HETATM   16  C   UNL     1      26.844  38.304  49.228  1.00  0.00     0.045 C 
HETATM   17  C   UNL     1      26.249  40.257  50.756  1.00  0.00     0.045 C 
HETATM   18  C   UNL     1      28.407  40.206  49.529  1.00  0.00     0.045 C 
ENDBRANCH  14  15
ENDBRANCH  12  14
ENDBRANCH   7   8
ENDBRANCH   1   7
BRANCH   3  19
HETATM   19  C   UNL     1      25.795  44.894  54.003  1.00  0.00     0.100 A 
HETATM   20  C   UNL     1      26.432  43.716  54.703  1.00  0.00     0.049 A 
HETATM   21  C   UNL     1      26.901  45.133  55.000  1.00  0.00     0.024 A 
HETATM   22  C   UNL     1      27.639  43.031  54.141  1.00  0.00    -0.045 A 
HETATM   23  C   UNL     1      28.362  45.284  54.604  1.00  0.00     0.046 A 
HETATM   24  C   UNL     1      28.734  43.915  54.082  1.00  0.00    -0.051 A 
HETATM   25  C   UNL     1      29.965  43.517  53.583  1.00  0.00     0.007 A 
HETATM   26  C   UNL     1      30.100  42.203  53.131  1.00  0.00     0.001 A 
HETATM   27  C   UNL     1      29.015  41.315  53.182  1.00  0.00     0.001 A 
HETATM   28  C   UNL     1      27.779  41.728  53.688  1.00  0.00     0.008 A 
ENDBRANCH   3  19
TORSDOF 5
ENDMDL
MODEL 6
REMARK VINA RESULT:      -7.8      2.466      3.356
REMARK  5 active torsions:
REMARK  status: ('A' for Active; 'I' for Inactive)
REMARK    1  A    between atoms: C_2  and  O_3 
REMARK    2  A    between atoms: O_3  and  C_4 
REMARK    3  A    between atoms: C_8  and  C_9 
REMARK    4  A    between atoms: C_9  and  N_10 
REMARK       I    between atoms: N_10  and  C_11 
REMARK       I    between atoms: C_11  and  N_12 
REMARK    5  A    between atoms: N_12  and  C_13 
ROOT
HETATM    1  N   UNL     1      21.087  46.316  49.053  1.00  0.00    -0.339 N 
HETATM    2  C   UNL     1      21.894  47.275  48.494  1.00  0.00     0.316 C 
HETATM    3  N   UNL     1      22.002  48.377  49.305  1.00  0.00    -0.337 N 
HETATM    4  O   UNL     1      22.438  47.163  47.403  1.00  0.00    -0.247 OA
HETATM    5  H   UNL     1      21.001  46.328  50.058  1.00  0.00     0.164 HD
HETATM    6  H   UNL     1      21.339  48.469  50.061  1.00  0.00     0.164 HD
ENDROOT
BRANCH   1   7
HETATM    7  C   UNL     1      20.855  45.053  48.391  1.00  0.00     0.163 C 
BRANCH   7   8
HETATM    8  C   UNL     1      21.960  44.073  48.672  1.00  0.00    -0.035 A 
HETATM    9  C   UNL     1      22.408  43.197  47.680  1.00  0.00     0.028 A 
HETATM   10  C   UNL     1      23.427  42.311  47.989  1.00  0.00     0.120 A 
HETATM   11  N   UNL     1      24.016  42.233  49.202  1.00  0.00    -0.237 NA
HETATM   12  C   UNL     1      23.570  43.079  50.147  1.00  0.00     0.165 A 
HETATM   13  C   UNL     1      22.572  44.018  49.927  1.00  0.00     0.066 A 
BRANCH  12  14
HETATM   14  O   UNL     1      24.136  43.089  51.401  1.00  0.00    -0.324 OA
BRANCH  14  15
HETATM   15  C   UNL     1      25.446  43.656  51.582  1.00  0.00     0.058 C 
HETATM   16  C   UNL     1      25.713  44.848  50.650  1.00  0.00     0.045 C 
HETATM   17  C   UNL     1      26.562  42.602  51.510  1.00  0.00     0.045 C 
HETATM   18  C   UNL     1      25.411  44.198  53.025  1.00  0.00     0.045 C 
ENDBRANCH  14  15
ENDBRANCH  12  14
ENDBRANCH   7   8
ENDBRANCH   1   7
BRANCH   3  19
HETATM   19  C   UNL     1      22.747  49.544  48.936  1.00  0.00     0.100 A 
HETATM   20  C   UNL     1      22.090  50.700  48.218  1.00  0.00     0.049 A 
HETATM   21  C   UNL     1      22.563  50.857  49.656  1.00  0.00     0.024 A 
HETATM   22  C   UNL     1      20.610  50.921  48.284  1.00  0.00    -0.045 A 
HETATM   23  C   UNL     1      21.375  51.153  50.559  1.00  0.00     0.046 A 
HETATM   24  C   UNL     1      20.200  51.178  49.608  1.00  0.00    -0.051 A 
HETATM   25  C   UNL     1      18.871  51.401  49.927  1.00  0.00     0.007 A 
HETATM   26  C   UNL     1      17.929  51.365  48.897  1.00  0.00     0.001 A 
HETATM   27  C   UNL     1      18.325  51.108  47.576  1.00  0.00     0.001 A 
HETATM   28  C   UNL     1      19.669  50.885  47.266  1.00  0.00     0.008 A 
ENDBRANCH   3  19
TORSDOF 5
ENDMDL
MODEL 7
REMARK VINA RESULT:      -7.8     11.209     13.391
REMARK  5 active torsions:
REMARK  status: ('A' for Active; 'I' for Inactive)
REMARK    1  A    between atoms: C_2  and  O_3 
REMARK    2  A    between atoms: O_3  and  C_4 
REMARK    3  A    between atoms: C_8  and  C_9 
REMARK    4  A    between atoms: C_9  and  N_10 
REMARK       I    between atoms: N_10  and  C_11 
REMARK       I    between atoms: C_11  and  N_12 
REMARK    5  A    between atoms: N_12  and  C_13 
ROOT
HETATM    1  N   UNL     1      27.734  51.697  39.515  1.00  0.00    -0.339 N 
HETATM    2  C   UNL     1      26.936  50.833  38.807  1.00  0.00     0.316 C 
HETATM    3  N   UNL     1      26.085  50.142  39.632  1.00  0.00    -0.337 N 
HETATM    4  O   UNL     1      26.988  50.692  37.592  1.00  0.00    -0.247 OA
HETATM    5  H   UNL     1      27.379  52.011  40.405  1.00  0.00     0.164 HD
HETATM    6  H   UNL     1      26.280  50.156  40.623  1.00  0.00     0.164 HD
ENDROOT
BRANCH   1   7
HETATM    7  C   UNL     1      28.686  52.555  38.849  1.00  0.00     0.163 C 
BRANCH   7   8
HETATM    8  C   UNL     1      30.101  52.143  39.147  1.00  0.00    -0.035 A 
HETATM    9  C   UNL     1      30.875  51.492  38.184  1.00  0.00     0.028 A 
HETATM   10  C   UNL     1      32.173  51.131  38.509  1.00  0.00     0.120 A 
HETATM   11  N   UNL     1      32.741  51.363  39.713  1.00  0.00    -0.237 NA
HETATM   12  C   UNL     1      31.981  51.986  40.630  1.00  0.00     0.165 A 
HETATM   13  C   UNL     1      30.680  52.408  40.392  1.00  0.00     0.066 A 
BRANCH  12  14
HETATM   14  O   UNL     1      32.491  52.289  41.872  1.00  0.00    -0.324 OA
BRANCH  14  15
HETATM   15  C   UNL     1      32.949  51.226  42.727  1.00  0.00     0.058 C 
HETATM   16  C   UNL     1      34.435  50.896  42.522  1.00  0.00     0.045 C 
HETATM   17  C   UNL     1      32.060  49.975  42.644  1.00  0.00     0.045 C 
HETATM   18  C   UNL     1      32.798  51.810  44.146  1.00  0.00     0.045 C 
ENDBRANCH  14  15
ENDBRANCH  12  14
ENDBRANCH   7   8
ENDBRANCH   1   7
BRANCH   3  19
HETATM   19  C   UNL     1      25.179  49.140  39.152  1.00  0.00     0.100 A 
HETATM   20  C   UNL     1      25.684  47.874  38.499  1.00  0.00     0.049 A 
HETATM   21  C   UNL     1      25.014  47.821  39.864  1.00  0.00     0.024 A 
HETATM   22  C   UNL     1      27.072  47.369  38.742  1.00  0.00    -0.045 A 
HETATM   23  C   UNL     1      26.000  47.304  40.900  1.00  0.00     0.046 A 
HETATM   24  C   UNL     1      27.257  47.045  40.100  1.00  0.00    -0.051 A 
HETATM   25  C   UNL     1      28.468  46.568  40.576  1.00  0.00     0.007 A 
HETATM   26  C   UNL     1      29.519  46.414  39.670  1.00  0.00     0.001 A 
HETATM   27  C   UNL     1      29.347  46.736  38.316  1.00  0.00     0.001 A 
HETATM   28  C   UNL     1      28.121  47.216  37.847  1.00  0.00     0.008 A 
ENDBRANCH   3  19
TORSDOF 5
ENDMDL
MODEL 8
REMARK VINA RESULT:      -7.7     11.421     13.444
REMARK  5 active torsions:
REMARK  status: ('A' for Active; 'I' for Inactive)
REMARK    1  A    between atoms: C_2  and  O_3 
REMARK    2  A    between atoms: O_3  and  C_4 
REMARK    3  A    between atoms: C_8  and  C_9 
REMARK    4  A    between atoms: C_9  and  N_10 
REMARK       I    between atoms: N_10  and  C_11 
REMARK       I    between atoms: C_11  and  N_12 
REMARK    5  A    between atoms: N_12  and  C_13 
ROOT
HETATM    1  N   UNL     1      31.212  48.248  40.516  1.00  0.00    -0.339 N 
HETATM    2  C   UNL     1      29.886  48.296  40.868  1.00  0.00     0.316 C 
HETATM    3  N   UNL     1      29.078  48.439  39.768  1.00  0.00    -0.337 N 
HETATM    4  O   UNL     1      29.480  48.230  42.021  1.00  0.00    -0.247 OA
HETATM    5  H   UNL     1      31.419  47.939  39.578  1.00  0.00     0.164 HD
HETATM    6  H   UNL     1      29.514  48.717  38.900  1.00  0.00     0.164 HD
ENDROOT
BRANCH   1   7
HETATM    7  C   UNL     1      32.245  48.067  41.509  1.00  0.00     0.163 C 
BRANCH   7   8
HETATM    8  C   UNL     1      32.784  49.386  41.991  1.00  0.00    -0.035 A 
HETATM    9  C   UNL     1      32.118  50.112  42.981  1.00  0.00     0.028 A 
HETATM   10  C   UNL     1      32.654  51.323  43.389  1.00  0.00     0.120 A 
HETATM   11  N   UNL     1      33.785  51.857  42.879  1.00  0.00    -0.237 NA
HETATM   12  C   UNL     1      34.410  51.148  41.923  1.00  0.00     0.165 A 
HETATM   13  C   UNL     1      33.966  49.915  41.466  1.00  0.00     0.066 A 
BRANCH  12  14
HETATM   14  O   UNL     1      35.586  51.603  41.371  1.00  0.00    -0.324 OA
BRANCH  14  15
HETATM   15  C   UNL     1      35.577  52.149  40.039  1.00  0.00     0.058 C 
HETATM   16  C   UNL     1      34.176  52.584  39.583  1.00  0.00     0.045 C 
HETATM   17  C   UNL     1      36.259  51.225  39.018  1.00  0.00     0.045 C 
HETATM   18  C   UNL     1      36.438  53.422  40.162  1.00  0.00     0.045 C 
ENDBRANCH  14  15
ENDBRANCH  12  14
ENDBRANCH   7   8
ENDBRANCH   1   7
BRANCH   3  19
HETATM   19  C   UNL     1      27.654  48.564  39.860  1.00  0.00     0.100 A 
HETATM   20  C   UNL     1      27.008  49.846  40.335  1.00  0.00     0.049 A 
HETATM   21  C   UNL     1      26.872  49.407  38.884  1.00  0.00     0.024 A 
HETATM   22  C   UNL     1      27.728  51.157  40.265  1.00  0.00    -0.045 A 
HETATM   23  C   UNL     1      27.516  50.441  37.973  1.00  0.00     0.046 A 
HETATM   24  C   UNL     1      28.019  51.498  38.930  1.00  0.00    -0.051 A 
HETATM   25  C   UNL     1      28.695  52.664  38.607  1.00  0.00     0.007 A 
HETATM   26  C   UNL     1      29.092  53.506  39.648  1.00  0.00     0.001 A 
HETATM   27  C   UNL     1      28.811  53.175  40.982  1.00  0.00     0.001 A 
HETATM   28  C   UNL     1      28.127  51.997  41.294  1.00  0.00     0.008 A 
ENDBRANCH   3  19
TORSDOF 5
ENDMDL
MODEL 9
REMARK VINA RESULT:      -7.7      2.364      3.442
REMARK  5 active torsions:
REMARK  status: ('A' for Active; 'I' for Inactive)
REMARK    1  A    between atoms: C_2  and  O_3 
REMARK    2  A    between atoms: O_3  and  C_4 
REMARK    3  A    between atoms: C_8  and  C_9 
REMARK    4  A    between atoms: C_9  and  N_10 
REMARK       I    between atoms: N_10  and  C_11 
REMARK       I    between atoms: C_11  and  N_12 
REMARK    5  A    between atoms: N_12  and  C_13 
ROOT
HETATM    1  N   UNL     1      22.699  45.998  49.419  1.00  0.00    -0.339 N 
HETATM    2  C   UNL     1      21.429  45.644  49.039  1.00  0.00     0.316 C 
HETATM    3  N   UNL     1      20.627  46.746  48.875  1.00  0.00    -0.337 N 
HETATM    4  O   UNL     1      21.057  44.489  48.877  1.00  0.00    -0.247 OA
HETATM    5  H   UNL     1      23.004  46.925  49.167  1.00  0.00     0.164 HD
HETATM    6  H   UNL     1      20.954  47.623  49.254  1.00  0.00     0.164 HD
ENDROOT
BRANCH   1   7
HETATM    7  C   UNL     1      23.726  45.001  49.618  1.00  0.00     0.163 C 
BRANCH   7   8
HETATM    8  C   UNL     1      24.602  45.340  50.792  1.00  0.00    -0.035 A 
HETATM    9  C   UNL     1      24.895  46.669  51.107  1.00  0.00     0.028 A 
HETATM   10  C   UNL     1      25.708  46.928  52.198  1.00  0.00     0.120 A 
HETATM   11  N   UNL     1      26.249  45.969  52.980  1.00  0.00    -0.237 NA
HETATM   12  C   UNL     1      25.962  44.695  52.661  1.00  0.00     0.165 A 
HETATM   13  C   UNL     1      25.138  44.336  51.603  1.00  0.00     0.066 A 
BRANCH  12  14
HETATM   14  O   UNL     1      26.446  43.657  53.423  1.00  0.00    -0.324 OA
BRANCH  14  15
HETATM   15  C   UNL     1      27.855  43.362  53.404  1.00  0.00     0.058 C 
HETATM   16  C   UNL     1      28.621  44.038  54.551  1.00  0.00     0.045 C 
HETATM   17  C   UNL     1      28.498  43.637  52.035  1.00  0.00     0.045 C 
HETATM   18  C   UNL     1      27.911  41.841  53.646  1.00  0.00     0.045 C 
ENDBRANCH  14  15
ENDBRANCH  12  14
ENDBRANCH   7   8
ENDBRANCH   1   7
BRANCH   3  19
HETATM   19  C   UNL     1      19.240  46.655  48.527  1.00  0.00     0.100 A 
HETATM   20  C   UNL     1      18.288  47.798  48.793  1.00  0.00     0.049 A 
HETATM   21  C   UNL     1      18.667  47.428  47.366  1.00  0.00     0.024 A 
HETATM   22  C   UNL     1      18.779  49.202  48.959  1.00  0.00    -0.045 A 
HETATM   23  C   UNL     1      19.384  48.595  46.706  1.00  0.00     0.046 A 
HETATM   24  C   UNL     1      19.402  49.659  47.781  1.00  0.00    -0.051 A 
HETATM   25  C   UNL     1      19.951  50.927  47.692  1.00  0.00     0.007 A 
HETATM   26  C   UNL     1      19.878  51.758  48.812  1.00  0.00     0.001 A 
HETATM   27  C   UNL     1      19.263  51.314  49.992  1.00  0.00     0.001 A 
HETATM   28  C   UNL     1      18.712  50.031  50.069  1.00  0.00     0.008 A 
ENDBRANCH   3  19
TORSDOF 5
ENDMDL
MODEL 10
REMARK VINA RESULT:      -7.7      2.186      9.496
REMARK  5 active torsions:
REMARK  status: ('A' for Active; 'I' for Inactive)
REMARK    1  A    between atoms: C_2  and  O_3 
REMARK    2  A    between atoms: O_3  and  C_4 
REMARK    3  A    between atoms: C_8  and  C_9 
REMARK    4  A    between atoms: C_9  and  N_10 
REMARK       I    between atoms: N_10  and  C_11 
REMARK       I    between atoms: C_11  and  N_12 
REMARK    5  A    between atoms: N_12  and  C_13 
ROOT
HETATM    1  N   UNL     1      25.609  45.879  51.094  1.00  0.00    -0.339 N 
HETATM    2  C   UNL     1      25.361  45.449  52.373  1.00  0.00     0.316 C 
HETATM    3  N   UNL     1      26.386  45.782  53.224  1.00  0.00    -0.337 N 
HETATM    4  O   UNL     1      24.356  44.836  52.708  1.00  0.00    -0.247 OA
HETATM    5  H   UNL     1      26.236  46.663  50.995  1.00  0.00     0.164 HD
HETATM    6  H   UNL     1      27.261  46.073  52.811  1.00  0.00     0.164 HD
ENDROOT
BRANCH   1   7
HETATM    7  C   UNL     1      24.650  45.668  50.034  1.00  0.00     0.163 C 
BRANCH   7   8
HETATM    8  C   UNL     1      24.280  46.962  49.361  1.00  0.00    -0.035 A 
HETATM    9  C   UNL     1      25.120  48.075  49.439  1.00  0.00     0.028 A 
HETATM   10  C   UNL     1      24.732  49.244  48.804  1.00  0.00     0.120 A 
HETATM   11  N   UNL     1      23.579  49.380  48.116  1.00  0.00    -0.237 NA
HETATM   12  C   UNL     1      22.779  48.302  48.055  1.00  0.00     0.165 A 
HETATM   13  C   UNL     1      23.091  47.081  48.636  1.00  0.00     0.066 A 
BRANCH  12  14
HETATM   14  O   UNL     1      21.599  48.344  47.348  1.00  0.00    -0.324 OA
BRANCH  14  15
HETATM   15  C   UNL     1      20.412  48.854  47.982  1.00  0.00     0.058 C 
HETATM   16  C   UNL     1      20.643  49.246  49.449  1.00  0.00     0.045 C 
HETATM   17  C   UNL     1      19.204  47.921  47.813  1.00  0.00     0.045 C 
HETATM   18  C   UNL     1      20.111  50.149  47.202  1.00  0.00     0.045 C 
ENDBRANCH  14  15
ENDBRANCH  12  14
ENDBRANCH   7   8
ENDBRANCH   1   7
BRANCH   3  19
HETATM   19  C   UNL     1      26.401  45.409  54.607  1.00  0.00     0.100 A 
HETATM   20  C   UNL     1      26.833  44.027  55.042  1.00  0.00     0.049 A 
HETATM   21  C   UNL     1      27.695  45.239  55.363  1.00  0.00     0.024 A 
HETATM   22  C   UNL     1      27.700  43.170  54.173  1.00  0.00    -0.045 A 
HETATM   23  C   UNL     1      29.047  45.103  54.681  1.00  0.00     0.046 A 
HETATM   24  C   UNL     1      28.955  43.774  53.965  1.00  0.00    -0.051 A 
HETATM   25  C   UNL     1      29.929  43.178  53.180  1.00  0.00     0.007 A 
HETATM   26  C   UNL     1      29.638  41.948  52.588  1.00  0.00     0.001 A 
HETATM   27  C   UNL     1      28.391  41.337  52.786  1.00  0.00     0.001 A 
HETATM   28  C   UNL     1      27.416  41.948  53.580  1.00  0.00     0.008 A 
ENDBRANCH   3  19
TORSDOF 5
ENDMDL
