MODEL 1
REMARK VINA RESULT:      -8.9      0.000      0.000
REMARK  7 active torsions:
REMARK  status: ('A' for Active; 'I' for Inactive)
REMARK    1  A    between atoms: C_2  and  O_3 
REMARK    2  A    between atoms: O_3  and  C_4 
REMARK    3  A    between atoms: C_7  and  N_8 
REMARK    4  A    between atoms: N_8  and  C_9 
REMARK    5  A    between atoms: C_9  and  C_10 
REMARK       I    between atoms: C_10  and  N_11 
REMARK    6  A    between atoms: N_11  and  N_12 
REMARK    7  A    between atoms: C_13  and  C_14 
ROOT
HETATM    1  C   UNL     1      26.557  43.918  50.623  1.00  0.00     0.255 C 
HETATM    2  N   UNL     1      25.645  44.900  51.020  1.00  0.00    -0.246 N 
HETATM    3  O   UNL     1      27.254  43.963  49.611  1.00  0.00    -0.270 OA
HETATM    4  H   UNL     1      24.937  44.636  51.699  1.00  0.00     0.192 HD
ENDROOT
BRANCH   2   5
HETATM    5  N   UNL     1      25.255  45.948  50.215  1.00  0.00    -0.184 NA
HETATM    6  C   UNL     1      25.787  47.109  50.441  1.00  0.00     0.153 C 
BRANCH   6   7
HETATM    7  C   UNL     1      25.491  48.236  49.573  1.00  0.00     0.018 A 
HETATM    8  C   UNL     1      24.223  48.720  49.104  1.00  0.00     0.004 A 
HETATM    9  C   UNL     1      24.475  49.812  48.273  1.00  0.00     0.043 A 
HETATM   10  C   UNL     1      22.879  48.331  49.295  1.00  0.00     0.014 A 
HETATM   11  C   UNL     1      23.460  50.529  47.626  1.00  0.00     0.030 A 
HETATM   12  N   UNL     1      25.835  49.993  48.240  1.00  0.00    -0.358 N 
HETATM   13  C   UNL     1      22.140  50.119  47.834  1.00  0.00     0.002 A 
HETATM   14  C   UNL     1      21.851  49.035  48.658  1.00  0.00     0.001 A 
HETATM   15  H   UNL     1      26.297  50.715  47.706  1.00  0.00     0.166 HD
HETATM   16  C   UNL     1      26.467  49.052  49.014  1.00  0.00     0.018 A 
HETATM   17  C   UNL     1      27.949  49.021  49.132  1.00  0.00     0.069 C 
ENDBRANCH   6   7
ENDBRANCH   2   5
BRANCH   1  18
HETATM   18  C   UNL     1      26.615  42.736  51.595  1.00  0.00     0.224 C 
BRANCH  18  19
HETATM   19  N   UNL     1      26.564  43.196  52.982  1.00  0.00    -0.381 N 
HETATM   20  H   UNL     1      25.879  42.731  53.573  1.00  0.00     0.160 HD
BRANCH  19  21
HETATM   21  C   UNL     1      27.716  43.600  53.650  1.00  0.00     0.028 A 
HETATM   22  C   UNL     1      27.794  44.752  54.440  1.00  0.00     0.032 A 
HETATM   23  C   UNL     1      28.946  45.062  55.178  1.00  0.00     0.039 A 
HETATM   24  C   UNL     1      30.043  44.206  55.162  1.00  0.00     0.068 A 
HETATM   25  C   UNL     1      29.977  43.047  54.392  1.00  0.00     0.039 A 
HETATM   26  C   UNL     1      28.824  42.742  53.657  1.00  0.00     0.032 A 
BRANCH  24  27
HETATM   27  O   UNL     1      31.212  44.379  55.849  1.00  0.00    -0.352 OA
BRANCH  27  28
HETATM   28  C   UNL     1      31.336  43.692  57.094  1.00  0.00     0.171 C 
HETATM   29  C   UNL     1      31.116  44.697  58.211  1.00  0.00     0.034 C 
ENDBRANCH  27  28
ENDBRANCH  24  27
ENDBRANCH  19  21
ENDBRANCH  18  19
ENDBRANCH   1  18
TORSDOF 7
ENDMDL
MODEL 2
REMARK VINA RESULT:      -8.8      2.424      8.853
REMARK  7 active torsions:
REMARK  status: ('A' for Active; 'I' for Inactive)
REMARK    1  A    between atoms: C_2  and  O_3 
REMARK    2  A    between atoms: O_3  and  C_4 
REMARK    3  A    between atoms: C_7  and  N_8 
REMARK    4  A    between atoms: N_8  and  C_9 
REMARK    5  A    between atoms: C_9  and  C_10 
REMARK       I    between atoms: C_10  and  N_11 
REMARK    6  A    between atoms: N_11  and  N_12 
REMARK    7  A    between atoms: C_13  and  C_14 
ROOT
HETATM    1  C   UNL     1      25.630  43.481  51.811  1.00  0.00     0.255 C 
HETATM    2  N   UNL     1      26.984  43.497  52.158  1.00  0.00    -0.246 N 
HETATM    3  O   UNL     1      24.712  43.903  52.512  1.00  0.00    -0.270 OA
HETATM    4  H   UNL     1      27.608  42.882  51.644  1.00  0.00     0.192 HD
ENDROOT
BRANCH   2   5
HETATM    5  N   UNL     1      27.443  43.794  53.423  1.00  0.00    -0.184 NA
HETATM    6  C   UNL     1      28.304  44.757  53.538  1.00  0.00     0.153 C 
BRANCH   6   7
HETATM    7  C   UNL     1      28.760  45.184  54.851  1.00  0.00     0.018 A 
HETATM    8  C   UNL     1      29.779  44.621  55.692  1.00  0.00     0.004 A 
HETATM    9  C   UNL     1      29.818  45.378  56.863  1.00  0.00     0.043 A 
HETATM   10  C   UNL     1      30.670  43.532  55.579  1.00  0.00     0.014 A 
HETATM   11  C   UNL     1      30.694  45.103  57.921  1.00  0.00     0.030 A 
HETATM   12  N   UNL     1      28.870  46.364  56.742  1.00  0.00    -0.358 N 
HETATM   13  C   UNL     1      31.562  44.017  57.780  1.00  0.00     0.002 A 
HETATM   14  C   UNL     1      31.553  43.241  56.625  1.00  0.00     0.001 A 
HETATM   15  H   UNL     1      28.679  47.055  57.453  1.00  0.00     0.166 HD
HETATM   16  C   UNL     1      28.218  46.264  55.538  1.00  0.00     0.018 A 
HETATM   17  C   UNL     1      27.131  47.208  55.170  1.00  0.00     0.069 C 
ENDBRANCH   6   7
ENDBRANCH   2   5
BRANCH   1  18
HETATM   18  C   UNL     1      25.380  42.870  50.429  1.00  0.00     0.224 C 
BRANCH  18  19
HETATM   19  N   UNL     1      25.677  43.833  49.370  1.00  0.00    -0.381 N 
HETATM   20  H   UNL     1      25.581  43.483  48.420  1.00  0.00     0.160 HD
BRANCH  19  21
HETATM   21  C   UNL     1      25.368  45.183  49.516  1.00  0.00     0.028 A 
HETATM   22  C   UNL     1      26.326  46.182  49.715  1.00  0.00     0.032 A 
HETATM   23  C   UNL     1      25.977  47.541  49.752  1.00  0.00     0.039 A 
HETATM   24  C   UNL     1      24.655  47.931  49.563  1.00  0.00     0.068 A 
HETATM   25  C   UNL     1      23.690  46.949  49.349  1.00  0.00     0.039 A 
HETATM   26  C   UNL     1      24.044  45.595  49.313  1.00  0.00     0.032 A 
BRANCH  24  27
HETATM   27  O   UNL     1      24.186  49.215  49.554  1.00  0.00    -0.352 OA
BRANCH  27  28
HETATM   28  C   UNL     1      24.462  49.994  48.391  1.00  0.00     0.171 C 
HETATM   29  C   UNL     1      23.139  50.347  47.735  1.00  0.00     0.034 C 
ENDBRANCH  27  28
ENDBRANCH  24  27
ENDBRANCH  19  21
ENDBRANCH  18  19
ENDBRANCH   1  18
TORSDOF 7
ENDMDL
MODEL 3
REMARK VINA RESULT:      -8.7      3.557     10.193
REMARK  7 active torsions:
REMARK  status: ('A' for Active; 'I' for Inactive)
REMARK    1  A    between atoms: C_2  and  O_3 
REMARK    2  A    between atoms: O_3  and  C_4 
REMARK    3  A    between atoms: C_7  and  N_8 
REMARK    4  A    between atoms: N_8  and  C_9 
REMARK    5  A    between atoms: C_9  and  C_10 
REMARK       I    between atoms: C_10  and  N_11 
REMARK    6  A    between atoms: N_11  and  N_12 
REMARK    7  A    between atoms: C_13  and  C_14 
ROOT
HETATM    1  C   UNL     1      24.899  47.664  50.177  1.00  0.00     0.255 C 
HETATM    2  N   UNL     1      25.068  46.758  51.228  1.00  0.00    -0.246 N 
HETATM    3  O   UNL     1      25.737  48.482  49.802  1.00  0.00    -0.270 OA
HETATM    4  H   UNL     1      24.232  46.338  51.625  1.00  0.00     0.192 HD
ENDROOT
BRANCH   2   5
HETATM    5  N   UNL     1      26.118  46.812  52.119  1.00  0.00    -0.184 NA
HETATM    6  C   UNL     1      26.023  46.104  53.202  1.00  0.00     0.153 C 
BRANCH   6   7
HETATM    7  C   UNL     1      27.131  46.042  54.140  1.00  0.00     0.018 A 
HETATM    8  C   UNL     1      28.166  45.054  54.267  1.00  0.00     0.004 A 
HETATM    9  C   UNL     1      28.975  45.433  55.339  1.00  0.00     0.043 A 
HETATM   10  C   UNL     1      28.492  43.864  53.581  1.00  0.00     0.014 A 
HETATM   11  C   UNL     1      30.084  44.688  55.759  1.00  0.00     0.030 A 
HETATM   12  N   UNL     1      28.462  46.603  55.841  1.00  0.00    -0.358 N 
HETATM   13  C   UNL     1      30.380  43.513  55.062  1.00  0.00     0.002 A 
HETATM   14  C   UNL     1      29.597  43.105  53.986  1.00  0.00     0.001 A 
HETATM   15  H   UNL     1      28.852  47.099  56.630  1.00  0.00     0.166 HD
HETATM   16  C   UNL     1      27.349  46.987  55.136  1.00  0.00     0.018 A 
HETATM   17  C   UNL     1      26.596  48.217  55.494  1.00  0.00     0.069 C 
ENDBRANCH   6   7
ENDBRANCH   2   5
BRANCH   1  18
HETATM   18  C   UNL     1      23.528  47.543  49.506  1.00  0.00     0.224 C 
BRANCH  18  19
HETATM   19  N   UNL     1      23.091  48.833  48.973  1.00  0.00    -0.381 N 
HETATM   20  H   UNL     1      23.478  49.086  48.067  1.00  0.00     0.160 HD
BRANCH  19  21
HETATM   21  C   UNL     1      21.801  49.305  49.196  1.00  0.00     0.028 A 
HETATM   22  C   UNL     1      20.664  48.490  49.196  1.00  0.00     0.032 A 
HETATM   23  C   UNL     1      19.397  48.993  49.529  1.00  0.00     0.039 A 
HETATM   24  C   UNL     1      19.246  50.327  49.897  1.00  0.00     0.068 A 
HETATM   25  C   UNL     1      20.370  51.148  49.917  1.00  0.00     0.039 A 
HETATM   26  C   UNL     1      21.632  50.641  49.583  1.00  0.00     0.032 A 
BRANCH  24  27
HETATM   27  O   UNL     1      18.077  50.935  50.263  1.00  0.00    -0.352 OA
BRANCH  27  28
HETATM   28  C   UNL     1      17.931  52.312  49.917  1.00  0.00     0.171 C 
HETATM   29  C   UNL     1      16.455  52.589  49.699  1.00  0.00     0.034 C 
ENDBRANCH  27  28
ENDBRANCH  24  27
ENDBRANCH  19  21
ENDBRANCH  18  19
ENDBRANCH   1  18
TORSDOF 7
ENDMDL
MODEL 4
REMARK VINA RESULT:      -8.3      2.751     10.085
REMARK  7 active torsions:
REMARK  status: ('A' for Active; 'I' for Inactive)
REMARK    1  A    between atoms: C_2  and  O_3 
REMARK    2  A    between atoms: O_3  and  C_4 
REMARK    3  A    between atoms: C_7  and  N_8 
REMARK    4  A    between atoms: N_8  and  C_9 
REMARK    5  A    between atoms: C_9  and  C_10 
REMARK       I    between atoms: C_10  and  N_11 
REMARK    6  A    between atoms: N_11  and  N_12 
REMARK    7  A    between atoms: C_13  and  C_14 
ROOT
HETATM    1  C   UNL     1      25.643  46.232  49.999  1.00  0.00     0.255 C 
HETATM    2  N   UNL     1      25.638  45.277  51.020  1.00  0.00    -0.246 N 
HETATM    3  O   UNL     1      26.641  46.617  49.391  1.00  0.00    -0.270 OA
HETATM    4  H   UNL     1      24.825  45.246  51.629  1.00  0.00     0.192 HD
ENDROOT
BRANCH   2   5
HETATM    5  N   UNL     1      26.781  44.800  51.623  1.00  0.00    -0.184 NA
HETATM    6  C   UNL     1      26.651  44.198  52.764  1.00  0.00     0.153 C 
BRANCH   6   7
HETATM    7  C   UNL     1      27.802  43.589  53.411  1.00  0.00     0.018 A 
HETATM    8  C   UNL     1      28.696  44.140  54.391  1.00  0.00     0.004 A 
HETATM    9  C   UNL     1      29.655  43.166  54.674  1.00  0.00     0.043 A 
HETATM   10  C   UNL     1      28.793  45.378  55.062  1.00  0.00     0.014 A 
HETATM   11  C   UNL     1      30.700  43.367  55.585  1.00  0.00     0.030 A 
HETATM   12  N   UNL     1      29.358  42.068  53.906  1.00  0.00    -0.358 N 
HETATM   13  C   UNL     1      30.771  44.604  56.232  1.00  0.00     0.002 A 
HETATM   14  C   UNL     1      29.830  45.597  55.976  1.00  0.00     0.001 A 
HETATM   15  H   UNL     1      29.896  41.214  53.908  1.00  0.00     0.166 HD
HETATM   16  C   UNL     1      28.246  42.301  53.136  1.00  0.00     0.018 A 
HETATM   17  C   UNL     1      27.726  41.269  52.201  1.00  0.00     0.069 C 
ENDBRANCH   6   7
ENDBRANCH   2   5
BRANCH   1  18
HETATM   18  C   UNL     1      24.246  46.777  49.690  1.00  0.00     0.224 C 
BRANCH  18  19
HETATM   19  N   UNL     1      24.308  48.185  49.301  1.00  0.00    -0.381 N 
HETATM   20  H   UNL     1      25.072  48.434  48.679  1.00  0.00     0.160 HD
BRANCH  19  21
HETATM   21  C   UNL     1      23.148  48.932  49.111  1.00  0.00     0.028 A 
HETATM   22  C   UNL     1      23.134  50.324  48.977  1.00  0.00     0.032 A 
HETATM   23  C   UNL     1      21.954  51.023  48.682  1.00  0.00     0.039 A 
HETATM   24  C   UNL     1      20.759  50.335  48.489  1.00  0.00     0.068 A 
HETATM   25  C   UNL     1      20.759  48.947  48.605  1.00  0.00     0.039 A 
HETATM   26  C   UNL     1      21.940  48.254  48.899  1.00  0.00     0.032 A 
BRANCH  24  27
HETATM   27  O   UNL     1      19.549  50.891  48.178  1.00  0.00    -0.352 OA
BRANCH  27  28
HETATM   28  C   UNL     1      19.363  52.263  48.523  1.00  0.00     0.171 C 
HETATM   29  C   UNL     1      18.256  52.343  49.559  1.00  0.00     0.034 C 
ENDBRANCH  27  28
ENDBRANCH  24  27
ENDBRANCH  19  21
ENDBRANCH  18  19
ENDBRANCH   1  18
TORSDOF 7
ENDMDL
MODEL 5
REMARK VINA RESULT:      -8.1      3.654     10.015
REMARK  7 active torsions:
REMARK  status: ('A' for Active; 'I' for Inactive)
REMARK    1  A    between atoms: C_2  and  O_3 
REMARK    2  A    between atoms: O_3  and  C_4 
REMARK    3  A    between atoms: C_7  and  N_8 
REMARK    4  A    between atoms: N_8  and  C_9 
REMARK    5  A    between atoms: C_9  and  C_10 
REMARK       I    between atoms: C_10  and  N_11 
REMARK    6  A    between atoms: N_11  and  N_12 
REMARK    7  A    between atoms: C_13  and  C_14 
ROOT
HETATM    1  C   UNL     1      24.991  49.198  48.785  1.00  0.00     0.255 C 
HETATM    2  N   UNL     1      24.532  48.201  49.651  1.00  0.00    -0.246 N 
HETATM    3  O   UNL     1      26.172  49.468  48.574  1.00  0.00    -0.270 OA
HETATM    4  H   UNL     1      23.565  48.253  49.957  1.00  0.00     0.192 HD
ENDROOT
BRANCH   2   5
HETATM    5  N   UNL     1      25.344  47.534  50.543  1.00  0.00    -0.184 NA
HETATM    6  C   UNL     1      24.815  46.572  51.232  1.00  0.00     0.153 C 
BRANCH   6   7
HETATM    7  C   UNL     1      25.634  45.767  52.123  1.00  0.00     0.018 A 
HETATM    8  C   UNL     1      26.464  46.177  53.221  1.00  0.00     0.004 A 
HETATM    9  C   UNL     1      27.065  45.030  53.740  1.00  0.00     0.043 A 
HETATM   10  C   UNL     1      26.775  47.416  53.822  1.00  0.00     0.014 A 
HETATM   11  C   UNL     1      27.956  45.057  54.821  1.00  0.00     0.030 A 
HETATM   12  N   UNL     1      26.618  43.965  52.998  1.00  0.00    -0.358 N 
HETATM   13  C   UNL     1      28.246  46.299  55.393  1.00  0.00     0.002 A 
HETATM   14  C   UNL     1      27.663  47.464  54.903  1.00  0.00     0.001 A 
HETATM   15  H   UNL     1      26.900  43.008  53.154  1.00  0.00     0.166 HD
HETATM   16  C   UNL     1      25.757  44.387  52.016  1.00  0.00     0.018 A 
HETATM   17  C   UNL     1      25.145  43.424  51.063  1.00  0.00     0.069 C 
ENDBRANCH   6   7
ENDBRANCH   2   5
BRANCH   1  18
HETATM   18  C   UNL     1      23.851  49.952  48.095  1.00  0.00     0.224 C 
BRANCH  18  19
HETATM   19  N   UNL     1      22.594  49.211  48.199  1.00  0.00    -0.381 N 
HETATM   20  H   UNL     1      22.687  48.212  48.362  1.00  0.00     0.160 HD
BRANCH  19  21
HETATM   21  C   UNL     1      21.466  49.784  48.779  1.00  0.00     0.028 A 
HETATM   22  C   UNL     1      21.119  51.132  48.639  1.00  0.00     0.032 A 
HETATM   23  C   UNL     1      19.918  51.640  49.155  1.00  0.00     0.039 A 
HETATM   24  C   UNL     1      19.020  50.798  49.805  1.00  0.00     0.068 A 
HETATM   25  C   UNL     1      19.344  49.450  49.941  1.00  0.00     0.039 A 
HETATM   26  C   UNL     1      20.545  48.948  49.424  1.00  0.00     0.032 A 
BRANCH  24  27
HETATM   27  O   UNL     1      17.812  51.160  50.334  1.00  0.00    -0.352 OA
BRANCH  27  28
HETATM   28  C   UNL     1      16.815  51.605  49.415  1.00  0.00     0.171 C 
HETATM   29  C   UNL     1      16.225  52.898  49.950  1.00  0.00     0.034 C 
ENDBRANCH  27  28
ENDBRANCH  24  27
ENDBRANCH  19  21
ENDBRANCH  18  19
ENDBRANCH   1  18
TORSDOF 7
ENDMDL
MODEL 6
REMARK VINA RESULT:      -8.0      2.784      9.521
REMARK  7 active torsions:
REMARK  status: ('A' for Active; 'I' for Inactive)
REMARK    1  A    between atoms: C_2  and  O_3 
REMARK    2  A    between atoms: O_3  and  C_4 
REMARK    3  A    between atoms: C_7  and  N_8 
REMARK    4  A    between atoms: N_8  and  C_9 
REMARK    5  A    between atoms: C_9  and  C_10 
REMARK       I    between atoms: C_10  and  N_11 
REMARK    6  A    between atoms: N_11  and  N_12 
REMARK    7  A    between atoms: C_13  and  C_14 
ROOT
HETATM    1  C   UNL     1      24.309  44.307  51.273  1.00  0.00     0.255 C 
HETATM    2  N   UNL     1      24.728  45.364  52.086  1.00  0.00    -0.246 N 
HETATM    3  O   UNL     1      24.507  43.115  51.498  1.00  0.00    -0.270 OA
HETATM    4  H   UNL     1      24.760  46.291  51.673  1.00  0.00     0.192 HD
ENDROOT
BRANCH   2   5
HETATM    5  N   UNL     1      25.606  45.213  53.138  1.00  0.00    -0.184 NA
HETATM    6  C   UNL     1      26.706  45.899  53.104  1.00  0.00     0.153 C 
BRANCH   6   7
HETATM    7  C   UNL     1      27.633  45.860  54.223  1.00  0.00     0.018 A 
HETATM    8  C   UNL     1      28.671  44.911  54.516  1.00  0.00     0.004 A 
HETATM    9  C   UNL     1      29.261  45.298  55.720  1.00  0.00     0.043 A 
HETATM   10  C   UNL     1      29.164  43.750  53.881  1.00  0.00     0.014 A 
HETATM   11  C   UNL     1      30.310  44.588  56.318  1.00  0.00     0.030 A 
HETATM   12  N   UNL     1      28.618  46.435  56.141  1.00  0.00    -0.358 N 
HETATM   13  C   UNL     1      30.775  43.442  55.667  1.00  0.00     0.002 A 
HETATM   14  C   UNL     1      30.212  43.028  54.463  1.00  0.00     0.001 A 
HETATM   15  H   UNL     1      28.841  46.929  56.993  1.00  0.00     0.166 HD
HETATM   16  C   UNL     1      27.631  46.790  55.256  1.00  0.00     0.018 A 
HETATM   17  C   UNL     1      26.775  47.982  55.493  1.00  0.00     0.069 C 
ENDBRANCH   6   7
ENDBRANCH   2   5
BRANCH   1  18
HETATM   18  C   UNL     1      23.550  44.782  50.030  1.00  0.00     0.224 C 
BRANCH  18  19
HETATM   19  N   UNL     1      24.053  46.077  49.573  1.00  0.00    -0.381 N 
HETATM   20  H   UNL     1      25.001  46.074  49.204  1.00  0.00     0.160 HD
BRANCH  19  21
HETATM   21  C   UNL     1      23.208  47.007  48.973  1.00  0.00     0.028 A 
HETATM   22  C   UNL     1      22.044  46.664  48.277  1.00  0.00     0.032 A 
HETATM   23  C   UNL     1      21.169  47.641  47.779  1.00  0.00     0.039 A 
HETATM   24  C   UNL     1      21.430  48.991  47.992  1.00  0.00     0.068 A 
HETATM   25  C   UNL     1      22.577  49.350  48.695  1.00  0.00     0.039 A 
HETATM   26  C   UNL     1      23.447  48.370  49.190  1.00  0.00     0.032 A 
BRANCH  24  27
HETATM   27  O   UNL     1      20.652  50.037  47.580  1.00  0.00    -0.352 OA
BRANCH  27  28
HETATM   28  C   UNL     1      19.640  50.482  48.483  1.00  0.00     0.171 C 
HETATM   29  C   UNL     1      19.714  51.996  48.564  1.00  0.00     0.034 C 
ENDBRANCH  27  28
ENDBRANCH  24  27
ENDBRANCH  19  21
ENDBRANCH  18  19
ENDBRANCH   1  18
TORSDOF 7
ENDMDL
MODEL 7
REMARK VINA RESULT:      -7.8      5.026      9.302
REMARK  7 active torsions:
REMARK  status: ('A' for Active; 'I' for Inactive)
REMARK    1  A    between atoms: C_2  and  O_3 
REMARK    2  A    between atoms: O_3  and  C_4 
REMARK    3  A    between atoms: C_7  and  N_8 
REMARK    4  A    between atoms: N_8  and  C_9 
REMARK    5  A    between atoms: C_9  and  C_10 
REMARK       I    between atoms: C_10  and  N_11 
REMARK    6  A    between atoms: N_11  and  N_12 
REMARK    7  A    between atoms: C_13  and  C_14 
ROOT
HETATM    1  C   UNL     1      26.400  42.411  51.465  1.00  0.00     0.255 C 
HETATM    2  N   UNL     1      27.375  42.039  52.395  1.00  0.00    -0.246 N 
HETATM    3  O   UNL     1      25.818  43.494  51.439  1.00  0.00    -0.270 OA
HETATM    4  H   UNL     1      27.577  41.049  52.494  1.00  0.00     0.192 HD
ENDROOT
BRANCH   2   5
HETATM    5  N   UNL     1      27.655  42.762  53.535  1.00  0.00    -0.184 NA
HETATM    6  C   UNL     1      28.643  43.600  53.486  1.00  0.00     0.153 C 
BRANCH   6   7
HETATM    7  C   UNL     1      28.936  44.461  54.620  1.00  0.00     0.018 A 
HETATM    8  C   UNL     1      29.899  44.290  55.672  1.00  0.00     0.004 A 
HETATM    9  C   UNL     1      29.771  45.378  56.536  1.00  0.00     0.043 A 
HETATM   10  C   UNL     1      30.865  43.308  55.984  1.00  0.00     0.014 A 
HETATM   11  C   UNL     1      30.551  45.534  57.688  1.00  0.00     0.030 A 
HETATM   12  N   UNL     1      28.779  46.182  56.032  1.00  0.00    -0.358 N 
HETATM   13  C   UNL     1      31.497  44.545  57.972  1.00  0.00     0.002 A 
HETATM   14  C   UNL     1      31.655  43.446  57.131  1.00  0.00     0.001 A 
HETATM   15  H   UNL     1      28.472  47.042  56.464  1.00  0.00     0.166 HD
HETATM   16  C   UNL     1      28.260  45.647  54.880  1.00  0.00     0.018 A 
HETATM   17  C   UNL     1      27.157  46.321  54.146  1.00  0.00     0.069 C 
ENDBRANCH   6   7
ENDBRANCH   2   5
BRANCH   1  18
HETATM   18  C   UNL     1      26.110  41.311  50.440  1.00  0.00     0.224 C 
BRANCH  18  19
HETATM   19  N   UNL     1      26.861  40.095  50.751  1.00  0.00    -0.381 N 
HETATM   20  H   UNL     1      26.565  39.599  51.588  1.00  0.00     0.160 HD
BRANCH  19  21
HETATM   21  C   UNL     1      27.348  39.270  49.741  1.00  0.00     0.028 A 
HETATM   22  C   UNL     1      26.587  38.853  48.643  1.00  0.00     0.032 A 
HETATM   23  C   UNL     1      27.151  38.109  47.596  1.00  0.00     0.039 A 
HETATM   24  C   UNL     1      28.505  37.786  47.614  1.00  0.00     0.068 A 
HETATM   25  C   UNL     1      29.280  38.206  48.693  1.00  0.00     0.039 A 
HETATM   26  C   UNL     1      28.712  38.949  49.735  1.00  0.00     0.032 A 
BRANCH  24  27
HETATM   27  O   UNL     1      29.180  37.087  46.652  1.00  0.00    -0.352 OA
BRANCH  27  28
HETATM   28  C   UNL     1      28.865  37.392  45.294  1.00  0.00     0.171 C 
HETATM   29  C   UNL     1      28.812  36.088  44.518  1.00  0.00     0.034 C 
ENDBRANCH  27  28
ENDBRANCH  24  27
ENDBRANCH  19  21
ENDBRANCH  18  19
ENDBRANCH   1  18
TORSDOF 7
ENDMDL
MODEL 8
REMARK VINA RESULT:      -7.7      1.947      2.870
REMARK  7 active torsions:
REMARK  status: ('A' for Active; 'I' for Inactive)
REMARK    1  A    between atoms: C_2  and  O_3 
REMARK    2  A    between atoms: O_3  and  C_4 
REMARK    3  A    between atoms: C_7  and  N_8 
REMARK    4  A    between atoms: N_8  and  C_9 
REMARK    5  A    between atoms: C_9  and  C_10 
REMARK       I    between atoms: C_10  and  N_11 
REMARK    6  A    between atoms: N_11  and  N_12 
REMARK    7  A    between atoms: C_13  and  C_14 
ROOT
HETATM    1  C   UNL     1      25.039  43.630  50.981  1.00  0.00     0.255 C 
HETATM    2  N   UNL     1      25.337  44.694  50.125  1.00  0.00    -0.246 N 
HETATM    3  O   UNL     1      23.946  43.425  51.507  1.00  0.00    -0.270 OA
HETATM    4  H   UNL     1      26.316  44.921  49.981  1.00  0.00     0.192 HD
ENDROOT
BRANCH   2   5
HETATM    5  N   UNL     1      24.501  45.772  49.930  1.00  0.00    -0.184 NA
HETATM    6  C   UNL     1      23.701  45.734  48.910  1.00  0.00     0.153 C 
BRANCH   6   7
HETATM    7  C   UNL     1      22.729  46.793  48.696  1.00  0.00     0.018 A 
HETATM    8  C   UNL     1      22.928  48.213  48.617  1.00  0.00     0.004 A 
HETATM    9  C   UNL     1      21.676  48.800  48.429  1.00  0.00     0.043 A 
HETATM   10  C   UNL     1      24.051  49.065  48.698  1.00  0.00     0.014 A 
HETATM   11  C   UNL     1      21.490  50.184  48.319  1.00  0.00     0.030 A 
HETATM   12  N   UNL     1      20.753  47.784  48.388  1.00  0.00    -0.358 N 
HETATM   13  C   UNL     1      22.621  51.001  48.405  1.00  0.00     0.002 A 
HETATM   14  C   UNL     1      23.886  50.451  48.590  1.00  0.00     0.001 A 
HETATM   15  H   UNL     1      19.761  47.926  48.266  1.00  0.00     0.166 HD
HETATM   16  C   UNL     1      21.365  46.567  48.550  1.00  0.00     0.018 A 
HETATM   17  C   UNL     1      20.580  45.305  48.560  1.00  0.00     0.069 C 
ENDBRANCH   6   7
ENDBRANCH   2   5
BRANCH   1  18
HETATM   18  C   UNL     1      26.236  42.705  51.216  1.00  0.00     0.224 C 
BRANCH  18  19
HETATM   19  N   UNL     1      27.489  43.459  51.206  1.00  0.00    -0.381 N 
HETATM   20  H   UNL     1      27.575  44.158  50.472  1.00  0.00     0.160 HD
BRANCH  19  21
HETATM   21  C   UNL     1      28.139  43.792  52.391  1.00  0.00     0.028 A 
HETATM   22  C   UNL     1      27.597  44.638  53.364  1.00  0.00     0.032 A 
HETATM   23  C   UNL     1      28.243  44.861  54.589  1.00  0.00     0.039 A 
HETATM   24  C   UNL     1      29.442  44.217  54.878  1.00  0.00     0.068 A 
HETATM   25  C   UNL     1      29.989  43.360  53.926  1.00  0.00     0.039 A 
HETATM   26  C   UNL     1      29.339  43.141  52.705  1.00  0.00     0.032 A 
BRANCH  24  27
HETATM   27  O   UNL     1      30.160  44.330  56.036  1.00  0.00    -0.352 OA
BRANCH  27  28
HETATM   28  C   UNL     1      30.421  45.653  56.506  1.00  0.00     0.171 C 
HETATM   29  C   UNL     1      29.883  45.765  57.921  1.00  0.00     0.034 C 
ENDBRANCH  27  28
ENDBRANCH  24  27
ENDBRANCH  19  21
ENDBRANCH  18  19
ENDBRANCH   1  18
TORSDOF 7
ENDMDL
MODEL 9
REMARK VINA RESULT:      -7.6      4.144      7.937
REMARK  7 active torsions:
REMARK  status: ('A' for Active; 'I' for Inactive)
REMARK    1  A    between atoms: C_2  and  O_3 
REMARK    2  A    between atoms: O_3  and  C_4 
REMARK    3  A    between atoms: C_7  and  N_8 
REMARK    4  A    between atoms: N_8  and  C_9 
REMARK    5  A    between atoms: C_9  and  C_10 
REMARK       I    between atoms: C_10  and  N_11 
REMARK    6  A    between atoms: N_11  and  N_12 
REMARK    7  A    between atoms: C_13  and  C_14 
ROOT
HETATM    1  C   UNL     1      24.799  44.372  50.812  1.00  0.00     0.255 C 
HETATM    2  N   UNL     1      26.107  44.856  50.730  1.00  0.00    -0.246 N 
HETATM    3  O   UNL     1      24.027  44.562  51.750  1.00  0.00    -0.270 OA
HETATM    4  H   UNL     1      26.732  44.413  50.062  1.00  0.00     0.192 HD
ENDROOT
BRANCH   2   5
HETATM    5  N   UNL     1      26.774  45.433  51.790  1.00  0.00    -0.184 NA
HETATM    6  C   UNL     1      26.858  44.749  52.889  1.00  0.00     0.153 C 
BRANCH   6   7
HETATM    7  C   UNL     1      27.625  45.257  54.014  1.00  0.00     0.018 A 
HETATM    8  C   UNL     1      28.782  44.700  54.657  1.00  0.00     0.004 A 
HETATM    9  C   UNL     1      29.127  45.552  55.707  1.00  0.00     0.043 A 
HETATM   10  C   UNL     1      29.569  43.544  54.458  1.00  0.00     0.014 A 
HETATM   11  C   UNL     1      30.209  45.310  56.562  1.00  0.00     0.030 A 
HETATM   12  N   UNL     1      28.226  46.588  55.703  1.00  0.00    -0.358 N 
HETATM   13  C   UNL     1      30.968  44.157  56.341  1.00  0.00     0.002 A 
HETATM   14  C   UNL     1      30.655  43.285  55.302  1.00  0.00     0.001 A 
HETATM   15  H   UNL     1      28.237  47.350  56.364  1.00  0.00     0.166 HD
HETATM   16  C   UNL     1      27.310  46.428  54.693  1.00  0.00     0.018 A 
HETATM   17  C   UNL     1      26.214  47.411  54.485  1.00  0.00     0.069 C 
ENDBRANCH   6   7
ENDBRANCH   2   5
BRANCH   1  18
HETATM   18  C   UNL     1      24.394  43.552  49.583  1.00  0.00     0.224 C 
BRANCH  18  19
HETATM   19  N   UNL     1      25.571  43.094  48.847  1.00  0.00    -0.381 N 
HETATM   20  H   UNL     1      26.353  43.745  48.823  1.00  0.00     0.160 HD
BRANCH  19  21
HETATM   21  C   UNL     1      25.943  41.753  48.844  1.00  0.00     0.028 A 
HETATM   22  C   UNL     1      26.256  41.036  47.685  1.00  0.00     0.032 A 
HETATM   23  C   UNL     1      26.727  39.716  47.740  1.00  0.00     0.039 A 
HETATM   24  C   UNL     1      26.921  39.090  48.968  1.00  0.00     0.068 A 
HETATM   25  C   UNL     1      26.627  39.795  50.133  1.00  0.00     0.039 A 
HETATM   26  C   UNL     1      26.158  41.112  50.072  1.00  0.00     0.032 A 
BRANCH  24  27
HETATM   27  O   UNL     1      27.391  37.821  49.161  1.00  0.00    -0.352 OA
BRANCH  27  28
HETATM   28  C   UNL     1      28.595  37.688  49.917  1.00  0.00     0.171 C 
HETATM   29  C   UNL     1      29.748  38.171  49.055  1.00  0.00     0.034 C 
ENDBRANCH  27  28
ENDBRANCH  24  27
ENDBRANCH  19  21
ENDBRANCH  18  19
ENDBRANCH   1  18
TORSDOF 7
ENDMDL
MODEL 10
REMARK VINA RESULT:      -7.6      5.232      9.866
REMARK  7 active torsions:
REMARK  status: ('A' for Active; 'I' for Inactive)
REMARK    1  A    between atoms: C_2  and  O_3 
REMARK    2  A    between atoms: O_3  and  C_4 
REMARK    3  A    between atoms: C_7  and  N_8 
REMARK    4  A    between atoms: N_8  and  C_9 
REMARK    5  A    between atoms: C_9  and  C_10 
REMARK       I    between atoms: C_10  and  N_11 
REMARK    6  A    between atoms: N_11  and  N_12 
REMARK    7  A    between atoms: C_13  and  C_14 
ROOT
HETATM    1  C   UNL     1      28.121  41.229  51.000  1.00  0.00     0.255 C 
HETATM    2  N   UNL     1      29.214  41.510  51.824  1.00  0.00    -0.246 N 
HETATM    3  O   UNL     1      27.235  42.026  50.697  1.00  0.00    -0.270 OA
HETATM    4  H   UNL     1      29.714  40.723  52.226  1.00  0.00     0.192 HD
ENDROOT
BRANCH   2   5
HETATM    5  N   UNL     1      29.323  42.659  52.578  1.00  0.00    -0.184 NA
HETATM    6  C   UNL     1      28.951  42.601  53.819  1.00  0.00     0.153 C 
BRANCH   6   7
HETATM    7  C   UNL     1      29.125  43.747  54.695  1.00  0.00     0.018 A 
HETATM    8  C   UNL     1      30.041  43.933  55.785  1.00  0.00     0.004 A 
HETATM    9  C   UNL     1      29.794  45.195  56.327  1.00  0.00     0.043 A 
HETATM   10  C   UNL     1      31.053  43.146  56.378  1.00  0.00     0.014 A 
HETATM   11  C   UNL     1      30.501  45.708  57.422  1.00  0.00     0.030 A 
HETATM   12  N   UNL     1      28.778  45.760  55.596  1.00  0.00    -0.358 N 
HETATM   13  C   UNL     1      31.495  44.904  57.988  1.00  0.00     0.002 A 
HETATM   14  C   UNL     1      31.770  43.641  57.473  1.00  0.00     0.001 A 
HETATM   15  H   UNL     1      28.392  46.675  55.776  1.00  0.00     0.166 HD
HETATM   16  C   UNL     1      28.358  44.903  54.609  1.00  0.00     0.018 A 
HETATM   17  C   UNL     1      27.252  45.274  53.687  1.00  0.00     0.069 C 
ENDBRANCH   6   7
ENDBRANCH   2   5
BRANCH   1  18
HETATM   18  C   UNL     1      28.124  39.787  50.485  1.00  0.00     0.224 C 
BRANCH  18  19
HETATM   19  N   UNL     1      29.028  39.640  49.345  1.00  0.00    -0.381 N 
HETATM   20  H   UNL     1      29.812  39.007  49.485  1.00  0.00     0.160 HD
BRANCH  19  21
HETATM   21  C   UNL     1      28.551  39.678  48.038  1.00  0.00     0.028 A 
HETATM   22  C   UNL     1      28.350  40.861  47.318  1.00  0.00     0.032 A 
HETATM   23  C   UNL     1      27.968  40.846  45.968  1.00  0.00     0.039 A 
HETATM   24  C   UNL     1      27.802  39.637  45.299  1.00  0.00     0.068 A 
HETATM   25  C   UNL     1      28.013  38.450  45.997  1.00  0.00     0.039 A 
HETATM   26  C   UNL     1      28.394  38.471  47.344  1.00  0.00     0.032 A 
BRANCH  24  27
HETATM   27  O   UNL     1      27.454  39.483  43.985  1.00  0.00    -0.352 OA
BRANCH  27  28
HETATM   28  C   UNL     1      27.947  38.320  43.320  1.00  0.00     0.171 C 
HETATM   29  C   UNL     1      29.059  38.751  42.380  1.00  0.00     0.034 C 
ENDBRANCH  27  28
ENDBRANCH  24  27
ENDBRANCH  19  21
ENDBRANCH  18  19
ENDBRANCH   1  18
TORSDOF 7
ENDMDL
