MODEL 1
REMARK VINA RESULT:      -7.8      0.000      0.000
REMARK  6 active torsions:
REMARK  status: ('A' for Active; 'I' for Inactive)
REMARK    1  A    between atoms: C_2  and  O_3 
REMARK    2  A    between atoms: O_3  and  C_4 
REMARK    3  A    between atoms: C_5  and  O_6 
REMARK    4  A    between atoms: C_10  and  C_11 
REMARK    5  A    between atoms: C_20  and  C_21 
REMARK       I    between atoms: C_21  and  N_22 
REMARK    6  A    between atoms: N_22  and  C_23 
ROOT
HETATM    1  C   UNL     1      21.146  46.742  46.928  1.00  0.00     0.202 A 
HETATM    2  N   UNL     1      21.421  45.508  46.182  1.00  0.00    -0.084 N 
HETATM    3  C   UNL     1      20.538  44.473  46.062  1.00  0.00     0.725 A 
HETATM    4  N   UNL     1      21.047  43.553  45.284  1.00  0.00    -0.054 NA
HETATM    5  C   UNL     1      22.242  44.106  44.902  1.00  0.00     0.275 A 
HETATM    6  N   UNL     1      22.501  45.325  45.392  1.00  0.00    -0.149 NA
HETATM    7  N   UNL     1      19.346  44.552  46.680  1.00  0.00    -0.192 N 
HETATM    8  C   UNL     1      18.925  45.664  47.400  1.00  0.00     0.037 A 
HETATM    9  C   UNL     1      17.526  45.579  47.963  1.00  0.00     0.070 C 
HETATM   10  C   UNL     1      19.747  46.737  47.538  1.00  0.00     0.062 A 
HETATM   11  H   UNL     1      18.692  43.780  46.574  1.00  0.00     0.184 HD
ENDROOT
BRANCH   1  12
HETATM   12  C   UNL     1      22.270  47.010  47.928  1.00  0.00    -0.024 A 
HETATM   13  C   UNL     1      22.717  45.963  48.756  1.00  0.00     0.031 A 
HETATM   14  C   UNL     1      23.742  46.173  49.680  1.00  0.00     0.047 A 
HETATM   15  C   UNL     1      24.328  47.432  49.784  1.00  0.00     0.116 A 
HETATM   16 BR   UNL     1      24.299  44.722  50.762  1.00  0.00    -0.048 Br
HETATM   17  C   UNL     1      23.896  48.493  48.976  1.00  0.00     0.103 A 
HETATM   18  C   UNL     1      22.858  48.283  48.064  1.00  0.00     0.049 A 
BRANCH  15  19
HETATM   19  O   UNL     1      25.343  47.657  50.680  1.00  0.00    -0.357 OA
HETATM   20  H   UNL     1      24.921  47.620  51.562  1.00  0.00     0.218 HD
ENDBRANCH  15  19
BRANCH  17  21
HETATM   21  O   UNL     1      24.559  49.677  49.178  1.00  0.00    -0.349 OA
BRANCH  21  22
HETATM   22  C   UNL     1      25.363  50.160  48.101  1.00  0.00     0.171 C 
HETATM   23  C   UNL     1      26.815  49.884  48.445  1.00  0.00     0.034 C 
ENDBRANCH  21  22
ENDBRANCH  17  21
ENDBRANCH   1  12
BRANCH  10  24
HETATM   24  C   UNL     1      19.343  47.892  48.400  1.00  0.00     0.256 C 
HETATM   25  N   UNL     1      18.850  48.976  47.706  1.00  0.00    -0.323 N 
HETATM   26  H   UNL     1      18.821  48.940  46.699  1.00  0.00     0.169 HD
HETATM   27  O   UNL     1      19.517  47.820  49.611  1.00  0.00    -0.267 OA
BRANCH  25  28
HETATM   28  C   UNL     1      18.394  50.195  48.256  1.00  0.00     0.035 A 
HETATM   29  C   UNL     1      17.137  50.369  48.838  1.00  0.00     0.029 A 
HETATM   30  C   UNL     1      16.757  51.616  49.346  1.00  0.00     0.002 A 
HETATM   31  C   UNL     1      17.633  52.697  49.283  1.00  0.00     0.000 A 
HETATM   32  C   UNL     1      18.889  52.534  48.707  1.00  0.00     0.002 A 
HETATM   33  C   UNL     1      19.265  51.292  48.189  1.00  0.00     0.029 A 
ENDBRANCH  25  28
ENDBRANCH  10  24
TORSDOF 6
ENDMDL
MODEL 2
REMARK VINA RESULT:      -7.6      3.099      5.612
REMARK  6 active torsions:
REMARK  status: ('A' for Active; 'I' for Inactive)
REMARK    1  A    between atoms: C_2  and  O_3 
REMARK    2  A    between atoms: O_3  and  C_4 
REMARK    3  A    between atoms: C_5  and  O_6 
REMARK    4  A    between atoms: C_10  and  C_11 
REMARK    5  A    between atoms: C_20  and  C_21 
REMARK       I    between atoms: C_21  and  N_22 
REMARK    6  A    between atoms: N_22  and  C_23 
ROOT
HETATM    1  C   UNL     1      23.218  46.242  49.578  1.00  0.00     0.202 A 
HETATM    2  N   UNL     1      24.384  45.445  49.977  1.00  0.00    -0.084 N 
HETATM    3  C   UNL     1      25.667  45.912  49.976  1.00  0.00     0.725 A 
HETATM    4  N   UNL     1      26.467  44.990  50.446  1.00  0.00    -0.054 NA
HETATM    5  C   UNL     1      25.604  43.979  50.778  1.00  0.00     0.275 A 
HETATM    6  N   UNL     1      24.307  44.224  50.549  1.00  0.00    -0.149 NA
HETATM    7  N   UNL     1      25.908  47.168  49.561  1.00  0.00    -0.192 N 
HETATM    8  C   UNL     1      24.910  48.057  49.179  1.00  0.00     0.037 A 
HETATM    9  C   UNL     1      25.383  49.442  48.808  1.00  0.00     0.070 C 
HETATM   10  C   UNL     1      23.610  47.662  49.179  1.00  0.00     0.062 A 
HETATM   11  H   UNL     1      26.866  47.509  49.576  1.00  0.00     0.184 HD
ENDROOT
BRANCH   1  12
HETATM   12  C   UNL     1      22.408  45.491  48.522  1.00  0.00    -0.024 A 
HETATM   13  C   UNL     1      23.062  44.996  47.378  1.00  0.00     0.031 A 
HETATM   14  C   UNL     1      22.352  44.305  46.394  1.00  0.00     0.047 A 
HETATM   15  C   UNL     1      20.982  44.104  46.546  1.00  0.00     0.116 A 
HETATM   16 BR   UNL     1      23.292  43.662  44.881  1.00  0.00    -0.048 Br
HETATM   17  C   UNL     1      20.307  44.593  47.672  1.00  0.00     0.103 A 
HETATM   18  C   UNL     1      21.017  45.299  48.647  1.00  0.00     0.049 A 
BRANCH  15  19
HETATM   19  O   UNL     1      20.268  43.420  45.594  1.00  0.00    -0.357 OA
HETATM   20  H   UNL     1      20.617  42.507  45.616  1.00  0.00     0.218 HD
ENDBRANCH  15  19
BRANCH  17  21
HETATM   21  O   UNL     1      18.962  44.324  47.698  1.00  0.00    -0.349 OA
BRANCH  21  22
HETATM   22  C   UNL     1      18.076  45.445  47.691  1.00  0.00     0.171 C 
HETATM   23  C   UNL     1      17.492  45.566  46.295  1.00  0.00     0.034 C 
ENDBRANCH  21  22
ENDBRANCH  17  21
ENDBRANCH   1  12
BRANCH  10  24
HETATM   24  C   UNL     1      22.542  48.577  48.669  1.00  0.00     0.256 C 
HETATM   25  N   UNL     1      21.854  49.256  49.652  1.00  0.00    -0.323 N 
HETATM   26  H   UNL     1      22.081  49.079  50.618  1.00  0.00     0.169 HD
HETATM   27  O   UNL     1      22.324  48.624  47.463  1.00  0.00    -0.267 OA
BRANCH  25  28
HETATM   28  C   UNL     1      20.802  50.181  49.462  1.00  0.00     0.035 A 
HETATM   29  C   UNL     1      20.879  51.290  48.617  1.00  0.00     0.029 A 
HETATM   30  C   UNL     1      19.796  52.168  48.499  1.00  0.00     0.002 A 
HETATM   31  C   UNL     1      18.625  51.939  49.218  1.00  0.00     0.000 A 
HETATM   32  C   UNL     1      18.538  50.836  50.061  1.00  0.00     0.002 A 
HETATM   33  C   UNL     1      19.623  49.966  50.189  1.00  0.00     0.029 A 
ENDBRANCH  25  28
ENDBRANCH  10  24
TORSDOF 6
ENDMDL
MODEL 3
REMARK VINA RESULT:      -7.5      4.591      7.779
REMARK  6 active torsions:
REMARK  status: ('A' for Active; 'I' for Inactive)
REMARK    1  A    between atoms: C_2  and  O_3 
REMARK    2  A    between atoms: O_3  and  C_4 
REMARK    3  A    between atoms: C_5  and  O_6 
REMARK    4  A    between atoms: C_10  and  C_11 
REMARK    5  A    between atoms: C_20  and  C_21 
REMARK       I    between atoms: C_21  and  N_22 
REMARK    6  A    between atoms: N_22  and  C_23 
ROOT
HETATM    1  C   UNL     1      24.470  43.690  50.233  1.00  0.00     0.202 A 
HETATM    2  N   UNL     1      24.483  42.967  48.956  1.00  0.00    -0.084 N 
HETATM    3  C   UNL     1      25.407  42.018  48.623  1.00  0.00     0.725 A 
HETATM    4  N   UNL     1      25.111  41.512  47.454  1.00  0.00    -0.054 NA
HETATM    5  C   UNL     1      23.946  42.158  47.130  1.00  0.00     0.275 A 
HETATM    6  N   UNL     1      23.494  43.031  48.038  1.00  0.00    -0.149 NA
HETATM    7  N   UNL     1      26.393  41.728  49.491  1.00  0.00    -0.192 N 
HETATM    8  C   UNL     1      26.502  42.305  50.751  1.00  0.00     0.037 A 
HETATM    9  C   UNL     1      27.644  41.798  51.599  1.00  0.00     0.070 C 
HETATM   10  C   UNL     1      25.602  43.240  51.152  1.00  0.00     0.062 A 
HETATM   11  H   UNL     1      27.068  41.011  49.237  1.00  0.00     0.184 HD
ENDROOT
BRANCH   1  12
HETATM   12  C   UNL     1      24.423  45.196  49.981  1.00  0.00    -0.024 A 
HETATM   13  C   UNL     1      23.239  45.773  49.484  1.00  0.00     0.031 A 
HETATM   14  C   UNL     1      23.161  47.146  49.242  1.00  0.00     0.047 A 
HETATM   15  C   UNL     1      24.268  47.953  49.495  1.00  0.00     0.116 A 
HETATM   16 BR   UNL     1      21.538  47.860  48.576  1.00  0.00    -0.048 Br
HETATM   17  C   UNL     1      25.460  47.402  49.983  1.00  0.00     0.103 A 
HETATM   18  C   UNL     1      25.540  46.025  50.208  1.00  0.00     0.049 A 
BRANCH  15  19
HETATM   19  O   UNL     1      24.208  49.306  49.272  1.00  0.00    -0.357 OA
HETATM   20  H   UNL     1      23.504  49.635  49.865  1.00  0.00     0.218 HD
ENDBRANCH  15  19
BRANCH  17  21
HETATM   21  O   UNL     1      26.469  48.308  50.192  1.00  0.00    -0.349 OA
BRANCH  21  22
HETATM   22  C   UNL     1      27.475  48.402  49.181  1.00  0.00     0.171 C 
HETATM   23  C   UNL     1      27.627  49.865  48.811  1.00  0.00     0.034 C 
ENDBRANCH  21  22
ENDBRANCH  17  21
ENDBRANCH   1  12
BRANCH  10  24
HETATM   24  C   UNL     1      25.774  43.941  52.463  1.00  0.00     0.256 C 
HETATM   25  N   UNL     1      27.011  44.523  52.641  1.00  0.00    -0.323 N 
HETATM   26  H   UNL     1      27.709  44.418  51.920  1.00  0.00     0.169 HD
HETATM   27  O   UNL     1      24.859  43.912  53.279  1.00  0.00    -0.267 OA
BRANCH  25  28
HETATM   28  C   UNL     1      27.450  45.246  53.773  1.00  0.00     0.035 A 
HETATM   29  C   UNL     1      26.945  46.493  54.148  1.00  0.00     0.029 A 
HETATM   30  C   UNL     1      27.447  47.151  55.276  1.00  0.00     0.002 A 
HETATM   31  C   UNL     1      28.452  46.565  56.042  1.00  0.00     0.000 A 
HETATM   32  C   UNL     1      28.961  45.322  55.678  1.00  0.00     0.002 A 
HETATM   33  C   UNL     1      28.469  44.670  54.544  1.00  0.00     0.029 A 
ENDBRANCH  25  28
ENDBRANCH  10  24
TORSDOF 6
ENDMDL
MODEL 4
REMARK VINA RESULT:      -7.4      5.034      8.612
REMARK  6 active torsions:
REMARK  status: ('A' for Active; 'I' for Inactive)
REMARK    1  A    between atoms: C_2  and  O_3 
REMARK    2  A    between atoms: O_3  and  C_4 
REMARK    3  A    between atoms: C_5  and  O_6 
REMARK    4  A    between atoms: C_10  and  C_11 
REMARK    5  A    between atoms: C_20  and  C_21 
REMARK       I    between atoms: C_21  and  N_22 
REMARK    6  A    between atoms: N_22  and  C_23 
ROOT
HETATM    1  C   UNL     1      24.680  42.517  49.798  1.00  0.00     0.202 A 
HETATM    2  N   UNL     1      23.879  41.761  48.827  1.00  0.00    -0.084 N 
HETATM    3  C   UNL     1      24.405  40.904  47.904  1.00  0.00     0.725 A 
HETATM    4  N   UNL     1      23.435  40.335  47.235  1.00  0.00    -0.054 NA
HETATM    5  C   UNL     1      22.313  40.845  47.835  1.00  0.00     0.275 A 
HETATM    6  N   UNL     1      22.530  41.694  48.847  1.00  0.00    -0.149 NA
HETATM    7  N   UNL     1      25.738  40.745  47.839  1.00  0.00    -0.192 N 
HETATM    8  C   UNL     1      26.630  41.368  48.705  1.00  0.00     0.037 A 
HETATM    9  C   UNL     1      28.083  41.009  48.507  1.00  0.00     0.070 C 
HETATM   10  C   UNL     1      26.170  42.216  49.662  1.00  0.00     0.062 A 
HETATM   11  H   UNL     1      26.118  40.095  47.155  1.00  0.00     0.184 HD
ENDROOT
BRANCH   1  12
HETATM   12  C   UNL     1      24.327  44.002  49.723  1.00  0.00    -0.024 A 
HETATM   13  C   UNL     1      23.466  44.453  48.704  1.00  0.00     0.031 A 
HETATM   14  C   UNL     1      23.123  45.803  48.607  1.00  0.00     0.047 A 
HETATM   15  C   UNL     1      23.638  46.712  49.527  1.00  0.00     0.116 A 
HETATM   16 BR   UNL     1      21.958  46.344  47.215  1.00  0.00    -0.048 Br
HETATM   17  C   UNL     1      24.502  46.290  50.546  1.00  0.00     0.103 A 
HETATM   18  C   UNL     1      24.857  44.941  50.630  1.00  0.00     0.049 A 
BRANCH  15  19
HETATM   19  O   UNL     1      23.305  48.042  49.453  1.00  0.00    -0.357 OA
HETATM   20  H   UNL     1      22.357  48.085  49.689  1.00  0.00     0.218 HD
ENDBRANCH  15  19
BRANCH  17  21
HETATM   21  O   UNL     1      24.933  47.287  51.385  1.00  0.00    -0.349 OA
BRANCH  21  22
HETATM   22  C   UNL     1      26.118  47.030  52.140  1.00  0.00     0.171 C 
HETATM   23  C   UNL     1      25.774  47.183  53.610  1.00  0.00     0.034 C 
ENDBRANCH  21  22
ENDBRANCH  17  21
ENDBRANCH   1  12
BRANCH  10  24
HETATM   24  C   UNL     1      27.129  42.971  50.527  1.00  0.00     0.256 C 
HETATM   25  N   UNL     1      27.275  42.459  51.799  1.00  0.00    -0.323 N 
HETATM   26  H   UNL     1      26.725  41.658  52.069  1.00  0.00     0.169 HD
HETATM   27  O   UNL     1      27.663  43.982  50.084  1.00  0.00    -0.267 OA
BRANCH  25  28
HETATM   28  C   UNL     1      28.109  42.963  52.822  1.00  0.00     0.035 A 
HETATM   29  C   UNL     1      27.708  43.918  53.759  1.00  0.00     0.029 A 
HETATM   30  C   UNL     1      28.603  44.376  54.732  1.00  0.00     0.002 A 
HETATM   31  C   UNL     1      29.903  43.879  54.781  1.00  0.00     0.000 A 
HETATM   32  C   UNL     1      30.312  42.926  53.853  1.00  0.00     0.002 A 
HETATM   33  C   UNL     1      29.423  42.476  52.874  1.00  0.00     0.029 A 
ENDBRANCH  25  28
ENDBRANCH  10  24
TORSDOF 6
ENDMDL
MODEL 5
REMARK VINA RESULT:      -7.2      2.926      6.010
REMARK  6 active torsions:
REMARK  status: ('A' for Active; 'I' for Inactive)
REMARK    1  A    between atoms: C_2  and  O_3 
REMARK    2  A    between atoms: O_3  and  C_4 
REMARK    3  A    between atoms: C_5  and  O_6 
REMARK    4  A    between atoms: C_10  and  C_11 
REMARK    5  A    between atoms: C_20  and  C_21 
REMARK       I    between atoms: C_21  and  N_22 
REMARK    6  A    between atoms: N_22  and  C_23 
ROOT
HETATM    1  C   UNL     1      20.432  48.220  47.331  1.00  0.00     0.202 A 
HETATM    2  N   UNL     1      19.020  48.069  47.704  1.00  0.00    -0.084 N 
HETATM    3  C   UNL     1      18.429  48.725  48.746  1.00  0.00     0.725 A 
HETATM    4  N   UNL     1      17.155  48.433  48.779  1.00  0.00    -0.054 NA
HETATM    5  C   UNL     1      17.000  47.623  47.684  1.00  0.00     0.275 A 
HETATM    6  N   UNL     1      18.108  47.402  46.965  1.00  0.00    -0.149 NA
HETATM    7  N   UNL     1      19.171  49.545  49.511  1.00  0.00    -0.192 N 
HETATM    8  C   UNL     1      20.514  49.816  49.271  1.00  0.00     0.037 A 
HETATM    9  C   UNL     1      21.151  50.814  50.207  1.00  0.00     0.070 C 
HETATM   10  C   UNL     1      21.155  49.213  48.236  1.00  0.00     0.062 A 
HETATM   11  H   UNL     1      18.718  50.037  50.277  1.00  0.00     0.184 HD
ENDROOT
BRANCH   1  12
HETATM   12  C   UNL     1      21.098  46.848  47.239  1.00  0.00    -0.024 A 
HETATM   13  C   UNL     1      21.342  46.285  45.972  1.00  0.00     0.031 A 
HETATM   14  C   UNL     1      21.948  45.034  45.852  1.00  0.00     0.047 A 
HETATM   15  C   UNL     1      22.317  44.335  46.999  1.00  0.00     0.116 A 
HETATM   16 BR   UNL     1      22.251  44.334  44.118  1.00  0.00    -0.048 Br
HETATM   17  C   UNL     1      22.079  44.869  48.272  1.00  0.00     0.103 A 
HETATM   18  C   UNL     1      21.456  46.115  48.389  1.00  0.00     0.049 A 
BRANCH  15  19
HETATM   19  O   UNL     1      22.923  43.107  46.902  1.00  0.00    -0.357 OA
HETATM   20  H   UNL     1      23.330  42.949  47.776  1.00  0.00     0.218 HD
ENDBRANCH  15  19
BRANCH  17  21
HETATM   21  O   UNL     1      22.494  44.079  49.315  1.00  0.00    -0.349 OA
BRANCH  21  22
HETATM   22  C   UNL     1      23.527  44.601  50.151  1.00  0.00     0.171 C 
HETATM   23  C   UNL     1      24.861  44.197  49.550  1.00  0.00     0.034 C 
ENDBRANCH  21  22
ENDBRANCH  17  21
ENDBRANCH   1  12
BRANCH  10  24
HETATM   24  C   UNL     1      22.624  49.417  48.036  1.00  0.00     0.256 C 
HETATM   25  N   UNL     1      23.419  48.809  48.984  1.00  0.00    -0.323 N 
HETATM   26  H   UNL     1      22.980  48.311  49.743  1.00  0.00     0.169 HD
HETATM   27  O   UNL     1      23.006  50.122  47.108  1.00  0.00    -0.267 OA
BRANCH  25  28
HETATM   28  C   UNL     1      24.831  48.832  49.044  1.00  0.00     0.035 A 
HETATM   29  C   UNL     1      25.602  47.869  49.698  1.00  0.00     0.029 A 
HETATM   30  C   UNL     1      26.997  47.975  49.724  1.00  0.00     0.002 A 
HETATM   31  C   UNL     1      27.632  49.039  49.089  1.00  0.00     0.000 A 
HETATM   32  C   UNL     1      26.873  50.003  48.433  1.00  0.00     0.002 A 
HETATM   33  C   UNL     1      25.480  49.905  48.417  1.00  0.00     0.029 A 
ENDBRANCH  25  28
ENDBRANCH  10  24
TORSDOF 6
ENDMDL
MODEL 6
REMARK VINA RESULT:      -7.2      4.024      5.727
REMARK  6 active torsions:
REMARK  status: ('A' for Active; 'I' for Inactive)
REMARK    1  A    between atoms: C_2  and  O_3 
REMARK    2  A    between atoms: O_3  and  C_4 
REMARK    3  A    between atoms: C_5  and  O_6 
REMARK    4  A    between atoms: C_10  and  C_11 
REMARK    5  A    between atoms: C_20  and  C_21 
REMARK       I    between atoms: C_21  and  N_22 
REMARK    6  A    between atoms: N_22  and  C_23 
ROOT
HETATM    1  C   UNL     1      25.845  43.252  49.078  1.00  0.00     0.202 A 
HETATM    2  N   UNL     1      26.557  42.108  49.660  1.00  0.00    -0.084 N 
HETATM    3  C   UNL     1      26.055  40.838  49.709  1.00  0.00     0.725 A 
HETATM    4  N   UNL     1      26.951  40.035  50.222  1.00  0.00    -0.054 NA
HETATM    5  C   UNL     1      28.023  40.865  50.425  1.00  0.00     0.275 A 
HETATM    6  N   UNL     1      27.848  42.140  50.056  1.00  0.00    -0.149 NA
HETATM    7  N   UNL     1      24.823  40.600  49.225  1.00  0.00    -0.192 N 
HETATM    8  C   UNL     1      24.034  41.571  48.618  1.00  0.00     0.037 A 
HETATM    9  C   UNL     1      22.707  41.086  48.084  1.00  0.00     0.070 C 
HETATM   10  C   UNL     1      24.485  42.849  48.517  1.00  0.00     0.062 A 
HETATM   11  H   UNL     1      24.464  39.649  49.257  1.00  0.00     0.184 HD
ENDROOT
BRANCH   1  12
HETATM   12  C   UNL     1      25.799  44.404  50.081  1.00  0.00    -0.024 A 
HETATM   13  C   UNL     1      25.553  44.123  51.438  1.00  0.00     0.031 A 
HETATM   14  C   UNL     1      25.504  45.151  52.381  1.00  0.00     0.047 A 
HETATM   15  C   UNL     1      25.700  46.469  51.974  1.00  0.00     0.116 A 
HETATM   16 BR   UNL     1      25.173  44.706  54.193  1.00  0.00    -0.048 Br
HETATM   17  C   UNL     1      25.939  46.775  50.629  1.00  0.00     0.103 A 
HETATM   18  C   UNL     1      25.971  45.745  49.684  1.00  0.00     0.049 A 
BRANCH  15  19
HETATM   19  O   UNL     1      25.664  47.493  52.888  1.00  0.00    -0.357 OA
HETATM   20  H   UNL     1      25.367  48.276  52.386  1.00  0.00     0.218 HD
ENDBRANCH  15  19
BRANCH  17  21
HETATM   21  O   UNL     1      26.117  48.110  50.365  1.00  0.00    -0.349 OA
BRANCH  21  22
HETATM   22  C   UNL     1      27.108  48.451  49.394  1.00  0.00     0.171 C 
HETATM   23  C   UNL     1      26.564  49.594  48.557  1.00  0.00     0.034 C 
ENDBRANCH  21  22
ENDBRANCH  17  21
ENDBRANCH   1  12
BRANCH  10  24
HETATM   24  C   UNL     1      23.599  43.920  47.961  1.00  0.00     0.256 C 
HETATM   25  N   UNL     1      22.802  44.544  48.897  1.00  0.00    -0.323 N 
HETATM   26  H   UNL     1      22.838  44.233  49.855  1.00  0.00     0.169 HD
HETATM   27  O   UNL     1      23.605  44.129  46.753  1.00  0.00    -0.267 OA
BRANCH  25  28
HETATM   28  C   UNL     1      21.877  45.585  48.659  1.00  0.00     0.035 A 
HETATM   29  C   UNL     1      22.235  46.921  48.465  1.00  0.00     0.029 A 
HETATM   30  C   UNL     1      21.253  47.894  48.252  1.00  0.00     0.002 A 
HETATM   31  C   UNL     1      19.907  47.539  48.221  1.00  0.00     0.000 A 
HETATM   32  C   UNL     1      19.539  46.211  48.412  1.00  0.00     0.002 A 
HETATM   33  C   UNL     1      20.518  45.240  48.637  1.00  0.00     0.029 A 
ENDBRANCH  25  28
ENDBRANCH  10  24
TORSDOF 6
ENDMDL
MODEL 7
REMARK VINA RESULT:      -7.1      2.655      5.942
REMARK  6 active torsions:
REMARK  status: ('A' for Active; 'I' for Inactive)
REMARK    1  A    between atoms: C_2  and  O_3 
REMARK    2  A    between atoms: O_3  and  C_4 
REMARK    3  A    between atoms: C_5  and  O_6 
REMARK    4  A    between atoms: C_10  and  C_11 
REMARK    5  A    between atoms: C_20  and  C_21 
REMARK       I    between atoms: C_21  and  N_22 
REMARK    6  A    between atoms: N_22  and  C_23 
ROOT
HETATM    1  C   UNL     1      20.482  47.896  47.399  1.00  0.00     0.202 A 
HETATM    2  N   UNL     1      19.099  47.627  47.811  1.00  0.00    -0.084 N 
HETATM    3  C   UNL     1      18.482  48.237  48.866  1.00  0.00     0.725 A 
HETATM    4  N   UNL     1      17.238  47.837  48.934  1.00  0.00    -0.054 NA
HETATM    5  C   UNL     1      17.125  47.010  47.847  1.00  0.00     0.275 A 
HETATM    6  N   UNL     1      18.228  46.880  47.099  1.00  0.00    -0.149 NA
HETATM    7  N   UNL     1      19.171  49.122  49.607  1.00  0.00    -0.192 N 
HETATM    8  C   UNL     1      20.478  49.506  49.329  1.00  0.00     0.037 A 
HETATM    9  C   UNL     1      21.052  50.561  50.244  1.00  0.00     0.070 C 
HETATM   10  C   UNL     1      21.141  48.953  48.280  1.00  0.00     0.062 A 
HETATM   11  H   UNL     1      18.697  49.579  50.383  1.00  0.00     0.184 HD
ENDROOT
BRANCH   1  12
HETATM   12  C   UNL     1      21.261  46.585  47.295  1.00  0.00    -0.024 A 
HETATM   13  C   UNL     1      21.640  45.916  48.474  1.00  0.00     0.031 A 
HETATM   14  C   UNL     1      22.352  44.717  48.415  1.00  0.00     0.047 A 
HETATM   15  C   UNL     1      22.690  44.177  47.177  1.00  0.00     0.116 A 
HETATM   16 BR   UNL     1      22.830  43.865  50.038  1.00  0.00    -0.048 Br
HETATM   17  C   UNL     1      22.331  44.827  45.989  1.00  0.00     0.103 A 
HETATM   18  C   UNL     1      21.633  46.036  46.052  1.00  0.00     0.049 A 
BRANCH  15  19
HETATM   19  O   UNL     1      23.383  42.994  47.099  1.00  0.00    -0.357 OA
HETATM   20  H   UNL     1      24.313  43.249  46.941  1.00  0.00     0.218 HD
ENDBRANCH  15  19
BRANCH  17  21
HETATM   21  O   UNL     1      22.723  44.186  44.841  1.00  0.00    -0.349 OA
BRANCH  21  22
HETATM   22  C   UNL     1      23.180  45.007  43.765  1.00  0.00     0.171 C 
HETATM   23  C   UNL     1      24.500  44.441  43.276  1.00  0.00     0.034 C 
ENDBRANCH  21  22
ENDBRANCH  17  21
ENDBRANCH   1  12
BRANCH  10  24
HETATM   24  C   UNL     1      22.582  49.281  48.040  1.00  0.00     0.256 C 
HETATM   25  N   UNL     1      23.451  48.752  48.970  1.00  0.00    -0.323 N 
HETATM   26  H   UNL     1      23.076  48.224  49.743  1.00  0.00     0.169 HD
HETATM   27  O   UNL     1      22.878  50.009  47.099  1.00  0.00    -0.267 OA
BRANCH  25  28
HETATM   28  C   UNL     1      24.856  48.896  48.992  1.00  0.00     0.035 A 
HETATM   29  C   UNL     1      25.545  49.942  48.374  1.00  0.00     0.029 A 
HETATM   30  C   UNL     1      26.941  50.002  48.429  1.00  0.00     0.002 A 
HETATM   31  C   UNL     1      27.660  49.022  49.110  1.00  0.00     0.000 A 
HETATM   32  C   UNL     1      26.984  47.977  49.731  1.00  0.00     0.002 A 
HETATM   33  C   UNL     1      25.589  47.909  49.665  1.00  0.00     0.029 A 
ENDBRANCH  25  28
ENDBRANCH  10  24
TORSDOF 6
ENDMDL
MODEL 8
REMARK VINA RESULT:      -7.1      3.492      5.609
REMARK  6 active torsions:
REMARK  status: ('A' for Active; 'I' for Inactive)
REMARK    1  A    between atoms: C_2  and  O_3 
REMARK    2  A    between atoms: O_3  and  C_4 
REMARK    3  A    between atoms: C_5  and  O_6 
REMARK    4  A    between atoms: C_10  and  C_11 
REMARK    5  A    between atoms: C_20  and  C_21 
REMARK       I    between atoms: C_21  and  N_22 
REMARK    6  A    between atoms: N_22  and  C_23 
ROOT
HETATM    1  C   UNL     1      23.590  46.371  49.700  1.00  0.00     0.202 A 
HETATM    2  N   UNL     1      24.814  45.654  50.079  1.00  0.00    -0.084 N 
HETATM    3  C   UNL     1      26.068  46.187  50.002  1.00  0.00     0.725 A 
HETATM    4  N   UNL     1      26.936  45.330  50.474  1.00  0.00    -0.054 NA
HETATM    5  C   UNL     1      26.143  44.289  50.884  1.00  0.00     0.275 A 
HETATM    6  N   UNL     1      24.827  44.456  50.703  1.00  0.00    -0.149 NA
HETATM    7  N   UNL     1      26.223  47.435  49.527  1.00  0.00    -0.192 N 
HETATM    8  C   UNL     1      25.163  48.253  49.153  1.00  0.00     0.037 A 
HETATM    9  C   UNL     1      25.544  49.644  48.705  1.00  0.00     0.070 C 
HETATM   10  C   UNL     1      23.888  47.791  49.227  1.00  0.00     0.062 A 
HETATM   11  H   UNL     1      27.161  47.826  49.485  1.00  0.00     0.184 HD
ENDROOT
BRANCH   1  12
HETATM   12  C   UNL     1      22.778  45.534  48.713  1.00  0.00    -0.024 A 
HETATM   13  C   UNL     1      21.380  45.690  48.666  1.00  0.00     0.031 A 
HETATM   14  C   UNL     1      20.608  44.942  47.775  1.00  0.00     0.047 A 
HETATM   15  C   UNL     1      21.228  44.030  46.925  1.00  0.00     0.116 A 
HETATM   16 BR   UNL     1      18.732  45.202  47.760  1.00  0.00    -0.048 Br
HETATM   17  C   UNL     1      22.617  43.850  46.957  1.00  0.00     0.103 A 
HETATM   18  C   UNL     1      23.386  44.589  47.861  1.00  0.00     0.049 A 
BRANCH  15  19
HETATM   19  O   UNL     1      20.487  43.291  46.036  1.00  0.00    -0.357 OA
HETATM   20  H   UNL     1      20.897  43.449  45.163  1.00  0.00     0.218 HD
ENDBRANCH  15  19
BRANCH  17  21
HETATM   21  O   UNL     1      23.098  42.924  46.066  1.00  0.00    -0.349 OA
BRANCH  21  22
HETATM   22  C   UNL     1      23.955  41.907  46.588  1.00  0.00     0.171 C 
HETATM   23  C   UNL     1      23.082  40.874  47.277  1.00  0.00     0.034 C 
ENDBRANCH  21  22
ENDBRANCH  17  21
ENDBRANCH   1  12
BRANCH  10  24
HETATM   24  C   UNL     1      22.751  48.626  48.727  1.00  0.00     0.256 C 
HETATM   25  N   UNL     1      22.008  49.231  49.719  1.00  0.00    -0.323 N 
HETATM   26  H   UNL     1      22.246  49.056  50.683  1.00  0.00     0.169 HD
HETATM   27  O   UNL     1      22.534  48.675  47.522  1.00  0.00    -0.267 OA
BRANCH  25  28
HETATM   28  C   UNL     1      20.886  50.071  49.540  1.00  0.00     0.035 A 
HETATM   29  C   UNL     1      19.641  49.850  50.132  1.00  0.00     0.029 A 
HETATM   30  C   UNL     1      18.575  50.724  49.890  1.00  0.00     0.002 A 
HETATM   31  C   UNL     1      18.748  51.830  49.062  1.00  0.00     0.000 A 
HETATM   32  C   UNL     1      19.986  52.060  48.468  1.00  0.00     0.002 A 
HETATM   33  C   UNL     1      21.047  51.181  48.700  1.00  0.00     0.029 A 
ENDBRANCH  25  28
ENDBRANCH  10  24
TORSDOF 6
ENDMDL
MODEL 9
REMARK VINA RESULT:      -6.8     13.953     16.972
REMARK  6 active torsions:
REMARK  status: ('A' for Active; 'I' for Inactive)
REMARK    1  A    between atoms: C_2  and  O_3 
REMARK    2  A    between atoms: O_3  and  C_4 
REMARK    3  A    between atoms: C_5  and  O_6 
REMARK    4  A    between atoms: C_10  and  C_11 
REMARK    5  A    between atoms: C_20  and  C_21 
REMARK       I    between atoms: C_21  and  N_22 
REMARK    6  A    between atoms: N_22  and  C_23 
ROOT
HETATM    1  C   UNL     1      36.068  51.001  42.032  1.00  0.00     0.202 A 
HETATM    2  N   UNL     1      36.988  51.463  43.079  1.00  0.00    -0.084 N 
HETATM    3  C   UNL     1      36.586  52.014  44.262  1.00  0.00     0.725 A 
HETATM    4  N   UNL     1      37.633  52.258  45.007  1.00  0.00    -0.054 NA
HETATM    5  C   UNL     1      38.667  51.780  44.245  1.00  0.00     0.275 A 
HETATM    6  N   UNL     1      38.320  51.242  43.069  1.00  0.00    -0.149 NA
HETATM    7  N   UNL     1      35.273  52.182  44.496  1.00  0.00    -0.192 N 
HETATM    8  C   UNL     1      34.276  51.772  43.618  1.00  0.00     0.037 A 
HETATM    9  C   UNL     1      32.861  51.993  44.095  1.00  0.00     0.070 C 
HETATM   10  C   UNL     1      34.609  51.195  42.433  1.00  0.00     0.062 A 
HETATM   11  H   UNL     1      34.985  52.583  45.386  1.00  0.00     0.184 HD
ENDROOT
BRANCH   1  12
HETATM   12  C   UNL     1      36.444  51.631  40.692  1.00  0.00    -0.024 A 
HETATM   13  C   UNL     1      37.200  50.884  39.769  1.00  0.00     0.031 A 
HETATM   14  C   UNL     1      37.560  51.429  38.535  1.00  0.00     0.047 A 
HETATM   15  C   UNL     1      37.166  52.726  38.214  1.00  0.00     0.116 A 
HETATM   16 BR   UNL     1      38.576  50.370  37.338  1.00  0.00    -0.048 Br
HETATM   17  C   UNL     1      36.419  53.493  39.118  1.00  0.00     0.103 A 
HETATM   18  C   UNL     1      36.075  52.950  40.359  1.00  0.00     0.049 A 
BRANCH  15  19
HETATM   19  O   UNL     1      37.503  53.276  37.002  1.00  0.00    -0.357 OA
HETATM   20  H   UNL     1      36.925  52.836  36.349  1.00  0.00     0.218 HD
ENDBRANCH  15  19
BRANCH  17  21
HETATM   21  O   UNL     1      36.096  54.750  38.675  1.00  0.00    -0.349 OA
BRANCH  21  22
HETATM   22  C   UNL     1      36.313  55.832  39.582  1.00  0.00     0.171 C 
HETATM   23  C   UNL     1      35.101  56.743  39.518  1.00  0.00     0.034 C 
ENDBRANCH  21  22
ENDBRANCH  17  21
ENDBRANCH   1  12
BRANCH  10  24
HETATM   24  C   UNL     1      33.546  50.848  41.438  1.00  0.00     0.256 C 
HETATM   25  N   UNL     1      32.946  51.937  40.841  1.00  0.00    -0.323 N 
HETATM   26  H   UNL     1      33.226  52.864  41.122  1.00  0.00     0.169 HD
HETATM   27  O   UNL     1      33.257  49.670  41.262  1.00  0.00    -0.267 OA
BRANCH  25  28
HETATM   28  C   UNL     1      31.921  51.909  39.869  1.00  0.00     0.035 A 
HETATM   29  C   UNL     1      32.083  51.411  38.574  1.00  0.00     0.029 A 
HETATM   30  C   UNL     1      31.019  51.436  37.667  1.00  0.00     0.002 A 
HETATM   31  C   UNL     1      29.782  51.950  38.048  1.00  0.00     0.000 A 
HETATM   32  C   UNL     1      29.609  52.447  39.336  1.00  0.00     0.002 A 
HETATM   33  C   UNL     1      30.675  52.434  40.240  1.00  0.00     0.029 A 
ENDBRANCH  25  28
ENDBRANCH  10  24
TORSDOF 6
ENDMDL
MODEL 10
REMARK VINA RESULT:      -6.8     22.955     25.540
REMARK  6 active torsions:
REMARK  status: ('A' for Active; 'I' for Inactive)
REMARK    1  A    between atoms: C_2  and  O_3 
REMARK    2  A    between atoms: O_3  and  C_4 
REMARK    3  A    between atoms: C_5  and  O_6 
REMARK    4  A    between atoms: C_10  and  C_11 
REMARK    5  A    between atoms: C_20  and  C_21 
REMARK       I    between atoms: C_21  and  N_22 
REMARK    6  A    between atoms: N_22  and  C_23 
ROOT
HETATM    1  C   UNL     1      38.022  46.162  64.643  1.00  0.00     0.202 A 
HETATM    2  N   UNL     1      38.322  47.562  64.970  1.00  0.00    -0.084 N 
HETATM    3  C   UNL     1      39.572  48.109  64.918  1.00  0.00     0.725 A 
HETATM    4  N   UNL     1      39.502  49.385  65.198  1.00  0.00    -0.054 NA
HETATM    5  C   UNL     1      38.156  49.585  65.365  1.00  0.00     0.275 A 
HETATM    6  N   UNL     1      37.382  48.506  65.193  1.00  0.00    -0.149 NA
HETATM    7  N   UNL     1      40.615  47.333  64.575  1.00  0.00    -0.192 N 
HETATM    8  C   UNL     1      40.493  45.997  64.210  1.00  0.00     0.037 A 
HETATM    9  C   UNL     1      41.777  45.317  63.798  1.00  0.00     0.070 C 
HETATM   10  C   UNL     1      39.273  45.398  64.219  1.00  0.00     0.062 A 
HETATM   11  H   UNL     1      41.540  47.754  64.529  1.00  0.00     0.184 HD
ENDROOT
BRANCH   1  12
HETATM   12  C   UNL     1      37.243  45.514  65.786  1.00  0.00    -0.024 A 
HETATM   13  C   UNL     1      37.791  45.520  67.082  1.00  0.00     0.031 A 
HETATM   14  C   UNL     1      37.106  44.936  68.149  1.00  0.00     0.047 A 
HETATM   15  C   UNL     1      35.866  44.342  67.928  1.00  0.00     0.116 A 
HETATM   16 BR   UNL     1      37.898  44.980  69.869  1.00  0.00    -0.048 Br
HETATM   17  C   UNL     1      35.301  44.316  66.646  1.00  0.00     0.103 A 
HETATM   18  C   UNL     1      35.998  44.887  65.577  1.00  0.00     0.049 A 
BRANCH  15  19
HETATM   19  O   UNL     1      35.173  43.770  68.966  1.00  0.00    -0.357 OA
HETATM   20  H   UNL     1      35.334  42.810  68.887  1.00  0.00     0.218 HD
ENDBRANCH  15  19
BRANCH  17  21
HETATM   21  O   UNL     1      34.076  43.703  66.569  1.00  0.00    -0.349 OA
BRANCH  21  22
HETATM   22  C   UNL     1      33.843  42.863  65.438  1.00  0.00     0.171 C 
HETATM   23  C   UNL     1      34.730  41.640  65.576  1.00  0.00     0.034 C 
ENDBRANCH  21  22
ENDBRANCH  17  21
ENDBRANCH   1  12
BRANCH  10  24
HETATM   24  C   UNL     1      39.148  43.935  63.931  1.00  0.00     0.256 C 
HETATM   25  N   UNL     1      39.617  43.113  64.934  1.00  0.00    -0.323 N 
HETATM   26  H   UNL     1      40.029  43.530  65.754  1.00  0.00     0.169 HD
HETATM   27  O   UNL     1      38.701  43.578  62.847  1.00  0.00    -0.267 OA
BRANCH  25  28
HETATM   28  C   UNL     1      39.624  41.700  64.935  1.00  0.00     0.035 A 
HETATM   29  C   UNL     1      38.482  40.912  64.771  1.00  0.00     0.029 A 
HETATM   30  C   UNL     1      38.574  39.517  64.801  1.00  0.00     0.002 A 
HETATM   31  C   UNL     1      39.807  38.897  64.986  1.00  0.00     0.000 A 
HETATM   32  C   UNL     1      40.951  39.673  65.149  1.00  0.00     0.002 A 
HETATM   33  C   UNL     1      40.859  41.067  65.131  1.00  0.00     0.029 A 
ENDBRANCH  25  28
ENDBRANCH  10  24
TORSDOF 6
ENDMDL
