MODEL 1
REMARK VINA RESULT:      -8.7      0.000      0.000
REMARK  6 active torsions:
REMARK  status: ('A' for Active; 'I' for Inactive)
REMARK    1  A    between atoms: C_4  and  C_5 
REMARK    2  A    between atoms: C_5  and  N_6 
REMARK    3  A    between atoms: N_6  and  N_7 
REMARK    4  A    between atoms: N_6  and  C_21 
REMARK       I    between atoms: N_7  and  C_8 
REMARK    5  A    between atoms: C_8  and  C_9 
REMARK    6  A    between atoms: C_9  and  C_10 
ROOT
HETATM    1  N   UNL     1      26.153  46.518  51.725  1.00  0.00    -0.267 N 
HETATM    2  C   UNL     1      26.071  47.037  53.014  1.00  0.00     0.240 C 
HETATM    3  O   UNL     1      25.241  47.874  53.365  1.00  0.00    -0.272 OA
HETATM    4  H   UNL     1      26.850  45.844  51.432  1.00  0.00     0.190 HD
ENDROOT
BRANCH   1   5
HETATM    5  N   UNL     1      25.209  46.891  50.740  1.00  0.00    -0.286 N 
BRANCH   5   6
HETATM    6  C   UNL     1      24.362  45.788  50.243  1.00  0.00     0.187 C 
BRANCH   6   7
HETATM    7  C   UNL     1      25.083  44.454  50.266  1.00  0.00    -0.038 A 
HETATM    8  C   UNL     1      26.283  44.290  49.557  1.00  0.00     0.009 A 
HETATM    9  C   UNL     1      26.982  43.081  49.611  1.00  0.00     0.001 A 
HETATM   10  C   UNL     1      26.495  42.028  50.382  1.00  0.00     0.000 A 
HETATM   11  C   UNL     1      25.314  42.180  51.103  1.00  0.00     0.001 A 
HETATM   12  C   UNL     1      24.614  43.387  51.049  1.00  0.00     0.009 A 
ENDBRANCH   6   7
ENDBRANCH   5   6
BRANCH   5  13
HETATM   13  C   UNL     1      25.635  47.942  49.900  1.00  0.00     0.051 A 
HETATM   14  C   UNL     1      24.699  48.713  49.183  1.00  0.00     0.031 A 
HETATM   15  C   UNL     1      25.089  49.759  48.337  1.00  0.00     0.002 A 
HETATM   16  C   UNL     1      26.435  50.061  48.181  1.00  0.00     0.000 A 
HETATM   17  C   UNL     1      27.386  49.309  48.861  1.00  0.00     0.002 A 
HETATM   18  C   UNL     1      26.988  48.260  49.701  1.00  0.00     0.031 A 
ENDBRANCH   5  13
ENDBRANCH   1   5
BRANCH   2  19
HETATM   19  C   UNL     1      27.109  46.421  53.942  1.00  0.00     0.145 C 
BRANCH  19  20
HETATM   20  C   UNL     1      26.938  44.948  54.133  1.00  0.00    -0.021 A 
HETATM   21  C   UNL     1      27.813  43.918  53.655  1.00  0.00    -0.001 A 
HETATM   22  C   UNL     1      27.292  42.696  54.077  1.00  0.00     0.042 A 
HETATM   23  C   UNL     1      29.001  43.917  52.895  1.00  0.00     0.014 A 
HETATM   24  C   UNL     1      27.904  41.470  53.786  1.00  0.00     0.030 A 
HETATM   25  N   UNL     1      26.138  42.967  54.773  1.00  0.00    -0.365 N 
HETATM   26  C   UNL     1      29.084  41.497  53.037  1.00  0.00     0.002 A 
HETATM   27  C   UNL     1      29.626  42.702  52.595  1.00  0.00     0.001 A 
HETATM   28  H   UNL     1      25.543  42.263  55.186  1.00  0.00     0.165 HD
HETATM   29  C   UNL     1      25.919  44.317  54.822  1.00  0.00     0.097 A 
ENDBRANCH  19  20
ENDBRANCH   2  19
TORSDOF 6
ENDMDL
MODEL 2
REMARK VINA RESULT:      -8.6      1.503      3.456
REMARK  6 active torsions:
REMARK  status: ('A' for Active; 'I' for Inactive)
REMARK    1  A    between atoms: C_4  and  C_5 
REMARK    2  A    between atoms: C_5  and  N_6 
REMARK    3  A    between atoms: N_6  and  N_7 
REMARK    4  A    between atoms: N_6  and  C_21 
REMARK       I    between atoms: N_7  and  C_8 
REMARK    5  A    between atoms: C_8  and  C_9 
REMARK    6  A    between atoms: C_9  and  C_10 
ROOT
HETATM    1  N   UNL     1      26.589  45.804  50.462  1.00  0.00    -0.267 N 
HETATM    2  C   UNL     1      25.691  44.823  50.052  1.00  0.00     0.240 C 
HETATM    3  O   UNL     1      24.469  44.931  50.143  1.00  0.00    -0.272 OA
HETATM    4  H   UNL     1      27.596  45.706  50.406  1.00  0.00     0.190 HD
ENDROOT
BRANCH   1   5
HETATM    5  N   UNL     1      26.121  47.044  50.955  1.00  0.00    -0.286 N 
BRANCH   5   6
HETATM    6  C   UNL     1      25.312  46.958  52.188  1.00  0.00     0.187 C 
BRANCH   6   7
HETATM    7  C   UNL     1      26.022  46.192  53.289  1.00  0.00    -0.038 A 
HETATM    8  C   UNL     1      25.605  44.896  53.626  1.00  0.00     0.009 A 
HETATM    9  C   UNL     1      26.283  44.163  54.603  1.00  0.00     0.001 A 
HETATM   10  C   UNL     1      27.390  44.713  55.246  1.00  0.00     0.000 A 
HETATM   11  C   UNL     1      27.824  45.993  54.912  1.00  0.00     0.001 A 
HETATM   12  C   UNL     1      27.147  46.726  53.936  1.00  0.00     0.009 A 
ENDBRANCH   6   7
ENDBRANCH   5   6
BRANCH   5  13
HETATM   13  C   UNL     1      25.854  48.000  49.952  1.00  0.00     0.051 A 
HETATM   14  C   UNL     1      26.903  48.722  49.348  1.00  0.00     0.031 A 
HETATM   15  C   UNL     1      26.671  49.680  48.354  1.00  0.00     0.002 A 
HETATM   16  C   UNL     1      25.373  49.950  47.938  1.00  0.00     0.000 A 
HETATM   17  C   UNL     1      24.314  49.268  48.525  1.00  0.00     0.002 A 
HETATM   18  C   UNL     1      24.554  48.314  49.524  1.00  0.00     0.031 A 
ENDBRANCH   5  13
ENDBRANCH   1   5
BRANCH   2  19
HETATM   19  C   UNL     1      26.401  43.618  49.452  1.00  0.00     0.145 C 
BRANCH  19  20
HETATM   20  C   UNL     1      26.694  42.541  50.448  1.00  0.00    -0.021 A 
HETATM   21  C   UNL     1      27.708  42.569  51.460  1.00  0.00    -0.001 A 
HETATM   22  C   UNL     1      27.616  41.378  52.179  1.00  0.00     0.042 A 
HETATM   23  C   UNL     1      28.702  43.500  51.826  1.00  0.00     0.014 A 
HETATM   24  C   UNL     1      28.462  41.074  53.253  1.00  0.00     0.030 A 
HETATM   25  N   UNL     1      26.595  40.647  51.620  1.00  0.00    -0.365 N 
HETATM   26  C   UNL     1      29.434  42.017  53.600  1.00  0.00     0.002 A 
HETATM   27  C   UNL     1      29.556  43.213  52.897  1.00  0.00     0.001 A 
HETATM   28  H   UNL     1      26.312  39.730  51.935  1.00  0.00     0.165 HD
HETATM   29  C   UNL     1      26.027  41.339  50.584  1.00  0.00     0.097 A 
ENDBRANCH  19  20
ENDBRANCH   2  19
TORSDOF 6
ENDMDL
MODEL 3
REMARK VINA RESULT:      -8.2      1.517      2.007
REMARK  6 active torsions:
REMARK  status: ('A' for Active; 'I' for Inactive)
REMARK    1  A    between atoms: C_4  and  C_5 
REMARK    2  A    between atoms: C_5  and  N_6 
REMARK    3  A    between atoms: N_6  and  N_7 
REMARK    4  A    between atoms: N_6  and  C_21 
REMARK       I    between atoms: N_7  and  C_8 
REMARK    5  A    between atoms: C_8  and  C_9 
REMARK    6  A    between atoms: C_9  and  C_10 
ROOT
HETATM    1  N   UNL     1      26.309  46.922  51.783  1.00  0.00    -0.267 N 
HETATM    2  C   UNL     1      25.507  46.208  52.669  1.00  0.00     0.240 C 
HETATM    3  O   UNL     1      24.652  45.397  52.319  1.00  0.00    -0.272 OA
HETATM    4  H   UNL     1      26.999  47.605  52.072  1.00  0.00     0.190 HD
ENDROOT
BRANCH   1   5
HETATM    5  N   UNL     1      26.224  46.689  50.391  1.00  0.00    -0.286 N 
BRANCH   5   6
HETATM    6  C   UNL     1      27.163  45.675  49.871  1.00  0.00     0.187 C 
BRANCH   6   7
HETATM    7  C   UNL     1      26.531  44.298  49.784  1.00  0.00    -0.038 A 
HETATM    8  C   UNL     1      27.168  43.193  50.369  1.00  0.00     0.009 A 
HETATM    9  C   UNL     1      26.571  41.930  50.338  1.00  0.00     0.001 A 
HETATM   10  C   UNL     1      25.328  41.761  49.732  1.00  0.00     0.000 A 
HETATM   11  C   UNL     1      24.678  42.851  49.160  1.00  0.00     0.001 A 
HETATM   12  C   UNL     1      25.273  44.113  49.190  1.00  0.00     0.009 A 
ENDBRANCH   6   7
ENDBRANCH   5   6
BRANCH   5  13
HETATM   13  C   UNL     1      25.861  47.825  49.636  1.00  0.00     0.051 A 
HETATM   14  C   UNL     1      24.505  48.122  49.390  1.00  0.00     0.031 A 
HETATM   15  C   UNL     1      24.111  49.238  48.641  1.00  0.00     0.002 A 
HETATM   16  C   UNL     1      25.070  50.091  48.110  1.00  0.00     0.000 A 
HETATM   17  C   UNL     1      26.416  49.819  48.320  1.00  0.00     0.002 A 
HETATM   18  C   UNL     1      26.803  48.697  49.066  1.00  0.00     0.031 A 
ENDBRANCH   5  13
ENDBRANCH   1   5
BRANCH   2  19
HETATM   19  C   UNL     1      25.838  46.529  54.120  1.00  0.00     0.145 C 
BRANCH  19  20
HETATM   20  C   UNL     1      27.210  46.098  54.527  1.00  0.00    -0.021 A 
HETATM   21  C   UNL     1      27.763  44.782  54.404  1.00  0.00    -0.001 A 
HETATM   22  C   UNL     1      29.073  44.830  54.880  1.00  0.00     0.042 A 
HETATM   23  C   UNL     1      27.264  43.549  53.933  1.00  0.00     0.014 A 
HETATM   24  C   UNL     1      29.914  43.710  54.902  1.00  0.00     0.030 A 
HETATM   25  N   UNL     1      29.306  46.122  55.290  1.00  0.00    -0.365 N 
HETATM   26  C   UNL     1      29.396  42.503  54.424  1.00  0.00     0.002 A 
HETATM   27  C   UNL     1      28.090  42.420  53.948  1.00  0.00     0.001 A 
HETATM   28  H   UNL     1      30.174  46.444  55.693  1.00  0.00     0.165 HD
HETATM   29  C   UNL     1      28.197  46.895  55.075  1.00  0.00     0.097 A 
ENDBRANCH  19  20
ENDBRANCH   2  19
TORSDOF 6
ENDMDL
MODEL 4
REMARK VINA RESULT:      -8.1      2.432      4.884
REMARK  6 active torsions:
REMARK  status: ('A' for Active; 'I' for Inactive)
REMARK    1  A    between atoms: C_4  and  C_5 
REMARK    2  A    between atoms: C_5  and  N_6 
REMARK    3  A    between atoms: N_6  and  N_7 
REMARK    4  A    between atoms: N_6  and  C_21 
REMARK       I    between atoms: N_7  and  C_8 
REMARK    5  A    between atoms: C_8  and  C_9 
REMARK    6  A    between atoms: C_9  and  C_10 
ROOT
HETATM    1  N   UNL     1      26.937  45.045  51.274  1.00  0.00    -0.267 N 
HETATM    2  C   UNL     1      26.794  44.456  52.527  1.00  0.00     0.240 C 
HETATM    3  O   UNL     1      25.712  44.293  53.089  1.00  0.00    -0.272 OA
HETATM    4  H   UNL     1      27.830  45.198  50.821  1.00  0.00     0.190 HD
ENDROOT
BRANCH   1   5
HETATM    5  N   UNL     1      25.799  45.434  50.530  1.00  0.00    -0.286 N 
BRANCH   5   6
HETATM    6  C   UNL     1      25.181  46.705  50.958  1.00  0.00     0.187 C 
BRANCH   6   7
HETATM    7  C   UNL     1      25.489  47.843  50.003  1.00  0.00    -0.038 A 
HETATM    8  C   UNL     1      26.820  48.207  49.748  1.00  0.00     0.009 A 
HETATM    9  C   UNL     1      27.117  49.220  48.833  1.00  0.00     0.001 A 
HETATM   10  C   UNL     1      26.089  49.873  48.156  1.00  0.00     0.000 A 
HETATM   11  C   UNL     1      24.764  49.514  48.389  1.00  0.00     0.001 A 
HETATM   12  C   UNL     1      24.466  48.502  49.303  1.00  0.00     0.009 A 
ENDBRANCH   6   7
ENDBRANCH   5   6
BRANCH   5  13
HETATM   13  C   UNL     1      25.028  44.354  50.048  1.00  0.00     0.051 A 
HETATM   14  C   UNL     1      23.643  44.289  50.302  1.00  0.00     0.031 A 
HETATM   15  C   UNL     1      22.851  43.230  49.842  1.00  0.00     0.002 A 
HETATM   16  C   UNL     1      23.427  42.197  49.115  1.00  0.00     0.000 A 
HETATM   17  C   UNL     1      24.793  42.221  48.861  1.00  0.00     0.002 A 
HETATM   18  C   UNL     1      25.581  43.282  49.330  1.00  0.00     0.031 A 
ENDBRANCH   5  13
ENDBRANCH   1   5
BRANCH   2  19
HETATM   19  C   UNL     1      28.131  44.013  53.103  1.00  0.00     0.145 C 
BRANCH  19  20
HETATM   20  C   UNL     1      28.533  44.769  54.329  1.00  0.00    -0.021 A 
HETATM   21  C   UNL     1      29.541  44.388  55.274  1.00  0.00    -0.001 A 
HETATM   22  C   UNL     1      29.606  45.387  56.244  1.00  0.00     0.042 A 
HETATM   23  C   UNL     1      30.402  43.277  55.394  1.00  0.00     0.014 A 
HETATM   24  C   UNL     1      30.495  45.337  57.325  1.00  0.00     0.030 A 
HETATM   25  N   UNL     1      28.666  46.334  55.912  1.00  0.00    -0.365 N 
HETATM   26  C   UNL     1      31.342  44.229  57.417  1.00  0.00     0.002 A 
HETATM   27  C   UNL     1      31.297  43.211  56.468  1.00  0.00     0.001 A 
HETATM   28  H   UNL     1      28.484  47.169  56.449  1.00  0.00     0.165 HD
HETATM   29  C   UNL     1      28.021  45.978  54.758  1.00  0.00     0.097 A 
ENDBRANCH  19  20
ENDBRANCH   2  19
TORSDOF 6
ENDMDL
MODEL 5
REMARK VINA RESULT:      -8.1      2.978      6.293
REMARK  6 active torsions:
REMARK  status: ('A' for Active; 'I' for Inactive)
REMARK    1  A    between atoms: C_4  and  C_5 
REMARK    2  A    between atoms: C_5  and  N_6 
REMARK    3  A    between atoms: N_6  and  N_7 
REMARK    4  A    between atoms: N_6  and  C_21 
REMARK       I    between atoms: N_7  and  C_8 
REMARK    5  A    between atoms: C_8  and  C_9 
REMARK    6  A    between atoms: C_9  and  C_10 
ROOT
HETATM    1  N   UNL     1      28.121  41.421  52.647  1.00  0.00    -0.267 N 
HETATM    2  C   UNL     1      29.061  42.403  52.949  1.00  0.00     0.240 C 
HETATM    3  O   UNL     1      29.620  43.100  52.104  1.00  0.00    -0.272 OA
HETATM    4  H   UNL     1      27.677  40.834  53.343  1.00  0.00     0.190 HD
ENDROOT
BRANCH   1   5
HETATM    5  N   UNL     1      27.699  41.218  51.314  1.00  0.00    -0.286 N 
BRANCH   5   6
HETATM    6  C   UNL     1      26.265  41.474  51.070  1.00  0.00     0.187 C 
BRANCH   6   7
HETATM    7  C   UNL     1      25.972  42.948  50.862  1.00  0.00    -0.038 A 
HETATM    8  C   UNL     1      26.895  43.762  50.189  1.00  0.00     0.009 A 
HETATM    9  C   UNL     1      26.613  45.109  49.948  1.00  0.00     0.001 A 
HETATM   10  C   UNL     1      25.402  45.654  50.367  1.00  0.00     0.000 A 
HETATM   11  C   UNL     1      24.470  44.856  51.024  1.00  0.00     0.001 A 
HETATM   12  C   UNL     1      24.750  43.510  51.266  1.00  0.00     0.009 A 
ENDBRANCH   6   7
ENDBRANCH   5   6
BRANCH   5  13
HETATM   13  C   UNL     1      28.401  40.200  50.634  1.00  0.00     0.051 A 
HETATM   14  C   UNL     1      29.143  39.238  51.348  1.00  0.00     0.031 A 
HETATM   15  C   UNL     1      29.855  38.218  50.705  1.00  0.00     0.002 A 
HETATM   16  C   UNL     1      29.848  38.135  49.318  1.00  0.00     0.000 A 
HETATM   17  C   UNL     1      29.141  39.078  48.582  1.00  0.00     0.002 A 
HETATM   18  C   UNL     1      28.435  40.099  49.234  1.00  0.00     0.031 A 
ENDBRANCH   5  13
ENDBRANCH   1   5
BRANCH   2  19
HETATM   19  C   UNL     1      29.287  42.531  54.449  1.00  0.00     0.145 C 
BRANCH  19  20
HETATM   20  C   UNL     1      29.298  43.947  54.932  1.00  0.00    -0.021 A 
HETATM   21  C   UNL     1      28.294  44.939  54.686  1.00  0.00    -0.001 A 
HETATM   22  C   UNL     1      28.688  46.106  55.338  1.00  0.00     0.042 A 
HETATM   23  C   UNL     1      27.084  44.951  53.961  1.00  0.00     0.014 A 
HETATM   24  C   UNL     1      27.931  47.284  55.310  1.00  0.00     0.030 A 
HETATM   25  N   UNL     1      29.893  45.841  55.947  1.00  0.00    -0.365 N 
HETATM   26  C   UNL     1      26.733  47.266  54.590  1.00  0.00     0.002 A 
HETATM   27  C   UNL     1      26.314  46.118  53.922  1.00  0.00     0.001 A 
HETATM   28  H   UNL     1      30.420  46.514  56.484  1.00  0.00     0.165 HD
HETATM   29  C   UNL     1      30.265  44.544  55.717  1.00  0.00     0.097 A 
ENDBRANCH  19  20
ENDBRANCH   2  19
TORSDOF 6
ENDMDL
MODEL 6
REMARK VINA RESULT:      -7.9     11.450     13.617
REMARK  6 active torsions:
REMARK  status: ('A' for Active; 'I' for Inactive)
REMARK    1  A    between atoms: C_4  and  C_5 
REMARK    2  A    between atoms: C_5  and  N_6 
REMARK    3  A    between atoms: N_6  and  N_7 
REMARK    4  A    between atoms: N_6  and  C_21 
REMARK       I    between atoms: N_7  and  C_8 
REMARK    5  A    between atoms: C_8  and  C_9 
REMARK    6  A    between atoms: C_9  and  C_10 
ROOT
HETATM    1  N   UNL     1      31.593  51.671  41.826  1.00  0.00    -0.267 N 
HETATM    2  C   UNL     1      31.476  51.960  40.469  1.00  0.00     0.240 C 
HETATM    3  O   UNL     1      32.195  51.471  39.599  1.00  0.00    -0.272 OA
HETATM    4  H   UNL     1      31.014  52.090  42.544  1.00  0.00     0.190 HD
ENDROOT
BRANCH   1   5
HETATM    5  N   UNL     1      32.533  50.716  42.277  1.00  0.00    -0.286 N 
BRANCH   5   6
HETATM    6  C   UNL     1      31.945  49.514  42.903  1.00  0.00     0.187 C 
BRANCH   6   7
HETATM    7  C   UNL     1      31.047  48.750  41.949  1.00  0.00    -0.038 A 
HETATM    8  C   UNL     1      31.601  48.060  40.860  1.00  0.00     0.009 A 
HETATM    9  C   UNL     1      30.789  47.312  40.004  1.00  0.00     0.001 A 
HETATM   10  C   UNL     1      29.417  47.237  40.233  1.00  0.00     0.000 A 
HETATM   11  C   UNL     1      28.854  47.904  41.318  1.00  0.00     0.001 A 
HETATM   12  C   UNL     1      29.665  48.652  42.173  1.00  0.00     0.009 A 
ENDBRANCH   6   7
ENDBRANCH   5   6
BRANCH   5  13
HETATM   13  C   UNL     1      33.751  51.270  42.724  1.00  0.00     0.051 A 
HETATM   14  C   UNL     1      34.915  51.178  41.935  1.00  0.00     0.031 A 
HETATM   15  C   UNL     1      36.141  51.713  42.351  1.00  0.00     0.002 A 
HETATM   16  C   UNL     1      36.237  52.354  43.579  1.00  0.00     0.000 A 
HETATM   17  C   UNL     1      35.112  52.448  44.390  1.00  0.00     0.002 A 
HETATM   18  C   UNL     1      33.890  51.905  43.969  1.00  0.00     0.031 A 
ENDBRANCH   5  13
ENDBRANCH   1   5
BRANCH   2  19
HETATM   19  C   UNL     1      30.333  52.926  40.191  1.00  0.00     0.145 C 
BRANCH  19  20
HETATM   20  C   UNL     1      28.980  52.318  40.378  1.00  0.00    -0.021 A 
HETATM   21  C   UNL     1      28.409  51.252  39.607  1.00  0.00    -0.001 A 
HETATM   22  C   UNL     1      27.147  50.982  40.134  1.00  0.00     0.042 A 
HETATM   23  C   UNL     1      28.853  50.495  38.503  1.00  0.00     0.014 A 
HETATM   24  C   UNL     1      26.307  49.987  39.620  1.00  0.00     0.030 A 
HETATM   25  N   UNL     1      26.949  51.857  41.177  1.00  0.00    -0.365 N 
HETATM   26  C   UNL     1      26.774  49.246  38.529  1.00  0.00     0.002 A 
HETATM   27  C   UNL     1      28.027  49.496  37.976  1.00  0.00     0.001 A 
HETATM   28  H   UNL     1      26.110  51.896  41.737  1.00  0.00     0.165 HD
HETATM   29  C   UNL     1      28.047  52.659  41.338  1.00  0.00     0.097 A 
ENDBRANCH  19  20
ENDBRANCH   2  19
TORSDOF 6
ENDMDL
MODEL 7
REMARK VINA RESULT:      -7.9      3.589      5.545
REMARK  6 active torsions:
REMARK  status: ('A' for Active; 'I' for Inactive)
REMARK    1  A    between atoms: C_4  and  C_5 
REMARK    2  A    between atoms: C_5  and  N_6 
REMARK    3  A    between atoms: N_6  and  N_7 
REMARK    4  A    between atoms: N_6  and  C_21 
REMARK       I    between atoms: N_7  and  C_8 
REMARK    5  A    between atoms: C_8  and  C_9 
REMARK    6  A    between atoms: C_9  and  C_10 
ROOT
HETATM    1  N   UNL     1      28.502  42.411  51.536  1.00  0.00    -0.267 N 
HETATM    2  C   UNL     1      28.853  41.862  52.766  1.00  0.00     0.240 C 
HETATM    3  O   UNL     1      28.280  40.900  53.276  1.00  0.00    -0.272 OA
HETATM    4  H   UNL     1      28.961  43.215  51.126  1.00  0.00     0.190 HD
ENDROOT
BRANCH   1   5
HETATM    5  N   UNL     1      27.480  41.825  50.754  1.00  0.00    -0.286 N 
BRANCH   5   6
HETATM    6  C   UNL     1      27.953  41.091  49.562  1.00  0.00     0.187 C 
BRANCH   6   7
HETATM    7  C   UNL     1      27.931  39.588  49.767  1.00  0.00    -0.038 A 
HETATM    8  C   UNL     1      26.790  38.847  49.424  1.00  0.00     0.009 A 
HETATM    9  C   UNL     1      26.777  37.456  49.562  1.00  0.00     0.001 A 
HETATM   10  C   UNL     1      27.907  36.791  50.034  1.00  0.00     0.000 A 
HETATM   11  C   UNL     1      29.051  37.512  50.365  1.00  0.00     0.001 A 
HETATM   12  C   UNL     1      29.065  38.901  50.228  1.00  0.00     0.009 A 
ENDBRANCH   6   7
ENDBRANCH   5   6
BRANCH   5  13
HETATM   13  C   UNL     1      26.268  42.547  50.753  1.00  0.00     0.051 A 
HETATM   14  C   UNL     1      26.191  43.824  51.344  1.00  0.00     0.031 A 
HETATM   15  C   UNL     1      25.002  44.564  51.364  1.00  0.00     0.002 A 
HETATM   16  C   UNL     1      23.848  44.041  50.796  1.00  0.00     0.000 A 
HETATM   17  C   UNL     1      23.885  42.777  50.220  1.00  0.00     0.002 A 
HETATM   18  C   UNL     1      25.077  42.040  50.208  1.00  0.00     0.031 A 
ENDBRANCH   5  13
ENDBRANCH   1   5
BRANCH   2  19
HETATM   19  C   UNL     1      30.046  42.574  53.387  1.00  0.00     0.145 C 
BRANCH  19  20
HETATM   20  C   UNL     1      29.662  43.680  54.318  1.00  0.00    -0.021 A 
HETATM   21  C   UNL     1      30.247  43.961  55.596  1.00  0.00    -0.001 A 
HETATM   22  C   UNL     1      29.610  45.089  56.110  1.00  0.00     0.042 A 
HETATM   23  C   UNL     1      31.260  43.351  56.366  1.00  0.00     0.014 A 
HETATM   24  C   UNL     1      29.939  45.646  57.352  1.00  0.00     0.030 A 
HETATM   25  N   UNL     1      28.664  45.474  55.189  1.00  0.00    -0.365 N 
HETATM   26  C   UNL     1      30.951  45.027  58.091  1.00  0.00     0.002 A 
HETATM   27  C   UNL     1      31.602  43.894  57.608  1.00  0.00     0.001 A 
HETATM   28  H   UNL     1      28.042  46.261  55.305  1.00  0.00     0.165 HD
HETATM   29  C   UNL     1      28.693  44.640  54.103  1.00  0.00     0.097 A 
ENDBRANCH  19  20
ENDBRANCH   2  19
TORSDOF 6
ENDMDL
MODEL 8
REMARK VINA RESULT:      -7.8      3.275      5.999
REMARK  6 active torsions:
REMARK  status: ('A' for Active; 'I' for Inactive)
REMARK    1  A    between atoms: C_4  and  C_5 
REMARK    2  A    between atoms: C_5  and  N_6 
REMARK    3  A    between atoms: N_6  and  N_7 
REMARK    4  A    between atoms: N_6  and  C_21 
REMARK       I    between atoms: N_7  and  C_8 
REMARK    5  A    between atoms: C_8  and  C_9 
REMARK    6  A    between atoms: C_9  and  C_10 
ROOT
HETATM    1  N   UNL     1      28.315  42.712  51.446  1.00  0.00    -0.267 N 
HETATM    2  C   UNL     1      28.472  42.153  52.712  1.00  0.00     0.240 C 
HETATM    3  O   UNL     1      27.684  41.351  53.209  1.00  0.00    -0.272 OA
HETATM    4  H   UNL     1      28.954  43.389  51.046  1.00  0.00     0.190 HD
ENDROOT
BRANCH   1   5
HETATM    5  N   UNL     1      27.242  42.316  50.615  1.00  0.00    -0.286 N 
BRANCH   5   6
HETATM    6  C   UNL     1      25.928  42.879  50.986  1.00  0.00     0.187 C 
BRANCH   6   7
HETATM    7  C   UNL     1      25.939  44.395  51.010  1.00  0.00    -0.038 A 
HETATM    8  C   UNL     1      26.323  45.115  49.868  1.00  0.00     0.009 A 
HETATM    9  C   UNL     1      26.289  46.512  49.864  1.00  0.00     0.001 A 
HETATM   10  C   UNL     1      25.862  47.203  50.995  1.00  0.00     0.000 A 
HETATM   11  C   UNL     1      25.464  46.502  52.131  1.00  0.00     0.001 A 
HETATM   12  C   UNL     1      25.498  45.107  52.137  1.00  0.00     0.009 A 
ENDBRANCH   6   7
ENDBRANCH   5   6
BRANCH   5  13
HETATM   13  C   UNL     1      27.374  41.015  50.083  1.00  0.00     0.051 A 
HETATM   14  C   UNL     1      28.501  40.663  49.314  1.00  0.00     0.031 A 
HETATM   15  C   UNL     1      28.660  39.383  48.769  1.00  0.00     0.002 A 
HETATM   16  C   UNL     1      27.685  38.415  48.974  1.00  0.00     0.000 A 
HETATM   17  C   UNL     1      26.553  38.733  49.713  1.00  0.00     0.002 A 
HETATM   18  C   UNL     1      26.398  40.019  50.252  1.00  0.00     0.031 A 
ENDBRANCH   5  13
ENDBRANCH   1   5
BRANCH   2  19
HETATM   19  C   UNL     1      29.748  42.631  53.390  1.00  0.00     0.145 C 
BRANCH  19  20
HETATM   20  C   UNL     1      29.524  43.743  54.365  1.00  0.00    -0.021 A 
HETATM   21  C   UNL     1      30.216  43.943  55.604  1.00  0.00    -0.001 A 
HETATM   22  C   UNL     1      29.714  45.109  56.182  1.00  0.00     0.042 A 
HETATM   23  C   UNL     1      31.223  43.233  56.290  1.00  0.00     0.014 A 
HETATM   24  C   UNL     1      30.173  45.606  57.407  1.00  0.00     0.030 A 
HETATM   25  N   UNL     1      28.745  45.594  55.335  1.00  0.00    -0.365 N 
HETATM   26  C   UNL     1      31.176  44.887  58.063  1.00  0.00     0.002 A 
HETATM   27  C   UNL     1      31.694  43.715  57.516  1.00  0.00     0.001 A 
HETATM   28  H   UNL     1      28.201  46.427  55.509  1.00  0.00     0.165 HD
HETATM   29  C   UNL     1      28.628  44.787  54.235  1.00  0.00     0.097 A 
ENDBRANCH  19  20
ENDBRANCH   2  19
TORSDOF 6
ENDMDL
MODEL 9
REMARK VINA RESULT:      -7.7      2.289      4.434
REMARK  6 active torsions:
REMARK  status: ('A' for Active; 'I' for Inactive)
REMARK    1  A    between atoms: C_4  and  C_5 
REMARK    2  A    between atoms: C_5  and  N_6 
REMARK    3  A    between atoms: N_6  and  N_7 
REMARK    4  A    between atoms: N_6  and  C_21 
REMARK       I    between atoms: N_7  and  C_8 
REMARK    5  A    between atoms: C_8  and  C_9 
REMARK    6  A    between atoms: C_9  and  C_10 
ROOT
HETATM    1  N   UNL     1      25.555  45.168  50.430  1.00  0.00    -0.267 N 
HETATM    2  C   UNL     1      26.618  44.449  49.889  1.00  0.00     0.240 C 
HETATM    3  O   UNL     1      27.772  44.869  49.836  1.00  0.00    -0.272 OA
HETATM    4  H   UNL     1      24.601  44.829  50.455  1.00  0.00     0.190 HD
ENDROOT
BRANCH   1   5
HETATM    5  N   UNL     1      25.773  46.430  51.029  1.00  0.00    -0.286 N 
BRANCH   5   6
HETATM    6  C   UNL     1      25.365  46.525  52.445  1.00  0.00     0.187 C 
BRANCH   6   7
HETATM    7  C   UNL     1      26.534  46.335  53.394  1.00  0.00    -0.038 A 
HETATM    8  C   UNL     1      26.981  47.405  54.183  1.00  0.00     0.009 A 
HETATM    9  C   UNL     1      28.024  47.228  55.096  1.00  0.00     0.001 A 
HETATM   10  C   UNL     1      28.624  45.978  55.237  1.00  0.00     0.000 A 
HETATM   11  C   UNL     1      28.181  44.904  54.470  1.00  0.00     0.001 A 
HETATM   12  C   UNL     1      27.140  45.079  53.558  1.00  0.00     0.009 A 
ENDBRANCH   6   7
ENDBRANCH   5   6
BRANCH   5  13
HETATM   13  C   UNL     1      25.647  47.520  50.141  1.00  0.00     0.051 A 
HETATM   14  C   UNL     1      26.786  48.220  49.695  1.00  0.00     0.031 A 
HETATM   15  C   UNL     1      26.694  49.308  48.818  1.00  0.00     0.002 A 
HETATM   16  C   UNL     1      25.452  49.732  48.365  1.00  0.00     0.000 A 
HETATM   17  C   UNL     1      24.307  49.075  48.798  1.00  0.00     0.002 A 
HETATM   18  C   UNL     1      24.406  47.990  49.681  1.00  0.00     0.031 A 
ENDBRANCH   5  13
ENDBRANCH   1   5
BRANCH   2  19
HETATM   19  C   UNL     1      26.185  43.074  49.401  1.00  0.00     0.145 C 
BRANCH  19  20
HETATM   20  C   UNL     1      26.924  41.950  50.054  1.00  0.00    -0.021 A 
HETATM   21  C   UNL     1      27.563  40.851  49.392  1.00  0.00    -0.001 A 
HETATM   22  C   UNL     1      28.151  40.054  50.374  1.00  0.00     0.042 A 
HETATM   23  C   UNL     1      27.689  40.459  48.043  1.00  0.00     0.014 A 
HETATM   24  C   UNL     1      28.868  38.889  50.075  1.00  0.00     0.030 A 
HETATM   25  N   UNL     1      27.871  40.637  51.588  1.00  0.00    -0.365 N 
HETATM   26  C   UNL     1      28.983  38.526  48.730  1.00  0.00     0.002 A 
HETATM   27  C   UNL     1      28.401  39.297  47.727  1.00  0.00     0.001 A 
HETATM   28  H   UNL     1      28.165  40.265  52.479  1.00  0.00     0.165 HD
HETATM   29  C   UNL     1      27.142  41.782  51.408  1.00  0.00     0.097 A 
ENDBRANCH  19  20
ENDBRANCH   2  19
TORSDOF 6
ENDMDL
MODEL 10
REMARK VINA RESULT:      -7.6     11.461     14.016
REMARK  6 active torsions:
REMARK  status: ('A' for Active; 'I' for Inactive)
REMARK    1  A    between atoms: C_4  and  C_5 
REMARK    2  A    between atoms: C_5  and  N_6 
REMARK    3  A    between atoms: N_6  and  N_7 
REMARK    4  A    between atoms: N_6  and  C_21 
REMARK       I    between atoms: N_7  and  C_8 
REMARK    5  A    between atoms: C_8  and  C_9 
REMARK    6  A    between atoms: C_9  and  C_10 
ROOT
HETATM    1  N   UNL     1      33.152  50.100  41.824  1.00  0.00    -0.267 N 
HETATM    2  C   UNL     1      32.200  49.913  42.823  1.00  0.00     0.240 C 
HETATM    3  O   UNL     1      31.944  50.745  43.691  1.00  0.00    -0.272 OA
HETATM    4  H   UNL     1      33.376  49.405  41.122  1.00  0.00     0.190 HD
ENDROOT
BRANCH   1   5
HETATM    5  N   UNL     1      33.844  51.328  41.714  1.00  0.00    -0.286 N 
BRANCH   5   6
HETATM    6  C   UNL     1      33.640  52.044  40.438  1.00  0.00     0.187 C 
BRANCH   6   7
HETATM    7  C   UNL     1      32.171  52.241  40.118  1.00  0.00    -0.038 A 
HETATM    8  C   UNL     1      31.371  53.045  40.943  1.00  0.00     0.009 A 
HETATM    9  C   UNL     1      30.029  53.273  40.630  1.00  0.00     0.001 A 
HETATM   10  C   UNL     1      29.474  52.709  39.483  1.00  0.00     0.000 A 
HETATM   11  C   UNL     1      30.259  51.919  38.647  1.00  0.00     0.001 A 
HETATM   12  C   UNL     1      31.600  51.691  38.959  1.00  0.00     0.009 A 
ENDBRANCH   6   7
ENDBRANCH   5   6
BRANCH   5  13
HETATM   13  C   UNL     1      35.078  51.359  42.398  1.00  0.00     0.051 A 
HETATM   14  C   UNL     1      35.270  52.223  43.495  1.00  0.00     0.031 A 
HETATM   15  C   UNL     1      36.483  52.281  44.193  1.00  0.00     0.002 A 
HETATM   16  C   UNL     1      37.546  51.475  43.806  1.00  0.00     0.000 A 
HETATM   17  C   UNL     1      37.396  50.624  42.718  1.00  0.00     0.002 A 
HETATM   18  C   UNL     1      36.180  50.575  42.021  1.00  0.00     0.031 A 
ENDBRANCH   5  13
ENDBRANCH   1   5
BRANCH   2  19
HETATM   19  C   UNL     1      31.496  48.570  42.692  1.00  0.00     0.145 C 
BRANCH  19  20
HETATM   20  C   UNL     1      30.805  48.384  41.379  1.00  0.00    -0.021 A 
HETATM   21  C   UNL     1      29.544  48.946  40.993  1.00  0.00    -0.001 A 
HETATM   22  C   UNL     1      29.288  48.540  39.683  1.00  0.00     0.042 A 
HETATM   23  C   UNL     1      28.592  49.759  41.642  1.00  0.00     0.014 A 
HETATM   24  C   UNL     1      28.133  48.915  38.986  1.00  0.00     0.030 A 
HETATM   25  N   UNL     1      30.344  47.752  39.291  1.00  0.00    -0.365 N 
HETATM   26  C   UNL     1      27.210  49.727  39.650  1.00  0.00     0.002 A 
HETATM   27  C   UNL     1      27.433  50.143  40.961  1.00  0.00     0.001 A 
HETATM   28  H   UNL     1      30.420  47.309  38.387  1.00  0.00     0.165 HD
HETATM   29  C   UNL     1      31.267  47.659  40.298  1.00  0.00     0.097 A 
ENDBRANCH  19  20
ENDBRANCH   2  19
TORSDOF 6
ENDMDL
