MODEL 1
REMARK VINA RESULT:     -10.8      0.000      0.000
REMARK  6 active torsions:
REMARK  status: ('A' for Active; 'I' for Inactive)
REMARK    1  A    between atoms: C_2  and  C_3 
REMARK    2  A    between atoms: C_3  and  N_4 
REMARK    3  A    between atoms: C_10  and  S_11 
REMARK    4  A    between atoms: S_11  and  C_12 
REMARK    5  A    between atoms: C_12  and  C_13 
REMARK       I    between atoms: C_13  and  N_14 
REMARK    6  A    between atoms: N_14  and  C_15 
ROOT
HETATM    1  N   UNL     1      27.917  43.532  52.886  1.00  0.00    -0.063 N 
HETATM    2  H   UNL     1      28.139  44.521  52.726  1.00  0.00     0.280 HD
HETATM    3  C   UNL     1      27.709  42.917  51.508  1.00  0.00     0.281 C 
HETATM    4  C   UNL     1      26.469  43.425  50.858  1.00  0.00     0.060 A 
HETATM    5  C   UNL     1      25.494  44.089  51.495  1.00  0.00     0.052 A 
HETATM    6  N   UNL     1      24.412  44.643  50.860  1.00  0.00    -0.228 NA
HETATM    7  C   UNL     1      24.347  44.513  49.577  1.00  0.00     0.169 A 
HETATM    8  N   UNL     1      25.253  43.826  48.834  1.00  0.00    -0.302 N 
HETATM    9  C   UNL     1      26.339  43.235  49.402  1.00  0.00     0.257 A 
HETATM   10  O   UNL     1      27.177  42.597  48.780  1.00  0.00    -0.267 OA
HETATM   11  C   UNL     1      25.555  44.311  52.989  1.00  0.00     0.088 C 
HETATM   12  C   UNL     1      26.639  43.483  53.689  1.00  0.00     0.241 C 
HETATM   13  H   UNL     1      25.127  43.747  47.835  1.00  0.00     0.171 HD
ENDROOT
BRANCH   7  14
HETATM   14  S   UNL     1      23.087  45.228  48.622  1.00  0.00    -0.083 SA
BRANCH  14  15
HETATM   15  C   UNL     1      23.386  46.980  49.020  1.00  0.00     0.185 C 
BRANCH  15  16
HETATM   16  C   UNL     1      22.275  47.922  48.582  1.00  0.00     0.231 C 
HETATM   17  N   UNL     1      21.792  48.769  49.560  1.00  0.00    -0.326 N 
HETATM   18  H   UNL     1      22.150  48.610  50.497  1.00  0.00     0.169 HD
HETATM   19  O   UNL     1      21.920  47.914  47.405  1.00  0.00    -0.272 OA
BRANCH  17  20
HETATM   20  C   UNL     1      20.816  49.778  49.420  1.00  0.00     0.037 A 
HETATM   21  C   UNL     1      19.530  49.701  49.962  1.00  0.00     0.075 A 
HETATM   22  C   UNL     1      18.628  50.744  49.767  1.00  0.00     0.157 A 
HETATM   23  F   UNL     1      17.397  50.653  50.288  1.00  0.00    -0.203 F 
HETATM   24  C   UNL     1      18.992  51.867  49.037  1.00  0.00     0.155 A 
HETATM   25  F   UNL     1      18.120  52.867  48.851  1.00  0.00    -0.203 F 
HETATM   26  C   UNL     1      20.266  51.962  48.491  1.00  0.00     0.048 A 
HETATM   27  C   UNL     1      21.176  50.917  48.682  1.00  0.00     0.032 A 
ENDBRANCH  17  20
ENDBRANCH  15  16
ENDBRANCH  14  15
ENDBRANCH   7  14
BRANCH   1  28
HETATM   28  C   UNL     1      29.102  42.953  53.621  1.00  0.00     0.273 C 
BRANCH  28  29
HETATM   29  C   UNL     1      29.552  43.825  54.763  1.00  0.00    -0.030 A 
HETATM   30  C   UNL     1      28.999  45.116  54.941  1.00  0.00     0.012 A 
HETATM   31  C   UNL     1      29.372  45.914  56.028  1.00  0.00     0.040 A 
HETATM   32  C   UNL     1      30.290  45.404  56.919  1.00  0.00     0.105 A 
HETATM   33  C   UNL     1      30.840  44.158  56.750  1.00  0.00     0.105 A 
HETATM   34  O   UNL     1      30.753  46.028  58.032  1.00  0.00    -0.323 OA
HETATM   35  C   UNL     1      30.503  43.349  55.685  1.00  0.00     0.048 A 
HETATM   36  O   UNL     1      31.715  43.837  57.739  1.00  0.00    -0.323 OA
HETATM   37  C   UNL     1      31.663  45.033  58.550  1.00  0.00     0.352 A 
ENDBRANCH  28  29
ENDBRANCH   1  28
TORSDOF 6
ENDMDL
MODEL 2
REMARK VINA RESULT:     -10.8      4.724     11.508
REMARK  6 active torsions:
REMARK  status: ('A' for Active; 'I' for Inactive)
REMARK    1  A    between atoms: C_2  and  C_3 
REMARK    2  A    between atoms: C_3  and  N_4 
REMARK    3  A    between atoms: C_10  and  S_11 
REMARK    4  A    between atoms: S_11  and  C_12 
REMARK    5  A    between atoms: C_12  and  C_13 
REMARK       I    between atoms: C_13  and  N_14 
REMARK    6  A    between atoms: N_14  and  C_15 
ROOT
HETATM    1  N   UNL     1      24.228  49.755  48.861  1.00  0.00    -0.063 N 
HETATM    2  H   UNL     1      24.249  49.957  49.868  1.00  0.00     0.280 HD
HETATM    3  C   UNL     1      23.631  48.360  48.722  1.00  0.00     0.281 C 
HETATM    4  C   UNL     1      24.552  47.312  49.240  1.00  0.00     0.060 A 
HETATM    5  C   UNL     1      25.851  47.506  49.510  1.00  0.00     0.052 A 
HETATM    6  N   UNL     1      26.657  46.559  50.090  1.00  0.00    -0.228 NA
HETATM    7  C   UNL     1      26.118  45.425  50.389  1.00  0.00     0.169 A 
HETATM    8  N   UNL     1      24.825  45.102  50.123  1.00  0.00    -0.302 N 
HETATM    9  C   UNL     1      23.976  45.987  49.534  1.00  0.00     0.257 A 
HETATM   10  O   UNL     1      22.808  45.742  49.264  1.00  0.00    -0.267 OA
HETATM   11  C   UNL     1      26.512  48.836  49.225  1.00  0.00     0.088 C 
HETATM   12  C   UNL     1      25.655  49.776  48.370  1.00  0.00     0.241 C 
HETATM   13  H   UNL     1      24.476  44.186  50.367  1.00  0.00     0.171 HD
ENDROOT
BRANCH   7  14
HETATM   14  S   UNL     1      26.982  44.158  51.200  1.00  0.00    -0.083 SA
BRANCH  14  15
HETATM   15  C   UNL     1      26.090  44.174  52.788  1.00  0.00     0.185 C 
BRANCH  15  16
HETATM   16  C   UNL     1      26.964  43.897  54.002  1.00  0.00     0.231 C 
HETATM   17  N   UNL     1      28.204  44.505  53.995  1.00  0.00    -0.326 N 
HETATM   18  H   UNL     1      28.452  44.990  53.138  1.00  0.00     0.169 HD
HETATM   19  O   UNL     1      26.508  43.213  54.917  1.00  0.00    -0.272 OA
BRANCH  17  20
HETATM   20  C   UNL     1      29.184  44.472  55.008  1.00  0.00     0.037 A 
HETATM   21  C   UNL     1      29.365  45.486  55.953  1.00  0.00     0.075 A 
HETATM   22  C   UNL     1      30.366  45.371  56.915  1.00  0.00     0.157 A 
HETATM   23  F   UNL     1      30.531  46.354  57.811  1.00  0.00    -0.203 F 
HETATM   24  C   UNL     1      31.191  44.256  56.949  1.00  0.00     0.155 A 
HETATM   25  F   UNL     1      32.153  44.151  57.875  1.00  0.00    -0.203 F 
HETATM   26  C   UNL     1      31.026  43.238  56.018  1.00  0.00     0.048 A 
HETATM   27  C   UNL     1      30.025  43.348  55.048  1.00  0.00     0.032 A 
ENDBRANCH  17  20
ENDBRANCH  15  16
ENDBRANCH  14  15
ENDBRANCH   7  14
BRANCH   1  28
HETATM   28  C   UNL     1      23.370  50.832  48.240  1.00  0.00     0.273 C 
BRANCH  28  29
HETATM   29  C   UNL     1      21.924  50.716  48.641  1.00  0.00    -0.030 A 
HETATM   30  C   UNL     1      21.526  50.970  49.975  1.00  0.00     0.012 A 
HETATM   31  C   UNL     1      20.178  50.916  50.346  1.00  0.00     0.040 A 
HETATM   32  C   UNL     1      19.252  50.611  49.373  1.00  0.00     0.105 A 
HETATM   33  C   UNL     1      19.628  50.353  48.079  1.00  0.00     0.105 A 
HETATM   34  O   UNL     1      17.908  50.531  49.548  1.00  0.00    -0.323 OA
HETATM   35  C   UNL     1      20.948  50.387  47.681  1.00  0.00     0.048 A 
HETATM   36  O   UNL     1      18.568  50.083  47.274  1.00  0.00    -0.323 OA
HETATM   37  C   UNL     1      17.474  50.190  48.214  1.00  0.00     0.352 A 
ENDBRANCH  28  29
ENDBRANCH   1  28
TORSDOF 6
ENDMDL
MODEL 3
REMARK VINA RESULT:     -10.5      2.313      3.081
REMARK  6 active torsions:
REMARK  status: ('A' for Active; 'I' for Inactive)
REMARK    1  A    between atoms: C_2  and  C_3 
REMARK    2  A    between atoms: C_3  and  N_4 
REMARK    3  A    between atoms: C_10  and  S_11 
REMARK    4  A    between atoms: S_11  and  C_12 
REMARK    5  A    between atoms: C_12  and  C_13 
REMARK       I    between atoms: C_13  and  N_14 
REMARK    6  A    between atoms: N_14  and  C_15 
ROOT
HETATM    1  N   UNL     1      26.714  44.348  51.381  1.00  0.00    -0.063 N 
HETATM    2  H   UNL     1      26.590  44.888  52.245  1.00  0.00     0.280 HD
HETATM    3  C   UNL     1      27.247  45.329  50.344  1.00  0.00     0.281 C 
HETATM    4  C   UNL     1      26.219  46.331  49.952  1.00  0.00     0.060 A 
HETATM    5  C   UNL     1      24.910  46.224  50.222  1.00  0.00     0.052 A 
HETATM    6  N   UNL     1      23.995  47.209  49.949  1.00  0.00    -0.228 NA
HETATM    7  C   UNL     1      24.435  48.294  49.406  1.00  0.00     0.169 A 
HETATM    8  N   UNL     1      25.731  48.496  49.051  1.00  0.00    -0.302 N 
HETATM    9  C   UNL     1      26.687  47.555  49.274  1.00  0.00     0.257 A 
HETATM   10  O   UNL     1      27.863  47.683  48.964  1.00  0.00    -0.267 OA
HETATM   11  C   UNL     1      24.358  44.993  50.905  1.00  0.00     0.088 C 
HETATM   12  C   UNL     1      25.355  43.831  50.975  1.00  0.00     0.241 C 
HETATM   13  H   UNL     1      26.000  49.364  48.610  1.00  0.00     0.171 HD
ENDROOT
BRANCH   7  14
HETATM   14  S   UNL     1      23.418  49.661  49.078  1.00  0.00    -0.083 SA
BRANCH  14  15
HETATM   15  C   UNL     1      22.047  48.803  48.240  1.00  0.00     0.185 C 
BRANCH  15  16
HETATM   16  C   UNL     1      20.672  49.108  48.814  1.00  0.00     0.231 C 
HETATM   17  N   UNL     1      20.076  50.264  48.349  1.00  0.00    -0.326 N 
HETATM   18  H   UNL     1      20.654  50.849  47.753  1.00  0.00     0.169 HD
HETATM   19  O   UNL     1      20.161  48.304  49.592  1.00  0.00    -0.272 OA
BRANCH  17  20
HETATM   20  C   UNL     1      18.791  50.755  48.660  1.00  0.00     0.037 A 
HETATM   21  C   UNL     1      17.603  50.180  48.200  1.00  0.00     0.075 A 
HETATM   22  C   UNL     1      16.376  50.739  48.553  1.00  0.00     0.157 A 
HETATM   23  F   UNL     1      15.246  50.179  48.099  1.00  0.00    -0.203 F 
HETATM   24  C   UNL     1      16.318  51.865  49.361  1.00  0.00     0.155 A 
HETATM   25  F   UNL     1      15.136  52.399  49.696  1.00  0.00    -0.203 F 
HETATM   26  C   UNL     1      17.488  52.450  49.828  1.00  0.00     0.048 A 
HETATM   27  C   UNL     1      18.723  51.896  49.475  1.00  0.00     0.032 A 
ENDBRANCH  17  20
ENDBRANCH  15  16
ENDBRANCH  14  15
ENDBRANCH   7  14
BRANCH   1  28
HETATM   28  C   UNL     1      27.692  43.248  51.715  1.00  0.00     0.273 C 
BRANCH  28  29
HETATM   29  C   UNL     1      28.487  43.544  52.959  1.00  0.00    -0.030 A 
HETATM   30  C   UNL     1      29.672  42.823  53.243  1.00  0.00     0.012 A 
HETATM   31  C   UNL     1      30.444  43.126  54.369  1.00  0.00     0.040 A 
HETATM   32  C   UNL     1      30.018  44.147  55.190  1.00  0.00     0.105 A 
HETATM   33  C   UNL     1      28.866  44.844  54.930  1.00  0.00     0.105 A 
HETATM   34  O   UNL     1      30.647  44.585  56.311  1.00  0.00    -0.323 OA
HETATM   35  C   UNL     1      28.074  44.566  53.835  1.00  0.00     0.048 A 
HETATM   36  O   UNL     1      28.626  45.814  55.851  1.00  0.00    -0.323 OA
HETATM   37  C   UNL     1      29.759  45.641  56.733  1.00  0.00     0.352 A 
ENDBRANCH  28  29
ENDBRANCH   1  28
TORSDOF 6
ENDMDL
MODEL 4
REMARK VINA RESULT:     -10.5      4.605     11.483
REMARK  6 active torsions:
REMARK  status: ('A' for Active; 'I' for Inactive)
REMARK    1  A    between atoms: C_2  and  C_3 
REMARK    2  A    between atoms: C_3  and  N_4 
REMARK    3  A    between atoms: C_10  and  S_11 
REMARK    4  A    between atoms: S_11  and  C_12 
REMARK    5  A    between atoms: C_12  and  C_13 
REMARK       I    between atoms: C_13  and  N_14 
REMARK    6  A    between atoms: N_14  and  C_15 
ROOT
HETATM    1  N   UNL     1      23.603  48.379  48.436  1.00  0.00    -0.063 N 
HETATM    2  H   UNL     1      24.256  48.010  47.734  1.00  0.00     0.280 HD
HETATM    3  C   UNL     1      24.357  48.369  49.760  1.00  0.00     0.281 C 
HETATM    4  C   UNL     1      24.601  46.984  50.246  1.00  0.00     0.060 A 
HETATM    5  C   UNL     1      23.988  45.891  49.768  1.00  0.00     0.052 A 
HETATM    6  N   UNL     1      24.305  44.613  50.152  1.00  0.00    -0.228 NA
HETATM    7  C   UNL     1      25.252  44.472  51.019  1.00  0.00     0.169 A 
HETATM    8  N   UNL     1      25.912  45.507  51.601  1.00  0.00    -0.302 N 
HETATM    9  C   UNL     1      25.635  46.799  51.281  1.00  0.00     0.257 A 
HETATM   10  O   UNL     1      26.192  47.766  51.783  1.00  0.00    -0.267 OA
HETATM   11  C   UNL     1      22.910  46.005  48.714  1.00  0.00     0.088 C 
HETATM   12  C   UNL     1      22.422  47.440  48.488  1.00  0.00     0.241 C 
HETATM   13  H   UNL     1      26.629  45.321  52.288  1.00  0.00     0.171 HD
ENDROOT
BRANCH   7  14
HETATM   14  S   UNL     1      25.824  42.919  51.541  1.00  0.00    -0.083 SA
BRANCH  14  15
HETATM   15  C   UNL     1      27.563  43.350  51.869  1.00  0.00     0.185 C 
BRANCH  15  16
HETATM   16  C   UNL     1      27.930  43.402  53.344  1.00  0.00     0.231 C 
HETATM   17  N   UNL     1      29.165  43.951  53.631  1.00  0.00    -0.326 N 
HETATM   18  H   UNL     1      29.748  44.169  52.828  1.00  0.00     0.169 HD
HETATM   19  O   UNL     1      27.110  43.015  54.174  1.00  0.00    -0.272 OA
BRANCH  17  20
HETATM   20  C   UNL     1      29.731  44.178  54.902  1.00  0.00     0.037 A 
HETATM   21  C   UNL     1      29.380  45.244  55.735  1.00  0.00     0.075 A 
HETATM   22  C   UNL     1      29.999  45.393  56.974  1.00  0.00     0.157 A 
HETATM   23  F   UNL     1      29.655  46.424  57.759  1.00  0.00    -0.203 F 
HETATM   24  C   UNL     1      30.965  44.491  57.397  1.00  0.00     0.155 A 
HETATM   25  F   UNL     1      31.557  44.640  58.589  1.00  0.00    -0.203 F 
HETATM   26  C   UNL     1      31.326  43.425  56.583  1.00  0.00     0.048 A 
HETATM   27  C   UNL     1      30.711  43.270  55.336  1.00  0.00     0.032 A 
ENDBRANCH  17  20
ENDBRANCH  15  16
ENDBRANCH  14  15
ENDBRANCH   7  14
BRANCH   1  28
HETATM   28  C   UNL     1      23.237  49.769  47.972  1.00  0.00     0.273 C 
BRANCH  28  29
HETATM   29  C   UNL     1      21.900  50.217  48.502  1.00  0.00    -0.030 A 
HETATM   30  C   UNL     1      21.777  50.691  49.830  1.00  0.00     0.012 A 
HETATM   31  C   UNL     1      20.551  51.157  50.316  1.00  0.00     0.040 A 
HETATM   32  C   UNL     1      19.471  51.145  49.461  1.00  0.00     0.105 A 
HETATM   33  C   UNL     1      19.577  50.678  48.176  1.00  0.00     0.105 A 
HETATM   34  O   UNL     1      18.216  51.572  49.755  1.00  0.00    -0.323 OA
HETATM   35  C   UNL     1      20.767  50.200  47.667  1.00  0.00     0.048 A 
HETATM   36  O   UNL     1      18.404  50.757  47.494  1.00  0.00    -0.323 OA
HETATM   37  C   UNL     1      17.537  51.321  48.506  1.00  0.00     0.352 A 
ENDBRANCH  28  29
ENDBRANCH   1  28
TORSDOF 6
ENDMDL
MODEL 5
REMARK VINA RESULT:     -10.4      4.628     11.615
REMARK  6 active torsions:
REMARK  status: ('A' for Active; 'I' for Inactive)
REMARK    1  A    between atoms: C_2  and  C_3 
REMARK    2  A    between atoms: C_3  and  N_4 
REMARK    3  A    between atoms: C_10  and  S_11 
REMARK    4  A    between atoms: S_11  and  C_12 
REMARK    5  A    between atoms: C_12  and  C_13 
REMARK       I    between atoms: C_13  and  N_14 
REMARK    6  A    between atoms: N_14  and  C_15 
ROOT
HETATM    1  N   UNL     1      22.999  49.544  48.137  1.00  0.00    -0.063 N 
HETATM    2  H   UNL     1      23.088  49.003  47.269  1.00  0.00     0.280 HD
HETATM    3  C   UNL     1      24.413  49.706  48.679  1.00  0.00     0.281 C 
HETATM    4  C   UNL     1      24.972  48.414  49.161  1.00  0.00     0.060 A 
HETATM    5  C   UNL     1      24.247  47.308  49.386  1.00  0.00     0.052 A 
HETATM    6  N   UNL     1      24.794  46.097  49.725  1.00  0.00    -0.228 NA
HETATM    7  C   UNL     1      26.080  46.034  49.825  1.00  0.00     0.169 A 
HETATM    8  N   UNL     1      26.909  47.097  49.661  1.00  0.00    -0.302 N 
HETATM    9  C   UNL     1      26.433  48.331  49.343  1.00  0.00     0.257 A 
HETATM   10  O   UNL     1      27.135  49.321  49.196  1.00  0.00    -0.267 OA
HETATM   11  C   UNL     1      22.743  47.322  49.230  1.00  0.00     0.088 C 
HETATM   12  C   UNL     1      22.154  48.730  49.088  1.00  0.00     0.241 C 
HETATM   13  H   UNL     1      27.906  46.978  49.775  1.00  0.00     0.171 HD
ENDROOT
BRANCH   7  14
HETATM   14  S   UNL     1      26.925  44.556  50.163  1.00  0.00    -0.083 SA
BRANCH  14  15
HETATM   15  C   UNL     1      25.890  43.940  51.528  1.00  0.00     0.185 C 
BRANCH  15  16
HETATM   16  C   UNL     1      26.559  43.984  52.893  1.00  0.00     0.231 C 
HETATM   17  N   UNL     1      27.935  44.105  52.878  1.00  0.00    -0.326 N 
HETATM   18  H   UNL     1      28.372  44.049  51.964  1.00  0.00     0.169 HD
HETATM   19  O   UNL     1      25.854  43.964  53.901  1.00  0.00    -0.272 OA
BRANCH  17  20
HETATM   20  C   UNL     1      28.800  44.230  53.985  1.00  0.00     0.037 A 
HETATM   21  C   UNL     1      28.758  45.292  54.893  1.00  0.00     0.075 A 
HETATM   22  C   UNL     1      29.659  45.336  55.955  1.00  0.00     0.157 A 
HETATM   23  F   UNL     1      29.610  46.363  56.815  1.00  0.00    -0.203 F 
HETATM   24  C   UNL     1      30.603  44.332  56.125  1.00  0.00     0.155 A 
HETATM   25  F   UNL     1      31.467  44.380  57.147  1.00  0.00    -0.203 F 
HETATM   26  C   UNL     1      30.659  43.270  55.233  1.00  0.00     0.048 A 
HETATM   27  C   UNL     1      29.759  43.221  54.163  1.00  0.00     0.032 A 
ENDBRANCH  17  20
ENDBRANCH  15  16
ENDBRANCH  14  15
ENDBRANCH   7  14
BRANCH   1  28
HETATM   28  C   UNL     1      22.358  50.854  47.747  1.00  0.00     0.273 C 
BRANCH  28  29
HETATM   29  C   UNL     1      20.866  50.845  47.944  1.00  0.00    -0.030 A 
HETATM   30  C   UNL     1      20.045  49.991  47.170  1.00  0.00     0.012 A 
HETATM   31  C   UNL     1      18.663  49.938  47.381  1.00  0.00     0.040 A 
HETATM   32  C   UNL     1      18.128  50.738  48.366  1.00  0.00     0.105 A 
HETATM   33  C   UNL     1      18.913  51.576  49.115  1.00  0.00     0.105 A 
HETATM   34  O   UNL     1      16.818  50.803  48.718  1.00  0.00    -0.323 OA
HETATM   35  C   UNL     1      20.277  51.663  48.927  1.00  0.00     0.048 A 
HETATM   36  O   UNL     1      18.199  52.273  50.038  1.00  0.00    -0.323 OA
HETATM   37  C   UNL     1      16.863  51.783  49.777  1.00  0.00     0.352 A 
ENDBRANCH  28  29
ENDBRANCH   1  28
TORSDOF 6
ENDMDL
MODEL 6
REMARK VINA RESULT:     -10.4      4.724     11.477
REMARK  6 active torsions:
REMARK  status: ('A' for Active; 'I' for Inactive)
REMARK    1  A    between atoms: C_2  and  C_3 
REMARK    2  A    between atoms: C_3  and  N_4 
REMARK    3  A    between atoms: C_10  and  S_11 
REMARK    4  A    between atoms: S_11  and  C_12 
REMARK    5  A    between atoms: C_12  and  C_13 
REMARK       I    between atoms: C_13  and  N_14 
REMARK    6  A    between atoms: N_14  and  C_15 
ROOT
HETATM    1  N   UNL     1      21.405  46.225  48.788  1.00  0.00    -0.063 N 
HETATM    2  H   UNL     1      21.160  46.277  49.784  1.00  0.00     0.280 HD
HETATM    3  C   UNL     1      21.694  44.756  48.502  1.00  0.00     0.281 C 
HETATM    4  C   UNL     1      22.946  44.300  49.165  1.00  0.00     0.060 A 
HETATM    5  C   UNL     1      23.871  45.119  49.689  1.00  0.00     0.052 A 
HETATM    6  N   UNL     1      24.964  44.679  50.392  1.00  0.00    -0.228 NA
HETATM    7  C   UNL     1      25.091  43.404  50.553  1.00  0.00     0.169 A 
HETATM    8  N   UNL     1      24.241  42.482  50.032  1.00  0.00    -0.302 N 
HETATM    9  C   UNL     1      23.148  42.847  49.309  1.00  0.00     0.257 A 
HETATM   10  O   UNL     1      22.359  42.057  48.810  1.00  0.00    -0.267 OA
HETATM   11  C   UNL     1      23.734  46.619  49.570  1.00  0.00     0.088 C 
HETATM   12  C   UNL     1      22.645  47.061  48.585  1.00  0.00     0.241 C 
HETATM   13  H   UNL     1      24.415  41.498  50.181  1.00  0.00     0.171 HD
ENDROOT
BRANCH   7  14
HETATM   14  S   UNL     1      26.372  42.698  51.488  1.00  0.00    -0.083 SA
BRANCH  14  15
HETATM   15  C   UNL     1      26.933  44.187  52.374  1.00  0.00     0.185 C 
BRANCH  15  16
HETATM   16  C   UNL     1      27.593  43.908  53.715  1.00  0.00     0.231 C 
HETATM   17  N   UNL     1      28.735  44.639  53.981  1.00  0.00    -0.326 N 
HETATM   18  H   UNL     1      29.079  45.212  53.216  1.00  0.00     0.169 HD
HETATM   19  O   UNL     1      27.059  43.112  54.486  1.00  0.00    -0.272 OA
BRANCH  17  20
HETATM   20  C   UNL     1      29.508  44.629  55.160  1.00  0.00     0.037 A 
HETATM   21  C   UNL     1      29.439  45.615  56.148  1.00  0.00     0.075 A 
HETATM   22  C   UNL     1      30.249  45.526  57.279  1.00  0.00     0.157 A 
HETATM   23  F   UNL     1      30.174  46.482  58.215  1.00  0.00    -0.203 F 
HETATM   24  C   UNL     1      31.128  44.464  57.439  1.00  0.00     0.155 A 
HETATM   25  F   UNL     1      31.904  44.384  58.527  1.00  0.00    -0.203 F 
HETATM   26  C   UNL     1      31.210  43.475  56.467  1.00  0.00     0.048 A 
HETATM   27  C   UNL     1      30.402  43.559  55.328  1.00  0.00     0.032 A 
ENDBRANCH  17  20
ENDBRANCH  15  16
ENDBRANCH  14  15
ENDBRANCH   7  14
BRANCH   1  28
HETATM   28  C   UNL     1      20.205  46.750  48.036  1.00  0.00     0.273 C 
BRANCH  28  29
HETATM   29  C   UNL     1      19.652  48.010  48.648  1.00  0.00    -0.030 A 
HETATM   30  C   UNL     1      19.128  47.999  49.963  1.00  0.00     0.012 A 
HETATM   31  C   UNL     1      18.658  49.174  50.559  1.00  0.00     0.040 A 
HETATM   32  C   UNL     1      18.725  50.340  49.829  1.00  0.00     0.105 A 
HETATM   33  C   UNL     1      19.221  50.360  48.550  1.00  0.00     0.105 A 
HETATM   34  O   UNL     1      18.332  51.570  50.251  1.00  0.00    -0.323 OA
HETATM   35  C   UNL     1      19.682  49.219  47.927  1.00  0.00     0.048 A 
HETATM   36  O   UNL     1      19.208  51.605  48.006  1.00  0.00    -0.323 OA
HETATM   37  C   UNL     1      18.635  52.372  49.090  1.00  0.00     0.352 A 
ENDBRANCH  28  29
ENDBRANCH   1  28
TORSDOF 6
ENDMDL
MODEL 7
REMARK VINA RESULT:     -10.3      1.500      2.203
REMARK  6 active torsions:
REMARK  status: ('A' for Active; 'I' for Inactive)
REMARK    1  A    between atoms: C_2  and  C_3 
REMARK    2  A    between atoms: C_3  and  N_4 
REMARK    3  A    between atoms: C_10  and  S_11 
REMARK    4  A    between atoms: S_11  and  C_12 
REMARK    5  A    between atoms: C_12  and  C_13 
REMARK       I    between atoms: C_13  and  N_14 
REMARK    6  A    between atoms: N_14  and  C_15 
ROOT
HETATM    1  N   UNL     1      27.974  42.905  52.015  1.00  0.00    -0.063 N 
HETATM    2  H   UNL     1      27.375  43.114  52.822  1.00  0.00     0.280 HD
HETATM    3  C   UNL     1      27.822  44.083  51.061  1.00  0.00     0.281 C 
HETATM    4  C   UNL     1      26.465  44.129  50.452  1.00  0.00     0.060 A 
HETATM    5  C   UNL     1      25.584  43.119  50.479  1.00  0.00     0.052 A 
HETATM    6  N   UNL     1      24.299  43.218  50.008  1.00  0.00    -0.228 NA
HETATM    7  C   UNL     1      23.933  44.355  49.519  1.00  0.00     0.169 A 
HETATM    8  N   UNL     1      24.752  45.433  49.402  1.00  0.00    -0.302 N 
HETATM    9  C   UNL     1      26.042  45.398  49.830  1.00  0.00     0.257 A 
HETATM   10  O   UNL     1      26.822  46.336  49.738  1.00  0.00    -0.267 OA
HETATM   11  C   UNL     1      25.952  41.786  51.089  1.00  0.00     0.088 C 
HETATM   12  C   UNL     1      27.449  41.638  51.383  1.00  0.00     0.241 C 
HETATM   13  H   UNL     1      24.402  46.286  48.989  1.00  0.00     0.171 HD
ENDROOT
BRANCH   7  14
HETATM   14  S   UNL     1      22.319  44.663  48.961  1.00  0.00    -0.083 SA
BRANCH  14  15
HETATM   15  C   UNL     1      22.582  46.303  48.215  1.00  0.00     0.185 C 
BRANCH  15  16
HETATM   16  C   UNL     1      21.364  47.214  48.253  1.00  0.00     0.231 C 
HETATM   17  N   UNL     1      21.432  48.261  49.151  1.00  0.00    -0.326 N 
HETATM   18  H   UNL     1      22.238  48.261  49.768  1.00  0.00     0.169 HD
HETATM   19  O   UNL     1      20.441  47.003  47.469  1.00  0.00    -0.272 OA
BRANCH  17  20
HETATM   20  C   UNL     1      20.483  49.285  49.352  1.00  0.00     0.037 A 
HETATM   21  C   UNL     1      20.586  50.565  48.802  1.00  0.00     0.075 A 
HETATM   22  C   UNL     1      19.602  51.517  49.062  1.00  0.00     0.157 A 
HETATM   23  F   UNL     1      19.718  52.742  48.531  1.00  0.00    -0.203 F 
HETATM   24  C   UNL     1      18.512  51.208  49.864  1.00  0.00     0.155 A 
HETATM   25  F   UNL     1      17.569  52.126  50.111  1.00  0.00    -0.203 F 
HETATM   26  C   UNL     1      18.392  49.940  50.419  1.00  0.00     0.048 A 
HETATM   27  C   UNL     1      19.378  48.981  50.164  1.00  0.00     0.032 A 
ENDBRANCH  17  20
ENDBRANCH  15  16
ENDBRANCH  14  15
ENDBRANCH   7  14
BRANCH   1  28
HETATM   28  C   UNL     1      29.374  42.760  52.561  1.00  0.00     0.273 C 
BRANCH  28  29
HETATM   29  C   UNL     1      29.549  43.460  53.883  1.00  0.00    -0.030 A 
HETATM   30  C   UNL     1      30.668  43.176  54.702  1.00  0.00     0.012 A 
HETATM   31  C   UNL     1      30.867  43.859  55.907  1.00  0.00     0.040 A 
HETATM   32  C   UNL     1      29.945  44.815  56.268  1.00  0.00     0.105 A 
HETATM   33  C   UNL     1      28.851  45.090  55.487  1.00  0.00     0.105 A 
HETATM   34  O   UNL     1      29.987  45.581  57.388  1.00  0.00    -0.323 OA
HETATM   35  C   UNL     1      28.617  44.430  54.299  1.00  0.00     0.048 A 
HETATM   36  O   UNL     1      28.069  46.069  56.013  1.00  0.00    -0.323 OA
HETATM   37  C   UNL     1      28.791  46.374  57.228  1.00  0.00     0.352 A 
ENDBRANCH  28  29
ENDBRANCH   1  28
TORSDOF 6
ENDMDL
MODEL 8
REMARK VINA RESULT:     -10.0      4.561     11.197
REMARK  6 active torsions:
REMARK  status: ('A' for Active; 'I' for Inactive)
REMARK    1  A    between atoms: C_2  and  C_3 
REMARK    2  A    between atoms: C_3  and  N_4 
REMARK    3  A    between atoms: C_10  and  S_11 
REMARK    4  A    between atoms: S_11  and  C_12 
REMARK    5  A    between atoms: C_12  and  C_13 
REMARK       I    between atoms: C_13  and  N_14 
REMARK    6  A    between atoms: N_14  and  C_15 
ROOT
HETATM    1  N   UNL     1      22.727  48.748  48.875  1.00  0.00    -0.063 N 
HETATM    2  H   UNL     1      22.266  48.687  49.791  1.00  0.00     0.280 HD
HETATM    3  C   UNL     1      22.388  47.454  48.145  1.00  0.00     0.281 C 
HETATM    4  C   UNL     1      23.059  46.278  48.765  1.00  0.00     0.060 A 
HETATM    5  C   UNL     1      24.067  46.355  49.646  1.00  0.00     0.052 A 
HETATM    6  N   UNL     1      24.599  45.265  50.288  1.00  0.00    -0.228 NA
HETATM    7  C   UNL     1      24.086  44.111  50.021  1.00  0.00     0.169 A 
HETATM    8  N   UNL     1      23.093  43.910  49.116  1.00  0.00    -0.302 N 
HETATM    9  C   UNL     1      22.533  44.942  48.430  1.00  0.00     0.257 A 
HETATM   10  O   UNL     1      21.646  44.813  47.598  1.00  0.00    -0.267 OA
HETATM   11  C   UNL     1      24.663  47.691  50.028  1.00  0.00     0.088 C 
HETATM   12  C   UNL     1      24.213  48.845  49.125  1.00  0.00     0.241 C 
HETATM   13  H   UNL     1      22.755  42.974  48.942  1.00  0.00     0.171 HD
ENDROOT
BRANCH   7  14
HETATM   14  S   UNL     1      24.593  42.652  50.811  1.00  0.00    -0.083 SA
BRANCH  14  15
HETATM   15  C   UNL     1      26.337  42.633  50.288  1.00  0.00     0.185 C 
BRANCH  15  16
HETATM   16  C   UNL     1      27.263  43.466  51.161  1.00  0.00     0.231 C 
HETATM   17  N   UNL     1      27.343  43.079  52.484  1.00  0.00    -0.326 N 
HETATM   18  H   UNL     1      26.700  42.346  52.768  1.00  0.00     0.169 HD
HETATM   19  O   UNL     1      27.911  44.374  50.642  1.00  0.00    -0.272 OA
BRANCH  17  20
HETATM   20  C   UNL     1      28.161  43.627  53.494  1.00  0.00     0.037 A 
HETATM   21  C   UNL     1      29.320  43.015  53.979  1.00  0.00     0.075 A 
HETATM   22  C   UNL     1      30.063  43.629  54.985  1.00  0.00     0.157 A 
HETATM   23  F   UNL     1      31.169  43.026  55.443  1.00  0.00    -0.203 F 
HETATM   24  C   UNL     1      29.666  44.848  55.515  1.00  0.00     0.155 A 
HETATM   25  F   UNL     1      30.383  45.433  56.483  1.00  0.00    -0.203 F 
HETATM   26  C   UNL     1      28.517  45.471  55.046  1.00  0.00     0.048 A 
HETATM   27  C   UNL     1      27.765  44.860  54.038  1.00  0.00     0.032 A 
ENDBRANCH  17  20
ENDBRANCH  15  16
ENDBRANCH  14  15
ENDBRANCH   7  14
BRANCH   1  28
HETATM   28  C   UNL     1      22.157  49.974  48.204  1.00  0.00     0.273 C 
BRANCH  28  29
HETATM   29  C   UNL     1      20.803  50.349  48.747  1.00  0.00    -0.030 A 
HETATM   30  C   UNL     1      20.152  49.517  49.689  1.00  0.00     0.012 A 
HETATM   31  C   UNL     1      18.918  49.881  50.238  1.00  0.00     0.040 A 
HETATM   32  C   UNL     1      18.359  51.074  49.836  1.00  0.00     0.105 A 
HETATM   33  C   UNL     1      18.977  51.883  48.916  1.00  0.00     0.105 A 
HETATM   34  O   UNL     1      17.182  51.591  50.273  1.00  0.00    -0.323 OA
HETATM   35  C   UNL     1      20.188  51.550  48.346  1.00  0.00     0.048 A 
HETATM   36  O   UNL     1      18.270  53.015  48.661  1.00  0.00    -0.323 OA
HETATM   37  C   UNL     1      17.124  52.822  49.522  1.00  0.00     0.352 A 
ENDBRANCH  28  29
ENDBRANCH   1  28
TORSDOF 6
ENDMDL
MODEL 9
REMARK VINA RESULT:      -9.5      4.866     11.807
REMARK  6 active torsions:
REMARK  status: ('A' for Active; 'I' for Inactive)
REMARK    1  A    between atoms: C_2  and  C_3 
REMARK    2  A    between atoms: C_3  and  N_4 
REMARK    3  A    between atoms: C_10  and  S_11 
REMARK    4  A    between atoms: S_11  and  C_12 
REMARK    5  A    between atoms: C_12  and  C_13 
REMARK       I    between atoms: C_13  and  N_14 
REMARK    6  A    between atoms: N_14  and  C_15 
ROOT
HETATM    1  N   UNL     1      20.851  47.709  47.231  1.00  0.00    -0.063 N 
HETATM    2  H   UNL     1      21.460  47.366  46.480  1.00  0.00     0.280 HD
HETATM    3  C   UNL     1      21.745  48.513  48.167  1.00  0.00     0.281 C 
HETATM    4  C   UNL     1      22.702  47.641  48.901  1.00  0.00     0.060 A 
HETATM    5  C   UNL     1      22.606  46.306  48.982  1.00  0.00     0.052 A 
HETATM    6  N   UNL     1      23.557  45.510  49.571  1.00  0.00    -0.228 NA
HETATM    7  C   UNL     1      24.596  46.095  50.065  1.00  0.00     0.169 A 
HETATM    8  N   UNL     1      24.779  47.441  50.077  1.00  0.00    -0.302 N 
HETATM    9  C   UNL     1      23.868  48.290  49.529  1.00  0.00     0.257 A 
HETATM   10  O   UNL     1      23.980  49.508  49.524  1.00  0.00    -0.267 OA
HETATM   11  C   UNL     1      21.433  45.575  48.372  1.00  0.00     0.088 C 
HETATM   12  C   UNL     1      20.289  46.500  47.941  1.00  0.00     0.241 C 
HETATM   13  H   UNL     1      25.609  47.831  50.501  1.00  0.00     0.171 HD
ENDROOT
BRANCH   7  14
HETATM   14  S   UNL     1      25.922  45.222  50.766  1.00  0.00    -0.083 SA
BRANCH  14  15
HETATM   15  C   UNL     1      25.081  44.559  52.239  1.00  0.00     0.185 C 
BRANCH  15  16
HETATM   16  C   UNL     1      25.987  44.363  53.445  1.00  0.00     0.231 C 
HETATM   17  N   UNL     1      27.282  44.819  53.297  1.00  0.00    -0.326 N 
HETATM   18  H   UNL     1      27.531  45.145  52.368  1.00  0.00     0.169 HD
HETATM   19  O   UNL     1      25.515  43.874  54.469  1.00  0.00    -0.272 OA
BRANCH  17  20
HETATM   20  C   UNL     1      28.310  44.822  54.263  1.00  0.00     0.037 A 
HETATM   21  C   UNL     1      29.253  43.800  54.403  1.00  0.00     0.075 A 
HETATM   22  C   UNL     1      30.229  43.885  55.393  1.00  0.00     0.157 A 
HETATM   23  F   UNL     1      31.124  42.894  55.519  1.00  0.00    -0.203 F 
HETATM   24  C   UNL     1      30.280  44.978  56.247  1.00  0.00     0.155 A 
HETATM   25  F   UNL     1      31.220  45.054  57.198  1.00  0.00    -0.203 F 
HETATM   26  C   UNL     1      29.351  46.003  56.122  1.00  0.00     0.048 A 
HETATM   27  C   UNL     1      28.366  45.923  55.132  1.00  0.00     0.032 A 
ENDBRANCH  17  20
ENDBRANCH  15  16
ENDBRANCH  14  15
ENDBRANCH   7  14
BRANCH   1  28
HETATM   28  C   UNL     1      19.791  48.547  46.558  1.00  0.00     0.273 C 
BRANCH  28  29
HETATM   29  C   UNL     1      19.338  49.698  47.416  1.00  0.00    -0.030 A 
HETATM   30  C   UNL     1      20.191  50.804  47.642  1.00  0.00     0.012 A 
HETATM   31  C   UNL     1      19.761  51.902  48.396  1.00  0.00     0.040 A 
HETATM   32  C   UNL     1      18.482  51.873  48.907  1.00  0.00     0.105 A 
HETATM   33  C   UNL     1      17.651  50.802  48.702  1.00  0.00     0.105 A 
HETATM   34  O   UNL     1      17.895  52.852  49.643  1.00  0.00    -0.323 OA
HETATM   35  C   UNL     1      18.045  49.699  47.975  1.00  0.00     0.048 A 
HETATM   36  O   UNL     1      16.432  50.971  49.280  1.00  0.00    -0.323 OA
HETATM   37  C   UNL     1      16.594  52.275  49.884  1.00  0.00     0.352 A 
ENDBRANCH  28  29
ENDBRANCH   1  28
TORSDOF 6
ENDMDL
MODEL 10
REMARK VINA RESULT:      -9.4      4.662     12.328
REMARK  6 active torsions:
REMARK  status: ('A' for Active; 'I' for Inactive)
REMARK    1  A    between atoms: C_2  and  C_3 
REMARK    2  A    between atoms: C_3  and  N_4 
REMARK    3  A    between atoms: C_10  and  S_11 
REMARK    4  A    between atoms: S_11  and  C_12 
REMARK    5  A    between atoms: C_12  and  C_13 
REMARK       I    between atoms: C_13  and  N_14 
REMARK    6  A    between atoms: N_14  and  C_15 
ROOT
HETATM    1  N   UNL     1      20.859  50.681  48.976  1.00  0.00    -0.063 N 
HETATM    2  H   UNL     1      20.888  50.693  50.003  1.00  0.00     0.280 HD
HETATM    3  C   UNL     1      20.757  49.215  48.574  1.00  0.00     0.281 C 
HETATM    4  C   UNL     1      22.012  48.473  48.869  1.00  0.00     0.060 A 
HETATM    5  C   UNL     1      23.187  49.050  49.159  1.00  0.00     0.052 A 
HETATM    6  N   UNL     1      24.306  48.350  49.534  1.00  0.00    -0.228 NA
HETATM    7  C   UNL     1      24.202  47.065  49.612  1.00  0.00     0.169 A 
HETATM    8  N   UNL     1      23.076  46.371  49.301  1.00  0.00    -0.302 N 
HETATM    9  C   UNL     1      21.938  47.000  48.904  1.00  0.00     0.257 A 
HETATM   10  O   UNL     1      20.903  46.422  48.603  1.00  0.00    -0.267 OA
HETATM   11  C   UNL     1      23.340  50.554  49.132  1.00  0.00     0.088 C 
HETATM   12  C   UNL     1      22.155  51.279  48.484  1.00  0.00     0.241 C 
HETATM   13  H   UNL     1      23.075  45.363  49.366  1.00  0.00     0.171 HD
ENDROOT
BRANCH   7  14
HETATM   14  S   UNL     1      25.501  46.049  50.152  1.00  0.00    -0.083 SA
BRANCH  14  15
HETATM   15  C   UNL     1      24.601  45.075  51.401  1.00  0.00     0.185 C 
BRANCH  15  16
HETATM   16  C   UNL     1      25.465  44.575  52.549  1.00  0.00     0.231 C 
HETATM   17  N   UNL     1      26.828  44.617  52.331  1.00  0.00    -0.326 N 
HETATM   18  H   UNL     1      27.116  44.878  51.393  1.00  0.00     0.169 HD
HETATM   19  O   UNL     1      24.919  44.224  53.594  1.00  0.00    -0.272 OA
BRANCH  17  20
HETATM   20  C   UNL     1      27.855  44.276  53.236  1.00  0.00     0.037 A 
HETATM   21  C   UNL     1      28.228  45.065  54.327  1.00  0.00     0.075 A 
HETATM   22  C   UNL     1      29.262  44.652  55.165  1.00  0.00     0.157 A 
HETATM   23  F   UNL     1      29.611  45.422  56.205  1.00  0.00    -0.203 F 
HETATM   24  C   UNL     1      29.929  43.458  54.930  1.00  0.00     0.155 A 
HETATM   25  F   UNL     1      30.923  43.066  55.738  1.00  0.00    -0.203 F 
HETATM   26  C   UNL     1      29.572  42.661  53.850  1.00  0.00     0.048 A 
HETATM   27  C   UNL     1      28.538  43.071  53.003  1.00  0.00     0.032 A 
ENDBRANCH  17  20
ENDBRANCH  15  16
ENDBRANCH  14  15
ENDBRANCH   7  14
BRANCH   1  28
HETATM   28  C   UNL     1      19.646  51.490  48.585  1.00  0.00     0.273 C 
BRANCH  28  29
HETATM   29  C   UNL     1      18.699  50.717  47.706  1.00  0.00    -0.030 A 
HETATM   30  C   UNL     1      19.028  50.454  46.355  1.00  0.00     0.012 A 
HETATM   31  C   UNL     1      18.179  49.692  45.544  1.00  0.00     0.040 A 
HETATM   32  C   UNL     1      17.018  49.206  46.102  1.00  0.00     0.105 A 
HETATM   33  C   UNL     1      16.685  49.464  47.407  1.00  0.00     0.105 A 
HETATM   34  O   UNL     1      16.090  48.440  45.472  1.00  0.00    -0.323 OA
HETATM   35  C   UNL     1      17.492  50.220  48.232  1.00  0.00     0.048 A 
HETATM   36  O   UNL     1      15.507  48.890  47.767  1.00  0.00    -0.323 OA
HETATM   37  C   UNL     1      15.127  48.244  46.530  1.00  0.00     0.352 A 
ENDBRANCH  28  29
ENDBRANCH   1  28
TORSDOF 6
ENDMDL
