MODEL 1
REMARK VINA RESULT:     -10.2      0.000      0.000
REMARK  2 active torsions:
REMARK  status: ('A' for Active; 'I' for Inactive)
REMARK    1  A    between atoms: C_4  and  C_5 
REMARK       I    between atoms: N_12  and  C_13 
REMARK    2  A    between atoms: C_13  and  C_14 
ROOT
HETATM    1  C   UNL     1      28.320  42.602  53.211  1.00  0.00     0.097 A 
HETATM    2  N   UNL     1      28.122  41.284  53.408  1.00  0.00    -0.173 NA
HETATM    3  N   UNL     1      27.419  40.871  52.342  1.00  0.00    -0.281 N 
HETATM    4  H   UNL     1      27.138  39.896  52.299  1.00  0.00     0.189 HD
HETATM    5  C   UNL     1      27.153  41.872  51.469  1.00  0.00     0.039 A 
HETATM    6  C   UNL     1      27.737  43.011  51.977  1.00  0.00     0.015 A 
HETATM    7  C   UNL     1      27.643  44.336  51.307  1.00  0.00     0.168 C 
HETATM    8  N   UNL     1      26.547  44.312  50.311  1.00  0.00    -0.347 N 
HETATM    9  C   UNL     1      25.866  45.449  49.879  1.00  0.00     0.226 C 
HETATM   10  O   UNL     1      25.229  45.440  48.824  1.00  0.00    -0.273 OA
HETATM   11  C   UNL     1      26.483  43.107  49.449  1.00  0.00     0.132 C 
HETATM   12  C   UNL     1      26.313  41.799  50.254  1.00  0.00     0.079 C 
ENDROOT
BRANCH   9  13
HETATM   13  C   UNL     1      25.961  46.720  50.730  1.00  0.00     0.106 C 
HETATM   14  C   UNL     1      27.049  47.663  50.215  1.00  0.00     0.190 C 
HETATM   15  O   UNL     1      26.745  48.317  48.981  1.00  0.00    -0.350 OA
HETATM   16  C   UNL     1      25.489  48.843  48.894  1.00  0.00     0.075 A 
HETATM   17  C   UNL     1      24.443  48.485  49.742  1.00  0.00    -0.024 A 
HETATM   18  C   UNL     1      25.278  49.760  47.865  1.00  0.00     0.037 A 
HETATM   19  C   UNL     1      24.636  47.475  50.833  1.00  0.00     0.057 C 
HETATM   20  C   UNL     1      23.190  49.095  49.578  1.00  0.00     0.010 A 
HETATM   21  C   UNL     1      22.983  50.026  48.560  1.00  0.00     0.001 A 
HETATM   22  C   UNL     1      24.027  50.355  47.699  1.00  0.00     0.003 A 
ENDBRANCH   9  13
BRANCH   1  23
HETATM   23  C   UNL     1      29.002  43.414  54.222  1.00  0.00    -0.005 A 
HETATM   24  C   UNL     1      28.428  44.584  54.736  1.00  0.00     0.014 A 
HETATM   25  C   UNL     1      29.083  45.318  55.730  1.00  0.00     0.001 A 
HETATM   26  C   UNL     1      30.320  44.896  56.212  1.00  0.00     0.000 A 
HETATM   27  C   UNL     1      30.910  43.745  55.697  1.00  0.00     0.001 A 
HETATM   28  C   UNL     1      30.255  43.010  54.707  1.00  0.00     0.014 A 
ENDBRANCH   1  23
TORSDOF 2
ENDMDL
MODEL 2
REMARK VINA RESULT:      -9.2      3.280      8.842
REMARK  2 active torsions:
REMARK  status: ('A' for Active; 'I' for Inactive)
REMARK    1  A    between atoms: C_4  and  C_5 
REMARK       I    between atoms: N_12  and  C_13 
REMARK    2  A    between atoms: C_13  and  C_14 
ROOT
HETATM    1  C   UNL     1      22.040  49.773  48.754  1.00  0.00     0.097 A 
HETATM    2  N   UNL     1      22.076  50.938  48.079  1.00  0.00    -0.173 NA
HETATM    3  N   UNL     1      23.371  51.139  47.792  1.00  0.00    -0.281 N 
HETATM    4  H   UNL     1      23.629  51.987  47.296  1.00  0.00     0.189 HD
HETATM    5  C   UNL     1      24.171  50.151  48.260  1.00  0.00     0.039 A 
HETATM    6  C   UNL     1      23.352  49.229  48.871  1.00  0.00     0.015 A 
HETATM    7  C   UNL     1      23.868  48.001  49.534  1.00  0.00     0.168 C 
HETATM    8  N   UNL     1      25.321  48.143  49.778  1.00  0.00    -0.347 N 
HETATM    9  C   UNL     1      26.011  47.457  50.777  1.00  0.00     0.226 C 
HETATM   10  O   UNL     1      27.236  47.329  50.724  1.00  0.00    -0.273 OA
HETATM   11  C   UNL     1      26.115  48.696  48.654  1.00  0.00     0.132 C 
HETATM   12  C   UNL     1      25.649  50.103  48.222  1.00  0.00     0.079 C 
ENDROOT
BRANCH   9  13
HETATM   13  C   UNL     1      25.203  46.835  51.922  1.00  0.00     0.106 C 
HETATM   14  C   UNL     1      25.096  45.317  51.775  1.00  0.00     0.190 C 
HETATM   15  O   UNL     1      26.307  44.600  52.024  1.00  0.00    -0.350 OA
HETATM   16  C   UNL     1      26.997  44.988  53.135  1.00  0.00     0.075 A 
HETATM   17  C   UNL     1      26.785  46.199  53.790  1.00  0.00    -0.024 A 
HETATM   18  C   UNL     1      27.979  44.107  53.586  1.00  0.00     0.037 A 
HETATM   19  C   UNL     1      25.759  47.178  53.304  1.00  0.00     0.057 C 
HETATM   20  C   UNL     1      27.538  46.499  54.936  1.00  0.00     0.010 A 
HETATM   21  C   UNL     1      28.508  45.609  55.398  1.00  0.00     0.001 A 
HETATM   22  C   UNL     1      28.734  44.415  54.718  1.00  0.00     0.003 A 
ENDBRANCH   9  13
BRANCH   1  23
HETATM   23  C   UNL     1      20.778  49.263  49.297  1.00  0.00    -0.005 A 
HETATM   24  C   UNL     1      20.032  49.991  50.232  1.00  0.00     0.014 A 
HETATM   25  C   UNL     1      18.811  49.499  50.704  1.00  0.00     0.001 A 
HETATM   26  C   UNL     1      18.329  48.271  50.254  1.00  0.00     0.000 A 
HETATM   27  C   UNL     1      19.070  47.529  49.338  1.00  0.00     0.001 A 
HETATM   28  C   UNL     1      20.288  48.022  48.864  1.00  0.00     0.014 A 
ENDBRANCH   1  23
TORSDOF 2
ENDMDL
MODEL 3
REMARK VINA RESULT:      -9.0      3.242      6.188
REMARK  2 active torsions:
REMARK  status: ('A' for Active; 'I' for Inactive)
REMARK    1  A    between atoms: C_4  and  C_5 
REMARK       I    between atoms: N_12  and  C_13 
REMARK    2  A    between atoms: C_13  and  C_14 
ROOT
HETATM    1  C   UNL     1      28.285  45.845  55.057  1.00  0.00     0.097 A 
HETATM    2  N   UNL     1      28.150  47.179  55.191  1.00  0.00    -0.173 NA
HETATM    3  N   UNL     1      27.143  47.516  54.370  1.00  0.00    -0.281 N 
HETATM    4  H   UNL     1      26.887  48.496  54.299  1.00  0.00     0.189 HD
HETATM    5  C   UNL     1      26.629  46.452  53.708  1.00  0.00     0.039 A 
HETATM    6  C   UNL     1      27.320  45.341  54.137  1.00  0.00     0.015 A 
HETATM    7  C   UNL     1      27.057  43.973  53.616  1.00  0.00     0.168 C 
HETATM    8  N   UNL     1      26.286  44.062  52.355  1.00  0.00    -0.347 N 
HETATM    9  C   UNL     1      26.295  43.075  51.368  1.00  0.00     0.226 C 
HETATM   10  O   UNL     1      25.397  43.018  50.526  1.00  0.00    -0.273 OA
HETATM   11  C   UNL     1      25.155  45.020  52.354  1.00  0.00     0.132 C 
HETATM   12  C   UNL     1      25.595  46.471  52.650  1.00  0.00     0.079 C 
ENDROOT
BRANCH   9  13
HETATM   13  C   UNL     1      27.429  42.044  51.383  1.00  0.00     0.106 C 
HETATM   14  C   UNL     1      26.913  40.646  51.724  1.00  0.00     0.190 C 
HETATM   15  O   UNL     1      26.140  40.021  50.697  1.00  0.00    -0.350 OA
HETATM   16  C   UNL     1      26.658  40.114  49.438  1.00  0.00     0.075 A 
HETATM   17  C   UNL     1      27.643  41.030  49.076  1.00  0.00    -0.024 A 
HETATM   18  C   UNL     1      26.120  39.247  48.488  1.00  0.00     0.037 A 
HETATM   19  C   UNL     1      28.212  41.995  50.072  1.00  0.00     0.057 C 
HETATM   20  C   UNL     1      28.121  41.036  47.756  1.00  0.00     0.010 A 
HETATM   21  C   UNL     1      27.595  40.156  46.810  1.00  0.00     0.001 A 
HETATM   22  C   UNL     1      26.589  39.265  47.174  1.00  0.00     0.003 A 
ENDBRANCH   9  13
BRANCH   1  23
HETATM   23  C   UNL     1      29.350  45.127  55.761  1.00  0.00    -0.005 A 
HETATM   24  C   UNL     1      29.976  44.006  55.203  1.00  0.00     0.014 A 
HETATM   25  C   UNL     1      31.018  43.364  55.880  1.00  0.00     0.001 A 
HETATM   26  C   UNL     1      31.436  43.830  57.125  1.00  0.00     0.000 A 
HETATM   27  C   UNL     1      30.810  44.933  57.700  1.00  0.00     0.001 A 
HETATM   28  C   UNL     1      29.772  45.576  57.022  1.00  0.00     0.014 A 
ENDBRANCH   1  23
TORSDOF 2
ENDMDL
MODEL 4
REMARK VINA RESULT:      -8.8      1.870      4.121
REMARK  2 active torsions:
REMARK  status: ('A' for Active; 'I' for Inactive)
REMARK    1  A    between atoms: C_4  and  C_5 
REMARK       I    between atoms: N_12  and  C_13 
REMARK    2  A    between atoms: C_13  and  C_14 
ROOT
HETATM    1  C   UNL     1      27.873  42.099  52.408  1.00  0.00     0.097 A 
HETATM    2  N   UNL     1      28.606  41.761  53.488  1.00  0.00    -0.173 NA
HETATM    3  N   UNL     1      28.343  42.707  54.402  1.00  0.00    -0.281 N 
HETATM    4  H   UNL     1      28.817  42.656  55.299  1.00  0.00     0.189 HD
HETATM    5  C   UNL     1      27.474  43.644  53.952  1.00  0.00     0.039 A 
HETATM    6  C   UNL     1      27.122  43.281  52.672  1.00  0.00     0.015 A 
HETATM    7  C   UNL     1      26.194  44.083  51.829  1.00  0.00     0.168 C 
HETATM    8  N   UNL     1      26.061  45.444  52.396  1.00  0.00    -0.347 N 
HETATM    9  C   UNL     1      25.705  46.566  51.646  1.00  0.00     0.226 C 
HETATM   10  O   UNL     1      25.268  47.579  52.196  1.00  0.00    -0.273 OA
HETATM   11  C   UNL     1      25.883  45.519  53.866  1.00  0.00     0.132 C 
HETATM   12  C   UNL     1      27.052  44.880  54.647  1.00  0.00     0.079 C 
ENDROOT
BRANCH   9  13
HETATM   13  C   UNL     1      25.834  46.490  50.121  1.00  0.00     0.106 C 
HETATM   14  C   UNL     1      24.612  45.827  49.484  1.00  0.00     0.190 C 
HETATM   15  O   UNL     1      23.419  46.613  49.507  1.00  0.00    -0.350 OA
HETATM   16  C   UNL     1      23.574  47.919  49.145  1.00  0.00     0.075 A 
HETATM   17  C   UNL     1      24.806  48.568  49.108  1.00  0.00    -0.024 A 
HETATM   18  C   UNL     1      22.404  48.613  48.835  1.00  0.00     0.037 A 
HETATM   19  C   UNL     1      26.073  47.853  49.471  1.00  0.00     0.057 C 
HETATM   20  C   UNL     1      24.861  49.912  48.708  1.00  0.00     0.010 A 
HETATM   21  C   UNL     1      23.693  50.601  48.380  1.00  0.00     0.001 A 
HETATM   22  C   UNL     1      22.463  49.952  48.450  1.00  0.00     0.003 A 
ENDBRANCH   9  13
BRANCH   1  23
HETATM   23  C   UNL     1      27.964  41.320  51.171  1.00  0.00    -0.005 A 
HETATM   24  C   UNL     1      28.566  40.056  51.139  1.00  0.00     0.014 A 
HETATM   25  C   UNL     1      28.602  39.318  49.952  1.00  0.00     0.001 A 
HETATM   26  C   UNL     1      28.046  39.839  48.785  1.00  0.00     0.000 A 
HETATM   27  C   UNL     1      27.461  41.102  48.799  1.00  0.00     0.001 A 
HETATM   28  C   UNL     1      27.422  41.838  49.984  1.00  0.00     0.014 A 
ENDBRANCH   1  23
TORSDOF 2
ENDMDL
MODEL 5
REMARK VINA RESULT:      -8.6      8.270     13.662
REMARK  2 active torsions:
REMARK  status: ('A' for Active; 'I' for Inactive)
REMARK    1  A    between atoms: C_4  and  C_5 
REMARK       I    between atoms: N_12  and  C_13 
REMARK    2  A    between atoms: C_13  and  C_14 
ROOT
HETATM    1  C   UNL     1      14.580  53.814  48.242  1.00  0.00     0.097 A 
HETATM    2  N   UNL     1      13.849  54.315  47.228  1.00  0.00    -0.173 NA
HETATM    3  N   UNL     1      14.118  53.526  46.177  1.00  0.00    -0.281 N 
HETATM    4  H   UNL     1      13.680  53.744  45.286  1.00  0.00     0.189 HD
HETATM    5  C   UNL     1      14.998  52.540  46.473  1.00  0.00     0.039 A 
HETATM    6  C   UNL     1      15.310  52.670  47.807  1.00  0.00     0.015 A 
HETATM    7  C   UNL     1      16.273  51.776  48.504  1.00  0.00     0.168 C 
HETATM    8  N   UNL     1      17.093  51.054  47.504  1.00  0.00    -0.347 N 
HETATM    9  C   UNL     1      18.366  50.547  47.764  1.00  0.00     0.226 C 
HETATM   10  O   UNL     1      18.854  49.671  47.047  1.00  0.00    -0.273 OA
HETATM   11  C   UNL     1      16.355  50.492  46.348  1.00  0.00     0.132 C 
HETATM   12  C   UNL     1      15.598  51.565  45.536  1.00  0.00     0.079 C 
ENDROOT
BRANCH   9  13
HETATM   13  C   UNL     1      19.124  51.080  48.985  1.00  0.00     0.106 C 
HETATM   14  C   UNL     1      19.326  49.992  50.041  1.00  0.00     0.190 C 
HETATM   15  O   UNL     1      20.273  48.981  49.691  1.00  0.00    -0.350 OA
HETATM   16  C   UNL     1      21.442  49.436  49.154  1.00  0.00     0.075 A 
HETATM   17  C   UNL     1      21.603  50.718  48.632  1.00  0.00    -0.024 A 
HETATM   18  C   UNL     1      22.497  48.525  49.117  1.00  0.00     0.037 A 
HETATM   19  C   UNL     1      20.473  51.704  48.628  1.00  0.00     0.057 C 
HETATM   20  C   UNL     1      22.852  51.095  48.115  1.00  0.00     0.010 A 
HETATM   21  C   UNL     1      23.912  50.189  48.094  1.00  0.00     0.001 A 
HETATM   22  C   UNL     1      23.733  48.900  48.591  1.00  0.00     0.003 A 
ENDBRANCH   9  13
BRANCH   1  23
HETATM   23  C   UNL     1      14.593  54.473  49.551  1.00  0.00    -0.005 A 
HETATM   24  C   UNL     1      14.313  53.773  50.731  1.00  0.00     0.014 A 
HETATM   25  C   UNL     1      14.372  54.418  51.970  1.00  0.00     0.001 A 
HETATM   26  C   UNL     1      14.702  55.770  52.041  1.00  0.00     0.000 A 
HETATM   27  C   UNL     1      14.966  56.482  50.874  1.00  0.00     0.001 A 
HETATM   28  C   UNL     1      14.910  55.838  49.637  1.00  0.00     0.014 A 
ENDBRANCH   1  23
TORSDOF 2
ENDMDL
MODEL 6
REMARK VINA RESULT:      -8.5      3.441      6.912
REMARK  2 active torsions:
REMARK  status: ('A' for Active; 'I' for Inactive)
REMARK    1  A    between atoms: C_4  and  C_5 
REMARK       I    between atoms: N_12  and  C_13 
REMARK    2  A    between atoms: C_13  and  C_14 
ROOT
HETATM    1  C   UNL     1      27.123  44.729  53.359  1.00  0.00     0.097 A 
HETATM    2  N   UNL     1      26.536  45.924  53.571  1.00  0.00    -0.173 NA
HETATM    3  N   UNL     1      25.482  45.950  52.741  1.00  0.00    -0.281 N 
HETATM    4  H   UNL     1      24.904  46.785  52.722  1.00  0.00     0.189 HD
HETATM    5  C   UNL     1      25.370  44.823  51.999  1.00  0.00     0.039 A 
HETATM    6  C   UNL     1      26.398  43.990  52.379  1.00  0.00     0.015 A 
HETATM    7  C   UNL     1      26.626  42.653  51.767  1.00  0.00     0.168 C 
HETATM    8  N   UNL     1      25.883  42.559  50.490  1.00  0.00    -0.347 N 
HETATM    9  C   UNL     1      26.239  41.707  49.445  1.00  0.00     0.226 C 
HETATM   10  O   UNL     1      25.422  41.402  48.573  1.00  0.00    -0.273 OA
HETATM   11  C   UNL     1      24.491  43.070  50.513  1.00  0.00     0.132 C 
HETATM   12  C   UNL     1      24.402  44.559  50.912  1.00  0.00     0.079 C 
ENDROOT
BRANCH   9  13
HETATM   13  C   UNL     1      27.658  41.128  49.431  1.00  0.00     0.106 C 
HETATM   14  C   UNL     1      27.768  39.884  50.313  1.00  0.00     0.190 C 
HETATM   15  O   UNL     1      27.115  38.721  49.800  1.00  0.00    -0.350 OA
HETATM   16  C   UNL     1      27.332  38.467  48.477  1.00  0.00     0.075 A 
HETATM   17  C   UNL     1      27.826  39.412  47.581  1.00  0.00    -0.024 A 
HETATM   18  C   UNL     1      26.996  37.188  48.035  1.00  0.00     0.037 A 
HETATM   19  C   UNL     1      28.161  40.805  48.025  1.00  0.00     0.057 C 
HETATM   20  C   UNL     1      28.028  39.046  46.241  1.00  0.00     0.010 A 
HETATM   21  C   UNL     1      27.709  37.761  45.803  1.00  0.00     0.001 A 
HETATM   22  C   UNL     1      27.187  36.832  46.700  1.00  0.00     0.003 A 
ENDBRANCH   9  13
BRANCH   1  23
HETATM   23  C   UNL     1      28.364  44.374  54.051  1.00  0.00    -0.005 A 
HETATM   24  C   UNL     1      29.181  43.326  53.606  1.00  0.00     0.014 A 
HETATM   25  C   UNL     1      30.381  43.034  54.262  1.00  0.00     0.001 A 
HETATM   26  C   UNL     1      30.771  43.779  55.373  1.00  0.00     0.000 A 
HETATM   27  C   UNL     1      29.959  44.811  55.837  1.00  0.00     0.001 A 
HETATM   28  C   UNL     1      28.763  45.105  55.180  1.00  0.00     0.014 A 
ENDBRANCH   1  23
TORSDOF 2
ENDMDL
MODEL 7
REMARK VINA RESULT:      -8.5      3.190      7.143
REMARK  2 active torsions:
REMARK  status: ('A' for Active; 'I' for Inactive)
REMARK    1  A    between atoms: C_4  and  C_5 
REMARK       I    between atoms: N_12  and  C_13 
REMARK    2  A    between atoms: C_13  and  C_14 
ROOT
HETATM    1  C   UNL     1      25.582  46.324  52.144  1.00  0.00     0.097 A 
HETATM    2  N   UNL     1      25.043  47.510  51.800  1.00  0.00    -0.173 NA
HETATM    3  N   UNL     1      24.315  47.260  50.701  1.00  0.00    -0.281 N 
HETATM    4  H   UNL     1      23.833  48.035  50.255  1.00  0.00     0.189 HD
HETATM    5  C   UNL     1      24.369  45.961  50.321  1.00  0.00     0.039 A 
HETATM    6  C   UNL     1      25.160  45.308  51.239  1.00  0.00     0.015 A 
HETATM    7  C   UNL     1      25.479  43.858  51.147  1.00  0.00     0.168 C 
HETATM    8  N   UNL     1      25.180  43.370  49.781  1.00  0.00    -0.347 N 
HETATM    9  C   UNL     1      25.792  42.258  49.202  1.00  0.00     0.226 C 
HETATM   10  O   UNL     1      25.279  41.686  48.239  1.00  0.00    -0.273 OA
HETATM   11  C   UNL     1      23.893  43.823  49.201  1.00  0.00     0.132 C 
HETATM   12  C   UNL     1      23.784  45.360  49.102  1.00  0.00     0.079 C 
ENDROOT
BRANCH   9  13
HETATM   13  C   UNL     1      27.097  41.744  49.820  1.00  0.00     0.106 C 
HETATM   14  C   UNL     1      26.831  40.795  50.990  1.00  0.00     0.190 C 
HETATM   15  O   UNL     1      26.312  39.516  50.623  1.00  0.00    -0.350 OA
HETATM   16  C   UNL     1      26.935  38.913  49.569  1.00  0.00     0.075 A 
HETATM   17  C   UNL     1      27.756  39.590  48.669  1.00  0.00    -0.024 A 
HETATM   18  C   UNL     1      26.684  37.552  49.404  1.00  0.00     0.037 A 
HETATM   19  C   UNL     1      28.013  41.061  48.805  1.00  0.00     0.057 C 
HETATM   20  C   UNL     1      28.364  38.875  47.626  1.00  0.00     0.010 A 
HETATM   21  C   UNL     1      28.126  37.509  47.471  1.00  0.00     0.001 A 
HETATM   22  C   UNL     1      27.280  36.848  48.358  1.00  0.00     0.003 A 
ENDBRANCH   9  13
BRANCH   1  23
HETATM   23  C   UNL     1      26.509  46.225  53.275  1.00  0.00    -0.005 A 
HETATM   24  C   UNL     1      27.214  45.047  53.548  1.00  0.00     0.014 A 
HETATM   25  C   UNL     1      28.122  44.993  54.610  1.00  0.00     0.001 A 
HETATM   26  C   UNL     1      28.326  46.112  55.415  1.00  0.00     0.000 A 
HETATM   27  C   UNL     1      27.618  47.285  55.166  1.00  0.00     0.001 A 
HETATM   28  C   UNL     1      26.714  47.339  54.103  1.00  0.00     0.014 A 
ENDBRANCH   1  23
TORSDOF 2
ENDMDL
MODEL 8
REMARK VINA RESULT:      -8.4      3.895      9.338
REMARK  2 active torsions:
REMARK  status: ('A' for Active; 'I' for Inactive)
REMARK    1  A    between atoms: C_4  and  C_5 
REMARK       I    between atoms: N_12  and  C_13 
REMARK    2  A    between atoms: C_13  and  C_14 
ROOT
HETATM    1  C   UNL     1      20.436  49.256  48.255  1.00  0.00     0.097 A 
HETATM    2  N   UNL     1      20.063  50.551  48.278  1.00  0.00    -0.173 NA
HETATM    3  N   UNL     1      21.204  51.242  48.431  1.00  0.00    -0.281 N 
HETATM    4  H   UNL     1      21.148  52.254  48.497  1.00  0.00     0.189 HD
HETATM    5  C   UNL     1      22.294  50.443  48.512  1.00  0.00     0.039 A 
HETATM    6  C   UNL     1      21.851  49.147  48.380  1.00  0.00     0.015 A 
HETATM    7  C   UNL     1      22.760  47.970  48.440  1.00  0.00     0.168 C 
HETATM    8  N   UNL     1      24.051  48.372  49.044  1.00  0.00    -0.347 N 
HETATM    9  C   UNL     1      24.912  47.488  49.696  1.00  0.00     0.226 C 
HETATM   10  O   UNL     1      26.099  47.773  49.865  1.00  0.00    -0.273 OA
HETATM   11  C   UNL     1      24.623  49.651  48.558  1.00  0.00     0.132 C 
HETATM   12  C   UNL     1      23.687  50.857  48.792  1.00  0.00     0.079 C 
ENDROOT
BRANCH   9  13
HETATM   13  C   UNL     1      24.351  46.140  50.162  1.00  0.00     0.106 C 
HETATM   14  C   UNL     1      24.840  44.992  49.278  1.00  0.00     0.190 C 
HETATM   15  O   UNL     1      26.220  44.656  49.434  1.00  0.00    -0.350 OA
HETATM   16  C   UNL     1      26.657  44.568  50.724  1.00  0.00     0.075 A 
HETATM   17  C   UNL     1      25.968  45.105  51.809  1.00  0.00    -0.024 A 
HETATM   18  C   UNL     1      27.880  43.926  50.915  1.00  0.00     0.037 A 
HETATM   19  C   UNL     1      24.669  45.831  51.625  1.00  0.00     0.057 C 
HETATM   20  C   UNL     1      26.496  44.949  53.100  1.00  0.00     0.010 A 
HETATM   21  C   UNL     1      27.710  44.291  53.293  1.00  0.00     0.001 A 
HETATM   22  C   UNL     1      28.406  43.784  52.199  1.00  0.00     0.003 A 
ENDBRANCH   9  13
BRANCH   1  23
HETATM   23  C   UNL     1      19.433  48.191  48.170  1.00  0.00    -0.005 A 
HETATM   24  C   UNL     1      19.584  47.104  47.301  1.00  0.00     0.014 A 
HETATM   25  C   UNL     1      18.631  46.082  47.270  1.00  0.00     0.001 A 
HETATM   26  C   UNL     1      17.513  46.141  48.100  1.00  0.00     0.000 A 
HETATM   27  C   UNL     1      17.341  47.225  48.956  1.00  0.00     0.001 A 
HETATM   28  C   UNL     1      18.295  48.244  48.990  1.00  0.00     0.014 A 
ENDBRANCH   1  23
TORSDOF 2
ENDMDL
MODEL 9
REMARK VINA RESULT:      -8.4     12.191     14.302
REMARK  2 active torsions:
REMARK  status: ('A' for Active; 'I' for Inactive)
REMARK    1  A    between atoms: C_4  and  C_5 
REMARK       I    between atoms: N_12  and  C_13 
REMARK    2  A    between atoms: C_13  and  C_14 
ROOT
HETATM    1  C   UNL     1      27.803  48.780  38.515  1.00  0.00     0.097 A 
HETATM    2  N   UNL     1      26.626  49.210  38.021  1.00  0.00    -0.173 NA
HETATM    3  N   UNL     1      26.732  50.547  37.972  1.00  0.00    -0.281 N 
HETATM    4  H   UNL     1      25.933  51.082  37.644  1.00  0.00     0.189 HD
HETATM    5  C   UNL     1      27.930  50.995  38.420  1.00  0.00     0.039 A 
HETATM    6  C   UNL     1      28.669  49.885  38.762  1.00  0.00     0.015 A 
HETATM    7  C   UNL     1      30.044  49.969  39.323  1.00  0.00     0.168 C 
HETATM    8  N   UNL     1      30.297  51.345  39.809  1.00  0.00    -0.347 N 
HETATM    9  C   UNL     1      31.227  51.659  40.801  1.00  0.00     0.226 C 
HETATM   10  O   UNL     1      31.654  52.808  40.924  1.00  0.00    -0.273 OA
HETATM   11  C   UNL     1      29.859  52.440  38.911  1.00  0.00     0.132 C 
HETATM   12  C   UNL     1      28.345  52.402  38.609  1.00  0.00     0.079 C 
ENDROOT
BRANCH   9  13
HETATM   13  C   UNL     1      31.730  50.530  41.708  1.00  0.00     0.106 C 
HETATM   14  C   UNL     1      32.852  49.732  41.043  1.00  0.00     0.190 C 
HETATM   15  O   UNL     1      34.099  50.420  40.934  1.00  0.00    -0.350 OA
HETATM   16  C   UNL     1      34.500  51.082  42.058  1.00  0.00     0.075 A 
HETATM   17  C   UNL     1      33.646  51.399  43.112  1.00  0.00    -0.024 A 
HETATM   18  C   UNL     1      35.839  51.471  42.097  1.00  0.00     0.037 A 
HETATM   19  C   UNL     1      32.195  51.023  43.078  1.00  0.00     0.057 C 
HETATM   20  C   UNL     1      34.160  52.071  44.232  1.00  0.00     0.010 A 
HETATM   21  C   UNL     1      35.503  52.444  44.278  1.00  0.00     0.001 A 
HETATM   22  C   UNL     1      36.342  52.149  43.207  1.00  0.00     0.003 A 
ENDBRANCH   9  13
BRANCH   1  23
HETATM   23  C   UNL     1      28.027  47.356  38.778  1.00  0.00    -0.005 A 
HETATM   24  C   UNL     1      28.831  46.571  37.943  1.00  0.00     0.014 A 
HETATM   25  C   UNL     1      29.061  45.224  38.240  1.00  0.00     0.001 A 
HETATM   26  C   UNL     1      28.481  44.647  39.369  1.00  0.00     0.000 A 
HETATM   27  C   UNL     1      27.665  45.412  40.198  1.00  0.00     0.001 A 
HETATM   28  C   UNL     1      27.438  46.758  39.903  1.00  0.00     0.014 A 
ENDBRANCH   1  23
TORSDOF 2
ENDMDL
MODEL 10
REMARK VINA RESULT:      -8.3      4.629      7.530
REMARK  2 active torsions:
REMARK  status: ('A' for Active; 'I' for Inactive)
REMARK    1  A    between atoms: C_4  and  C_5 
REMARK       I    between atoms: N_12  and  C_13 
REMARK    2  A    between atoms: C_13  and  C_14 
ROOT
HETATM    1  C   UNL     1      25.290  47.918  49.883  1.00  0.00     0.097 A 
HETATM    2  N   UNL     1      26.491  48.300  49.406  1.00  0.00    -0.173 NA
HETATM    3  N   UNL     1      26.231  49.316  48.568  1.00  0.00    -0.281 N 
HETATM    4  H   UNL     1      27.008  49.744  48.074  1.00  0.00     0.189 HD
HETATM    5  C   UNL     1      24.909  49.599  48.483  1.00  0.00     0.039 A 
HETATM    6  C   UNL     1      24.259  48.735  49.335  1.00  0.00     0.015 A 
HETATM    7  C   UNL     1      22.781  48.721  49.501  1.00  0.00     0.168 C 
HETATM    8  N   UNL     1      22.148  49.441  48.372  1.00  0.00    -0.347 N 
HETATM    9  C   UNL     1      20.842  49.210  47.938  1.00  0.00     0.226 C 
HETATM   10  O   UNL     1      20.248  50.045  47.255  1.00  0.00    -0.273 OA
HETATM   11  C   UNL     1      22.779  50.727  47.990  1.00  0.00     0.132 C 
HETATM   12  C   UNL     1      24.259  50.573  47.578  1.00  0.00     0.079 C 
ENDROOT
BRANCH   9  13
HETATM   13  C   UNL     1      20.155  47.908  48.365  1.00  0.00     0.106 C 
HETATM   14  C   UNL     1      19.275  48.114  49.598  1.00  0.00     0.190 C 
HETATM   15  O   UNL     1      18.078  48.860  49.367  1.00  0.00    -0.350 OA
HETATM   16  C   UNL     1      17.374  48.503  48.254  1.00  0.00     0.075 A 
HETATM   17  C   UNL     1      17.909  47.750  47.212  1.00  0.00    -0.024 A 
HETATM   18  C   UNL     1      16.060  48.967  48.185  1.00  0.00     0.037 A 
HETATM   19  C   UNL     1      19.329  47.271  47.248  1.00  0.00     0.057 C 
HETATM   20  C   UNL     1      17.096  47.423  46.115  1.00  0.00     0.010 A 
HETATM   21  C   UNL     1      15.777  47.872  46.054  1.00  0.00     0.001 A 
HETATM   22  C   UNL     1      15.260  48.650  47.087  1.00  0.00     0.003 A 
ENDBRANCH   9  13
BRANCH   1  23
HETATM   23  C   UNL     1      25.176  46.771  50.786  1.00  0.00    -0.005 A 
HETATM   24  C   UNL     1      24.592  45.566  50.375  1.00  0.00     0.014 A 
HETATM   25  C   UNL     1      24.532  44.473  51.246  1.00  0.00     0.001 A 
HETATM   26  C   UNL     1      25.047  44.577  52.537  1.00  0.00     0.000 A 
HETATM   27  C   UNL     1      25.614  45.775  52.964  1.00  0.00     0.001 A 
HETATM   28  C   UNL     1      25.676  46.865  52.094  1.00  0.00     0.014 A 
ENDBRANCH   1  23
TORSDOF 2
ENDMDL
