MODEL 1
REMARK VINA RESULT:      -8.7      0.000      0.000
REMARK  4 active torsions:
REMARK  status: ('A' for Active; 'I' for Inactive)
REMARK    1  A    between atoms: O_2  and  C_3 
REMARK    2  A    between atoms: C_6  and  C_7 
REMARK       I    between atoms: C_7  and  N_8 
REMARK    3  A    between atoms: N_8  and  C_9 
REMARK    4  A    between atoms: C_14  and  C_15 
ROOT
HETATM    1  C   UNL     1      26.621  45.147  50.280  1.00  0.00     0.259 C 
HETATM    2  N   UNL     1      26.529  44.473  51.483  1.00  0.00    -0.320 N 
HETATM    3  O   UNL     1      27.616  45.209  49.566  1.00  0.00    -0.267 OA
HETATM    4  H   UNL     1      25.730  44.693  52.070  1.00  0.00     0.169 HD
ENDROOT
BRANCH   2   5
HETATM    5  C   UNL     1      27.495  43.613  52.060  1.00  0.00     0.074 A 
HETATM    6  C   UNL     1      27.808  42.327  51.607  1.00  0.00     0.143 A 
HETATM    7  F   UNL     1      27.129  41.732  50.619  1.00  0.00    -0.204 F 
HETATM    8  C   UNL     1      28.788  41.566  52.239  1.00  0.00     0.045 A 
HETATM    9  C   UNL     1      29.465  42.071  53.351  1.00  0.00     0.017 A 
HETATM   10  C   UNL     1      29.154  43.341  53.855  1.00  0.00     0.000 A 
HETATM   11  C   UNL     1      28.160  44.095  53.201  1.00  0.00     0.047 A 
BRANCH  10  12
HETATM   12  C   UNL     1      29.850  43.859  55.032  1.00  0.00     0.085 A 
HETATM   13  O   UNL     1      29.456  45.089  55.480  1.00  0.00    -0.322 OA
HETATM   14  C   UNL     1      30.207  45.387  56.570  1.00  0.00     0.142 A 
HETATM   15  C   UNL     1      31.088  44.368  56.837  1.00  0.00     0.027 A 
HETATM   16  C   UNL     1      30.860  43.382  55.847  1.00  0.00     0.040 A 
ENDBRANCH  10  12
ENDBRANCH   2   5
BRANCH   1  17
HETATM   17  C   UNL     1      25.413  45.909  49.842  1.00  0.00     0.073 A 
HETATM   18  C   UNL     1      25.333  47.303  49.868  1.00  0.00     0.165 A 
HETATM   19  C   UNL     1      24.182  47.977  49.435  1.00  0.00     0.107 A 
HETATM   20  F   UNL     1      26.380  48.030  50.299  1.00  0.00    -0.202 F 
HETATM   21  C   UNL     1      23.088  47.237  48.983  1.00  0.00     0.040 A 
HETATM   22  C   UNL     1      23.151  45.842  48.954  1.00  0.00     0.004 A 
HETATM   23  C   UNL     1      24.306  45.183  49.376  1.00  0.00     0.020 A 
BRANCH  19  24
HETATM   24  O   UNL     1      24.237  49.345  49.502  1.00  0.00    -0.353 OA
HETATM   25  C   UNL     1      24.590  50.038  48.312  1.00  0.00     0.210 C 
ENDBRANCH  19  24
ENDBRANCH   1  17
TORSDOF 4
ENDMDL
MODEL 2
REMARK VINA RESULT:      -8.6      2.047      7.842
REMARK  4 active torsions:
REMARK  status: ('A' for Active; 'I' for Inactive)
REMARK    1  A    between atoms: O_2  and  C_3 
REMARK    2  A    between atoms: C_6  and  C_7 
REMARK       I    between atoms: C_7  and  N_8 
REMARK    3  A    between atoms: N_8  and  C_9 
REMARK    4  A    between atoms: C_14  and  C_15 
ROOT
HETATM    1  C   UNL     1      27.106  44.886  53.847  1.00  0.00     0.259 C 
HETATM    2  N   UNL     1      27.167  45.119  52.486  1.00  0.00    -0.320 N 
HETATM    3  O   UNL     1      26.101  44.971  54.545  1.00  0.00    -0.267 OA
HETATM    4  H   UNL     1      28.092  45.234  52.083  1.00  0.00     0.169 HD
ENDROOT
BRANCH   2   5
HETATM    5  C   UNL     1      26.081  45.358  51.608  1.00  0.00     0.074 A 
HETATM    6  C   UNL     1      25.017  44.481  51.377  1.00  0.00     0.143 A 
HETATM    7  F   UNL     1      24.976  43.251  51.904  1.00  0.00    -0.204 F 
HETATM    8  C   UNL     1      23.989  44.820  50.500  1.00  0.00     0.045 A 
HETATM    9  C   UNL     1      24.015  46.039  49.822  1.00  0.00     0.017 A 
HETATM   10  C   UNL     1      25.083  46.929  50.000  1.00  0.00     0.000 A 
HETATM   11  C   UNL     1      26.112  46.568  50.892  1.00  0.00     0.047 A 
BRANCH  10  12
HETATM   12  C   UNL     1      25.117  48.197  49.273  1.00  0.00     0.085 A 
HETATM   13  O   UNL     1      26.355  48.694  48.974  1.00  0.00    -0.322 OA
HETATM   14  C   UNL     1      26.176  49.859  48.300  1.00  0.00     0.142 A 
HETATM   15  C   UNL     1      24.837  50.129  48.158  1.00  0.00     0.027 A 
HETATM   16  C   UNL     1      24.152  49.059  48.784  1.00  0.00     0.040 A 
ENDBRANCH  10  12
ENDBRANCH   2   5
BRANCH   1  17
HETATM   17  C   UNL     1      28.391  44.550  54.529  1.00  0.00     0.073 A 
HETATM   18  C   UNL     1      28.970  45.353  55.515  1.00  0.00     0.165 A 
HETATM   19  C   UNL     1      30.173  44.992  56.139  1.00  0.00     0.107 A 
HETATM   20  F   UNL     1      28.364  46.493  55.896  1.00  0.00    -0.202 F 
HETATM   21  C   UNL     1      30.812  43.812  55.754  1.00  0.00     0.040 A 
HETATM   22  C   UNL     1      30.248  43.000  54.768  1.00  0.00     0.004 A 
HETATM   23  C   UNL     1      29.045  43.363  54.164  1.00  0.00     0.020 A 
BRANCH  19  24
HETATM   24  O   UNL     1      30.627  45.862  57.095  1.00  0.00    -0.353 OA
HETATM   25  C   UNL     1      30.370  45.525  58.452  1.00  0.00     0.210 C 
ENDBRANCH  19  24
ENDBRANCH   1  17
TORSDOF 4
ENDMDL
MODEL 3
REMARK VINA RESULT:      -8.4      3.289      4.166
REMARK  4 active torsions:
REMARK  status: ('A' for Active; 'I' for Inactive)
REMARK    1  A    between atoms: O_2  and  C_3 
REMARK    2  A    between atoms: C_6  and  C_7 
REMARK       I    between atoms: C_7  and  N_8 
REMARK    3  A    between atoms: N_8  and  C_9 
REMARK    4  A    between atoms: C_14  and  C_15 
ROOT
HETATM    1  C   UNL     1      25.446  43.888  52.454  1.00  0.00     0.259 C 
HETATM    2  N   UNL     1      26.757  44.323  52.498  1.00  0.00    -0.320 N 
HETATM    3  O   UNL     1      24.610  44.037  53.338  1.00  0.00    -0.267 OA
HETATM    4  H   UNL     1      27.390  43.938  51.804  1.00  0.00     0.169 HD
ENDROOT
BRANCH   2   5
HETATM    5  C   UNL     1      27.356  45.140  53.488  1.00  0.00     0.074 A 
HETATM    6  C   UNL     1      27.034  46.477  53.740  1.00  0.00     0.143 A 
HETATM    7  F   UNL     1      26.174  47.162  52.976  1.00  0.00    -0.204 F 
HETATM    8  C   UNL     1      27.675  47.189  54.751  1.00  0.00     0.045 A 
HETATM    9  C   UNL     1      28.668  46.580  55.521  1.00  0.00     0.017 A 
HETATM   10  C   UNL     1      29.043  45.252  55.274  1.00  0.00     0.000 A 
HETATM   11  C   UNL     1      28.381  44.550  54.249  1.00  0.00     0.047 A 
BRANCH  10  12
HETATM   12  C   UNL     1      30.097  44.623  56.070  1.00  0.00     0.085 A 
HETATM   13  O   UNL     1      30.338  45.168  57.300  1.00  0.00    -0.322 OA
HETATM   14  C   UNL     1      31.333  44.449  57.878  1.00  0.00     0.142 A 
HETATM   15  C   UNL     1      31.747  43.444  57.039  1.00  0.00     0.027 A 
HETATM   16  C   UNL     1      30.951  43.554  55.872  1.00  0.00     0.040 A 
ENDBRANCH  10  12
ENDBRANCH   2   5
BRANCH   1  17
HETATM   17  C   UNL     1      25.032  43.124  51.239  1.00  0.00     0.073 A 
HETATM   18  C   UNL     1      23.897  43.434  50.486  1.00  0.00     0.165 A 
HETATM   19  C   UNL     1      23.554  42.697  49.344  1.00  0.00     0.107 A 
HETATM   20  F   UNL     1      23.115  44.469  50.843  1.00  0.00    -0.202 F 
HETATM   21  C   UNL     1      24.356  41.620  48.961  1.00  0.00     0.040 A 
HETATM   22  C   UNL     1      25.493  41.295  49.704  1.00  0.00     0.004 A 
HETATM   23  C   UNL     1      25.832  42.044  50.832  1.00  0.00     0.020 A 
BRANCH  19  24
HETATM   24  O   UNL     1      22.422  43.110  48.691  1.00  0.00    -0.353 OA
HETATM   25  C   UNL     1      22.597  43.975  47.576  1.00  0.00     0.210 C 
ENDBRANCH  19  24
ENDBRANCH   1  17
TORSDOF 4
ENDMDL
MODEL 4
REMARK VINA RESULT:      -8.3      4.117      7.133
REMARK  4 active torsions:
REMARK  status: ('A' for Active; 'I' for Inactive)
REMARK    1  A    between atoms: O_2  and  C_3 
REMARK    2  A    between atoms: C_6  and  C_7 
REMARK       I    between atoms: C_7  and  N_8 
REMARK    3  A    between atoms: N_8  and  C_9 
REMARK    4  A    between atoms: C_14  and  C_15 
ROOT
HETATM    1  C   UNL     1      22.256  50.335  49.472  1.00  0.00     0.259 C 
HETATM    2  N   UNL     1      22.966  49.371  48.782  1.00  0.00    -0.320 N 
HETATM    3  O   UNL     1      22.691  51.034  50.381  1.00  0.00    -0.267 OA
HETATM    4  H   UNL     1      22.426  48.720  48.220  1.00  0.00     0.169 HD
ENDROOT
BRANCH   2   5
HETATM    5  C   UNL     1      24.352  49.094  48.878  1.00  0.00     0.074 A 
HETATM    6  C   UNL     1      25.375  49.892  48.357  1.00  0.00     0.143 A 
HETATM    7  F   UNL     1      25.129  50.972  47.605  1.00  0.00    -0.204 F 
HETATM    8  C   UNL     1      26.712  49.535  48.519  1.00  0.00     0.045 A 
HETATM    9  C   UNL     1      27.051  48.361  49.194  1.00  0.00     0.017 A 
HETATM   10  C   UNL     1      26.052  47.519  49.699  1.00  0.00     0.000 A 
HETATM   11  C   UNL     1      24.707  47.897  49.526  1.00  0.00     0.047 A 
BRANCH  10  12
HETATM   12  C   UNL     1      26.411  46.279  50.388  1.00  0.00     0.085 A 
HETATM   13  O   UNL     1      27.141  45.373  49.670  1.00  0.00    -0.322 OA
HETATM   14  C   UNL     1      27.375  44.307  50.476  1.00  0.00     0.142 A 
HETATM   15  C   UNL     1      26.806  44.504  51.710  1.00  0.00     0.027 A 
HETATM   16  C   UNL     1      26.183  45.775  51.655  1.00  0.00     0.040 A 
ENDBRANCH  10  12
ENDBRANCH   2   5
BRANCH   1  17
HETATM   17  C   UNL     1      20.816  50.499  49.108  1.00  0.00     0.073 A 
HETATM   18  C   UNL     1      19.862  49.492  49.275  1.00  0.00     0.165 A 
HETATM   19  C   UNL     1      18.518  49.695  48.931  1.00  0.00     0.107 A 
HETATM   20  F   UNL     1      20.222  48.303  49.791  1.00  0.00    -0.202 F 
HETATM   21  C   UNL     1      18.130  50.925  48.395  1.00  0.00     0.040 A 
HETATM   22  C   UNL     1      19.072  51.941  48.219  1.00  0.00     0.004 A 
HETATM   23  C   UNL     1      20.404  51.731  48.577  1.00  0.00     0.020 A 
BRANCH  19  24
HETATM   24  O   UNL     1      17.684  48.631  49.153  1.00  0.00    -0.353 OA
HETATM   25  C   UNL     1      17.156  47.973  48.009  1.00  0.00     0.210 C 
ENDBRANCH  19  24
ENDBRANCH   1  17
TORSDOF 4
ENDMDL
MODEL 5
REMARK VINA RESULT:      -8.3      1.608      2.118
REMARK  4 active torsions:
REMARK  status: ('A' for Active; 'I' for Inactive)
REMARK    1  A    between atoms: O_2  and  C_3 
REMARK    2  A    between atoms: C_6  and  C_7 
REMARK       I    between atoms: C_7  and  N_8 
REMARK    3  A    between atoms: N_8  and  C_9 
REMARK    4  A    between atoms: C_14  and  C_15 
ROOT
HETATM    1  C   UNL     1      26.048  46.455  51.132  1.00  0.00     0.259 C 
HETATM    2  N   UNL     1      26.830  45.388  50.732  1.00  0.00    -0.320 N 
HETATM    3  O   UNL     1      25.445  46.544  52.196  1.00  0.00    -0.267 OA
HETATM    4  H   UNL     1      27.080  45.347  49.749  1.00  0.00     0.169 HD
ENDROOT
BRANCH   2   5
HETATM    5  C   UNL     1      27.210  44.265  51.509  1.00  0.00     0.074 A 
HETATM    6  C   UNL     1      26.767  42.954  51.307  1.00  0.00     0.143 A 
HETATM    7  F   UNL     1      25.835  42.645  50.397  1.00  0.00    -0.204 F 
HETATM    8  C   UNL     1      27.215  41.916  52.122  1.00  0.00     0.045 A 
HETATM    9  C   UNL     1      28.102  42.174  53.168  1.00  0.00     0.017 A 
HETATM   10  C   UNL     1      28.539  43.480  53.422  1.00  0.00     0.000 A 
HETATM   11  C   UNL     1      28.077  44.515  52.587  1.00  0.00     0.047 A 
BRANCH  10  12
HETATM   12  C   UNL     1      29.454  43.750  54.532  1.00  0.00     0.085 A 
HETATM   13  O   UNL     1      29.301  44.950  55.168  1.00  0.00    -0.322 OA
HETATM   14  C   UNL     1      30.226  45.008  56.160  1.00  0.00     0.142 A 
HETATM   15  C   UNL     1      30.981  43.861  56.177  1.00  0.00     0.027 A 
HETATM   16  C   UNL     1      30.485  43.048  55.128  1.00  0.00     0.040 A 
ENDBRANCH  10  12
ENDBRANCH   2   5
BRANCH   1  17
HETATM   17  C   UNL     1      25.884  47.572  50.153  1.00  0.00     0.073 A 
HETATM   18  C   UNL     1      24.652  47.945  49.613  1.00  0.00     0.165 A 
HETATM   19  C   UNL     1      24.543  49.010  48.707  1.00  0.00     0.107 A 
HETATM   20  F   UNL     1      23.533  47.290  49.972  1.00  0.00    -0.202 F 
HETATM   21  C   UNL     1      25.696  49.700  48.325  1.00  0.00     0.040 A 
HETATM   22  C   UNL     1      26.936  49.337  48.855  1.00  0.00     0.004 A 
HETATM   23  C   UNL     1      27.030  48.285  49.765  1.00  0.00     0.020 A 
BRANCH  19  24
HETATM   24  O   UNL     1      23.276  49.279  48.259  1.00  0.00    -0.353 OA
HETATM   25  C   UNL     1      23.027  50.591  47.773  1.00  0.00     0.210 C 
ENDBRANCH  19  24
ENDBRANCH   1  17
TORSDOF 4
ENDMDL
MODEL 6
REMARK VINA RESULT:      -8.2      4.140      6.271
REMARK  4 active torsions:
REMARK  status: ('A' for Active; 'I' for Inactive)
REMARK    1  A    between atoms: O_2  and  C_3 
REMARK    2  A    between atoms: C_6  and  C_7 
REMARK       I    between atoms: C_7  and  N_8 
REMARK    3  A    between atoms: N_8  and  C_9 
REMARK    4  A    between atoms: C_14  and  C_15 
ROOT
HETATM    1  C   UNL     1      28.010  40.871  51.286  1.00  0.00     0.259 C 
HETATM    2  N   UNL     1      28.948  41.792  51.715  1.00  0.00    -0.320 N 
HETATM    3  O   UNL     1      26.864  40.766  51.708  1.00  0.00    -0.267 OA
HETATM    4  H   UNL     1      29.912  41.620  51.446  1.00  0.00     0.169 HD
ENDROOT
BRANCH   2   5
HETATM    5  C   UNL     1      28.743  42.874  52.605  1.00  0.00     0.074 A 
HETATM    6  C   UNL     1      27.806  43.897  52.434  1.00  0.00     0.143 A 
HETATM    7  F   UNL     1      27.063  44.009  51.326  1.00  0.00    -0.204 F 
HETATM    8  C   UNL     1      27.674  44.911  53.380  1.00  0.00     0.045 A 
HETATM    9  C   UNL     1      28.492  44.930  54.511  1.00  0.00     0.017 A 
HETATM   10  C   UNL     1      29.467  43.941  54.699  1.00  0.00     0.000 A 
HETATM   11  C   UNL     1      29.583  42.924  53.731  1.00  0.00     0.047 A 
BRANCH  10  12
HETATM   12  C   UNL     1      30.336  43.975  55.875  1.00  0.00     0.085 A 
HETATM   13  O   UNL     1      30.143  45.012  56.744  1.00  0.00    -0.322 OA
HETATM   14  C   UNL     1      31.030  44.864  57.760  1.00  0.00     0.142 A 
HETATM   15  C   UNL     1      31.801  43.745  57.564  1.00  0.00     0.027 A 
HETATM   16  C   UNL     1      31.355  43.170  56.349  1.00  0.00     0.040 A 
ENDBRANCH  10  12
ENDBRANCH   2   5
BRANCH   1  17
HETATM   17  C   UNL     1      28.456  39.888  50.254  1.00  0.00     0.073 A 
HETATM   18  C   UNL     1      28.102  39.976  48.906  1.00  0.00     0.165 A 
HETATM   19  C   UNL     1      28.555  39.036  47.969  1.00  0.00     0.107 A 
HETATM   20  F   UNL     1      27.324  40.987  48.479  1.00  0.00    -0.202 F 
HETATM   21  C   UNL     1      29.364  37.981  48.397  1.00  0.00     0.040 A 
HETATM   22  C   UNL     1      29.725  37.878  49.742  1.00  0.00     0.004 A 
HETATM   23  C   UNL     1      29.279  38.826  50.663  1.00  0.00     0.020 A 
BRANCH  19  24
HETATM   24  O   UNL     1      28.143  39.242  46.678  1.00  0.00    -0.353 OA
HETATM   25  C   UNL     1      27.217  38.309  46.137  1.00  0.00     0.210 C 
ENDBRANCH  19  24
ENDBRANCH   1  17
TORSDOF 4
ENDMDL
MODEL 7
REMARK VINA RESULT:      -8.0      2.318      2.927
REMARK  4 active torsions:
REMARK  status: ('A' for Active; 'I' for Inactive)
REMARK    1  A    between atoms: O_2  and  C_3 
REMARK    2  A    between atoms: C_6  and  C_7 
REMARK       I    between atoms: C_7  and  N_8 
REMARK    3  A    between atoms: N_8  and  C_9 
REMARK    4  A    between atoms: C_14  and  C_15 
ROOT
HETATM    1  C   UNL     1      25.511  44.277  51.916  1.00  0.00     0.259 C 
HETATM    2  N   UNL     1      26.855  44.191  51.603  1.00  0.00    -0.320 N 
HETATM    3  O   UNL     1      24.985  43.858  52.941  1.00  0.00    -0.267 OA
HETATM    4  H   UNL     1      27.111  44.371  50.637  1.00  0.00     0.169 HD
ENDROOT
BRANCH   2   5
HETATM    5  C   UNL     1      27.904  43.744  52.443  1.00  0.00     0.074 A 
HETATM    6  C   UNL     1      28.706  42.622  52.210  1.00  0.00     0.143 A 
HETATM    7  F   UNL     1      28.482  41.781  51.192  1.00  0.00    -0.204 F 
HETATM    8  C   UNL     1      29.724  42.275  53.095  1.00  0.00     0.045 A 
HETATM    9  C   UNL     1      29.949  43.037  54.243  1.00  0.00     0.017 A 
HETATM   10  C   UNL     1      29.143  44.147  54.528  1.00  0.00     0.000 A 
HETATM   11  C   UNL     1      28.120  44.481  53.620  1.00  0.00     0.047 A 
BRANCH  10  12
HETATM   12  C   UNL     1      29.369  44.931  55.742  1.00  0.00     0.085 A 
HETATM   13  O   UNL     1      28.298  45.632  56.222  1.00  0.00    -0.322 OA
HETATM   14  C   UNL     1      28.703  46.281  57.342  1.00  0.00     0.142 A 
HETATM   15  C   UNL     1      30.025  46.014  57.599  1.00  0.00     0.027 A 
HETATM   16  C   UNL     1      30.457  45.144  56.569  1.00  0.00     0.040 A 
ENDBRANCH  10  12
ENDBRANCH   2   5
BRANCH   1  17
HETATM   17  C   UNL     1      24.619  44.889  50.886  1.00  0.00     0.073 A 
HETATM   18  C   UNL     1      23.609  44.183  50.228  1.00  0.00     0.165 A 
HETATM   19  C   UNL     1      22.786  44.802  49.277  1.00  0.00     0.107 A 
HETATM   20  F   UNL     1      23.399  42.885  50.513  1.00  0.00    -0.202 F 
HETATM   21  C   UNL     1      22.992  46.149  48.971  1.00  0.00     0.040 A 
HETATM   22  C   UNL     1      23.998  46.868  49.619  1.00  0.00     0.004 A 
HETATM   23  C   UNL     1      24.803  46.245  50.572  1.00  0.00     0.020 A 
BRANCH  19  24
HETATM   24  O   UNL     1      21.829  44.001  48.712  1.00  0.00    -0.353 OA
HETATM   25  C   UNL     1      22.159  43.364  47.484  1.00  0.00     0.210 C 
ENDBRANCH  19  24
ENDBRANCH   1  17
TORSDOF 4
ENDMDL
MODEL 8
REMARK VINA RESULT:      -8.0      4.150      7.125
REMARK  4 active torsions:
REMARK  status: ('A' for Active; 'I' for Inactive)
REMARK    1  A    between atoms: O_2  and  C_3 
REMARK    2  A    between atoms: C_6  and  C_7 
REMARK       I    between atoms: C_7  and  N_8 
REMARK    3  A    between atoms: N_8  and  C_9 
REMARK    4  A    between atoms: C_14  and  C_15 
ROOT
HETATM    1  C   UNL     1      21.895  50.071  49.617  1.00  0.00     0.259 C 
HETATM    2  N   UNL     1      22.631  49.067  49.018  1.00  0.00    -0.320 N 
HETATM    3  O   UNL     1      22.334  50.924  50.382  1.00  0.00    -0.267 OA
HETATM    4  H   UNL     1      22.107  48.306  48.597  1.00  0.00     0.169 HD
ENDROOT
BRANCH   2   5
HETATM    5  C   UNL     1      24.038  48.902  49.045  1.00  0.00     0.074 A 
HETATM    6  C   UNL     1      24.968  49.781  48.482  1.00  0.00     0.143 A 
HETATM    7  F   UNL     1      24.599  50.842  47.754  1.00  0.00    -0.204 F 
HETATM    8  C   UNL     1      26.335  49.532  48.577  1.00  0.00     0.045 A 
HETATM    9  C   UNL     1      26.799  48.386  49.224  1.00  0.00     0.017 A 
HETATM   10  C   UNL     1      25.896  47.463  49.769  1.00  0.00     0.000 A 
HETATM   11  C   UNL     1      24.518  47.733  49.663  1.00  0.00     0.047 A 
BRANCH  10  12
HETATM   12  C   UNL     1      26.385  46.252  50.428  1.00  0.00     0.085 A 
HETATM   13  O   UNL     1      27.107  45.387  49.653  1.00  0.00    -0.322 OA
HETATM   14  C   UNL     1      27.472  44.343  50.439  1.00  0.00     0.142 A 
HETATM   15  C   UNL     1      26.996  44.515  51.716  1.00  0.00     0.027 A 
HETATM   16  C   UNL     1      26.295  45.745  51.711  1.00  0.00     0.040 A 
ENDBRANCH  10  12
ENDBRANCH   2   5
BRANCH   1  17
HETATM   17  C   UNL     1      20.426  50.082  49.345  1.00  0.00     0.073 A 
HETATM   18  C   UNL     1      19.771  51.138  48.706  1.00  0.00     0.165 A 
HETATM   19  C   UNL     1      18.391  51.099  48.460  1.00  0.00     0.107 A 
HETATM   20  F   UNL     1      20.468  52.214  48.299  1.00  0.00    -0.202 F 
HETATM   21  C   UNL     1      17.655  49.988  48.877  1.00  0.00     0.040 A 
HETATM   22  C   UNL     1      18.295  48.926  49.519  1.00  0.00     0.004 A 
HETATM   23  C   UNL     1      19.670  48.970  49.748  1.00  0.00     0.020 A 
BRANCH  19  24
HETATM   24  O   UNL     1      17.875  52.194  47.818  1.00  0.00    -0.353 OA
HETATM   25  C   UNL     1      17.439  52.012  46.477  1.00  0.00     0.210 C 
ENDBRANCH  19  24
ENDBRANCH   1  17
TORSDOF 4
ENDMDL
MODEL 9
REMARK VINA RESULT:      -7.8      2.608      7.410
REMARK  4 active torsions:
REMARK  status: ('A' for Active; 'I' for Inactive)
REMARK    1  A    between atoms: O_2  and  C_3 
REMARK    2  A    between atoms: C_6  and  C_7 
REMARK       I    between atoms: C_7  and  N_8 
REMARK    3  A    between atoms: N_8  and  C_9 
REMARK    4  A    between atoms: C_14  and  C_15 
ROOT
HETATM    1  C   UNL     1      29.308  43.126  53.194  1.00  0.00     0.259 C 
HETATM    2  N   UNL     1      28.060  42.532  53.179  1.00  0.00    -0.320 N 
HETATM    3  O   UNL     1      30.086  43.184  52.247  1.00  0.00    -0.267 OA
HETATM    4  H   UNL     1      27.627  42.359  54.080  1.00  0.00     0.169 HD
ENDROOT
BRANCH   2   5
HETATM    5  C   UNL     1      27.373  42.007  52.057  1.00  0.00     0.074 A 
HETATM    6  C   UNL     1      27.716  40.837  51.372  1.00  0.00     0.143 A 
HETATM    7  F   UNL     1      28.819  40.137  51.659  1.00  0.00    -0.204 F 
HETATM    8  C   UNL     1      26.962  40.399  50.284  1.00  0.00     0.045 A 
HETATM    9  C   UNL     1      25.859  41.136  49.849  1.00  0.00     0.017 A 
HETATM   10  C   UNL     1      25.507  42.332  50.488  1.00  0.00     0.000 A 
HETATM   11  C   UNL     1      26.281  42.757  51.586  1.00  0.00     0.047 A 
BRANCH  10  12
HETATM   12  C   UNL     1      24.363  43.112  50.017  1.00  0.00     0.085 A 
HETATM   13  O   UNL     1      24.649  44.269  49.348  1.00  0.00    -0.322 OA
HETATM   14  C   UNL     1      23.470  44.838  48.992  1.00  0.00     0.142 A 
HETATM   15  C   UNL     1      22.417  44.067  49.421  1.00  0.00     0.027 A 
HETATM   16  C   UNL     1      22.991  42.953  50.082  1.00  0.00     0.040 A 
ENDBRANCH  10  12
ENDBRANCH   2   5
BRANCH   1  17
HETATM   17  C   UNL     1      29.764  43.700  54.495  1.00  0.00     0.073 A 
HETATM   18  C   UNL     1      29.202  44.842  55.070  1.00  0.00     0.165 A 
HETATM   19  C   UNL     1      29.654  45.338  56.301  1.00  0.00     0.107 A 
HETATM   20  F   UNL     1      28.194  45.482  54.449  1.00  0.00    -0.202 F 
HETATM   21  C   UNL     1      30.699  44.684  56.957  1.00  0.00     0.040 A 
HETATM   22  C   UNL     1      31.273  43.542  56.395  1.00  0.00     0.004 A 
HETATM   23  C   UNL     1      30.807  43.051  55.175  1.00  0.00     0.020 A 
BRANCH  19  24
HETATM   24  O   UNL     1      29.012  46.459  56.758  1.00  0.00    -0.353 OA
HETATM   25  C   UNL     1      28.416  46.384  58.047  1.00  0.00     0.210 C 
ENDBRANCH  19  24
ENDBRANCH   1  17
TORSDOF 4
ENDMDL
MODEL 10
REMARK VINA RESULT:      -7.7      3.766      7.547
REMARK  4 active torsions:
REMARK  status: ('A' for Active; 'I' for Inactive)
REMARK    1  A    between atoms: O_2  and  C_3 
REMARK    2  A    between atoms: C_6  and  C_7 
REMARK       I    between atoms: C_7  and  N_8 
REMARK    3  A    between atoms: N_8  and  C_9 
REMARK    4  A    between atoms: C_14  and  C_15 
ROOT
HETATM    1  C   UNL     1      27.407  43.348  53.930  1.00  0.00     0.259 C 
HETATM    2  N   UNL     1      27.414  43.510  52.557  1.00  0.00    -0.320 N 
HETATM    3  O   UNL     1      26.670  42.597  54.560  1.00  0.00    -0.267 OA
HETATM    4  H   UNL     1      27.909  44.319  52.196  1.00  0.00     0.169 HD
ENDROOT
BRANCH   2   5
HETATM    5  C   UNL     1      26.690  42.756  51.601  1.00  0.00     0.074 A 
HETATM    6  C   UNL     1      25.449  43.110  51.062  1.00  0.00     0.143 A 
HETATM    7  F   UNL     1      24.761  44.176  51.488  1.00  0.00    -0.204 F 
HETATM    8  C   UNL     1      24.826  42.302  50.113  1.00  0.00     0.045 A 
HETATM    9  C   UNL     1      25.426  41.112  49.698  1.00  0.00     0.017 A 
HETATM   10  C   UNL     1      26.652  40.707  50.243  1.00  0.00     0.000 A 
HETATM   11  C   UNL     1      27.266  41.538  51.199  1.00  0.00     0.047 A 
BRANCH  10  12
HETATM   12  C   UNL     1      27.269  39.450  49.820  1.00  0.00     0.085 A 
HETATM   13  O   UNL     1      28.629  39.369  49.939  1.00  0.00    -0.322 OA
HETATM   14  C   UNL     1      29.003  38.138  49.507  1.00  0.00     0.142 A 
HETATM   15  C   UNL     1      27.906  37.416  49.106  1.00  0.00     0.027 A 
HETATM   16  C   UNL     1      26.787  38.260  49.307  1.00  0.00     0.040 A 
ENDBRANCH  10  12
ENDBRANCH   2   5
BRANCH   1  17
HETATM   17  C   UNL     1      28.348  44.204  54.713  1.00  0.00     0.073 A 
HETATM   18  C   UNL     1      29.625  43.788  55.097  1.00  0.00     0.165 A 
HETATM   19  C   UNL     1      30.480  44.631  55.821  1.00  0.00     0.107 A 
HETATM   20  F   UNL     1      30.064  42.562  54.760  1.00  0.00    -0.202 F 
HETATM   21  C   UNL     1      30.038  45.907  56.178  1.00  0.00     0.040 A 
HETATM   22  C   UNL     1      28.764  46.337  55.803  1.00  0.00     0.004 A 
HETATM   23  C   UNL     1      27.926  45.494  55.072  1.00  0.00     0.020 A 
BRANCH  19  24
HETATM   24  O   UNL     1      31.708  44.106  56.128  1.00  0.00    -0.353 OA
HETATM   25  C   UNL     1      31.805  43.338  57.321  1.00  0.00     0.210 C 
ENDBRANCH  19  24
ENDBRANCH   1  17
TORSDOF 4
ENDMDL
