MODEL 1
REMARK VINA RESULT:      -8.6      0.000      0.000
REMARK  7 active torsions:
REMARK  status: ('A' for Active; 'I' for Inactive)
REMARK    1  A    between atoms: C_2  and  C_3 
REMARK    2  A    between atoms: C_3  and  C_4 
REMARK    3  A    between atoms: C_8  and  C_9 
REMARK       I    between atoms: C_9  and  N_10 
REMARK    4  A    between atoms: N_10  and  C_11 
REMARK    5  A    between atoms: C_11  and  C_12 
REMARK    6  A    between atoms: C_12  and  N_13 
REMARK    7  A    between atoms: C_16  and  C_17 
ROOT
HETATM    1  C   UNL     1      27.006  45.679  50.064  1.00  0.00     0.150 C 
ENDROOT
BRANCH   1   2
HETATM    2  N   UNL     1      26.156  46.845  50.245  1.00  0.00    -0.354 N 
HETATM    3  C   UNL     1      26.259  47.930  49.386  1.00  0.00     0.272 C 
HETATM    4  O   UNL     1      27.297  48.191  48.787  1.00  0.00    -0.266 OA
HETATM    5  H   UNL     1      25.185  46.698  50.533  1.00  0.00     0.162 HD
BRANCH   3   6
HETATM    6  C   UNL     1      25.018  48.703  49.272  1.00  0.00     0.146 A 
HETATM    7  N   UNL     1      23.922  48.364  49.984  1.00  0.00    -0.169 NA
HETATM    8  N   UNL     1      22.991  49.256  49.591  1.00  0.00    -0.282 N 
HETATM    9  C   UNL     1      23.438  50.130  48.638  1.00  0.00     0.030 A 
HETATM   10  H   UNL     1      22.062  49.200  49.996  1.00  0.00     0.189 HD
HETATM   11  C   UNL     1      24.762  49.812  48.431  1.00  0.00     0.065 A 
BRANCH   9  12
HETATM   12  C   UNL     1      22.554  51.156  48.016  1.00  0.00     0.058 C 
BRANCH  12  13
HETATM   13  C   UNL     1      21.096  50.694  48.003  1.00  0.00     0.002 C 
HETATM   14  C   UNL     1      20.199  51.644  48.781  1.00  0.00     0.005 C 
ENDBRANCH  12  13
ENDBRANCH   9  12
ENDBRANCH   3   6
ENDBRANCH   1   2
BRANCH   1  15
HETATM   15  C   UNL     1      27.071  44.744  51.286  1.00  0.00     0.254 C 
BRANCH  15  16
HETATM   16  N   UNL     1      25.997  45.129  52.290  1.00  0.00    -0.069 N 
HETATM   17  H   UNL     1      25.334  45.709  51.752  1.00  0.00     0.280 HD
HETATM   18  C   UNL     1      26.524  45.967  53.439  1.00  0.00     0.244 C 
HETATM   19  C   UNL     1      26.619  45.000  54.626  1.00  0.00     0.046 C 
HETATM   20  C   UNL     1      25.356  44.162  54.402  1.00  0.00     0.039 C 
HETATM   21  C   UNL     1      25.262  43.959  52.898  1.00  0.00     0.235 C 
BRANCH  19  22
HETATM   22  C   UNL     1      27.967  44.283  54.675  1.00  0.00    -0.046 A 
HETATM   23  C   UNL     1      29.077  44.876  55.332  1.00  0.00    -0.055 A 
HETATM   24  C   UNL     1      29.006  46.187  56.075  1.00  0.00     0.049 C 
HETATM   25  C   UNL     1      30.332  44.242  55.286  1.00  0.00     0.007 A 
HETATM   26  C   UNL     1      30.498  43.016  54.652  1.00  0.00     0.001 A 
HETATM   27  C   UNL     1      29.405  42.397  54.064  1.00  0.00     0.001 A 
HETATM   28  C   UNL     1      28.154  43.019  54.082  1.00  0.00     0.008 A 
ENDBRANCH  19  22
ENDBRANCH  15  16
ENDBRANCH   1  15
TORSDOF 7
ENDMDL
MODEL 2
REMARK VINA RESULT:      -8.3      2.272      3.664
REMARK  7 active torsions:
REMARK  status: ('A' for Active; 'I' for Inactive)
REMARK    1  A    between atoms: C_2  and  C_3 
REMARK    2  A    between atoms: C_3  and  C_4 
REMARK    3  A    between atoms: C_8  and  C_9 
REMARK       I    between atoms: C_9  and  N_10 
REMARK    4  A    between atoms: N_10  and  C_11 
REMARK    5  A    between atoms: C_11  and  C_12 
REMARK    6  A    between atoms: C_12  and  N_13 
REMARK    7  A    between atoms: C_16  and  C_17 
ROOT
HETATM    1  C   UNL     1      26.294  43.180  50.891  1.00  0.00     0.150 C 
ENDROOT
BRANCH   1   2
HETATM    2  N   UNL     1      25.490  44.112  50.116  1.00  0.00    -0.354 N 
HETATM    3  C   UNL     1      24.498  44.863  50.730  1.00  0.00     0.272 C 
HETATM    4  O   UNL     1      23.931  44.484  51.750  1.00  0.00    -0.266 OA
HETATM    5  H   UNL     1      25.948  44.648  49.375  1.00  0.00     0.162 HD
BRANCH   3   6
HETATM    6  C   UNL     1      24.218  46.129  50.045  1.00  0.00     0.146 A 
HETATM    7  N   UNL     1      23.298  46.197  49.061  1.00  0.00    -0.169 NA
HETATM    8  N   UNL     1      23.351  47.481  48.655  1.00  0.00    -0.282 N 
HETATM    9  C   UNL     1      24.286  48.227  49.318  1.00  0.00     0.030 A 
HETATM   10  H   UNL     1      22.736  47.780  47.903  1.00  0.00     0.189 HD
HETATM   11  C   UNL     1      24.847  47.380  50.249  1.00  0.00     0.065 A 
BRANCH   9  12
HETATM   12  C   UNL     1      24.556  49.654  48.981  1.00  0.00     0.058 C 
BRANCH  12  13
HETATM   13  C   UNL     1      25.721  49.778  47.998  1.00  0.00     0.002 C 
HETATM   14  C   UNL     1      27.062  49.790  48.715  1.00  0.00     0.005 C 
ENDBRANCH  12  13
ENDBRANCH   9  12
ENDBRANCH   3   6
ENDBRANCH   1   2
BRANCH   1  15
HETATM   15  C   UNL     1      27.695  43.702  51.257  1.00  0.00     0.254 C 
BRANCH  15  16
HETATM   16  N   UNL     1      28.335  42.790  52.291  1.00  0.00    -0.069 N 
HETATM   17  H   UNL     1      28.362  41.864  51.838  1.00  0.00     0.280 HD
HETATM   18  C   UNL     1      27.521  42.665  53.564  1.00  0.00     0.244 C 
HETATM   19  C   UNL     1      28.245  43.547  54.589  1.00  0.00     0.046 C 
HETATM   20  C   UNL     1      29.704  43.261  54.218  1.00  0.00     0.039 C 
HETATM   21  C   UNL     1      29.732  43.191  52.698  1.00  0.00     0.235 C 
BRANCH  19  22
HETATM   22  C   UNL     1      27.755  44.992  54.548  1.00  0.00    -0.046 A 
HETATM   23  C   UNL     1      28.464  46.015  55.231  1.00  0.00    -0.055 A 
HETATM   24  C   UNL     1      29.757  45.784  55.973  1.00  0.00     0.049 C 
HETATM   25  C   UNL     1      27.946  47.323  55.258  1.00  0.00     0.007 A 
HETATM   26  C   UNL     1      26.776  47.648  54.581  1.00  0.00     0.001 A 
HETATM   27  C   UNL     1      26.111  46.671  53.856  1.00  0.00     0.001 A 
HETATM   28  C   UNL     1      26.599  45.362  53.834  1.00  0.00     0.008 A 
ENDBRANCH  19  22
ENDBRANCH  15  16
ENDBRANCH   1  15
TORSDOF 7
ENDMDL
MODEL 3
REMARK VINA RESULT:      -8.1      1.517      2.576
REMARK  7 active torsions:
REMARK  status: ('A' for Active; 'I' for Inactive)
REMARK    1  A    between atoms: C_2  and  C_3 
REMARK    2  A    between atoms: C_3  and  C_4 
REMARK    3  A    between atoms: C_8  and  C_9 
REMARK       I    between atoms: C_9  and  N_10 
REMARK    4  A    between atoms: N_10  and  C_11 
REMARK    5  A    between atoms: C_11  and  C_12 
REMARK    6  A    between atoms: C_12  and  N_13 
REMARK    7  A    between atoms: C_16  and  C_17 
ROOT
HETATM    1  C   UNL     1      26.335  47.265  50.236  1.00  0.00     0.150 C 
ENDROOT
BRANCH   1   2
HETATM    2  N   UNL     1      25.294  48.081  49.632  1.00  0.00    -0.354 N 
HETATM    3  C   UNL     1      24.025  47.561  49.422  1.00  0.00     0.272 C 
HETATM    4  O   UNL     1      23.831  46.359  49.270  1.00  0.00    -0.266 OA
HETATM    5  H   UNL     1      25.245  49.071  49.887  1.00  0.00     0.162 HD
BRANCH   3   6
HETATM    6  C   UNL     1      22.971  48.580  49.413  1.00  0.00     0.146 A 
HETATM    7  N   UNL     1      23.200  49.819  49.897  1.00  0.00    -0.169 NA
HETATM    8  N   UNL     1      22.014  50.444  49.763  1.00  0.00    -0.282 N 
HETATM    9  C   UNL     1      21.031  49.648  49.241  1.00  0.00     0.030 A 
HETATM   10  H   UNL     1      21.935  51.410  50.067  1.00  0.00     0.189 HD
HETATM   11  C   UNL     1      21.632  48.437  48.978  1.00  0.00     0.065 A 
BRANCH   9  12
HETATM   12  C   UNL     1      19.627  50.119  49.069  1.00  0.00     0.058 C 
BRANCH  12  13
HETATM   13  C   UNL     1      19.468  51.565  49.542  1.00  0.00     0.002 C 
HETATM   14  C   UNL     1      18.958  52.466  48.428  1.00  0.00     0.005 C 
ENDBRANCH  12  13
ENDBRANCH   9  12
ENDBRANCH   3   6
ENDBRANCH   1   2
BRANCH   1  15
HETATM   15  C   UNL     1      25.975  46.700  51.622  1.00  0.00     0.254 C 
BRANCH  15  16
HETATM   16  N   UNL     1      25.657  45.218  51.512  1.00  0.00    -0.069 N 
HETATM   17  H   UNL     1      24.843  45.174  50.880  1.00  0.00     0.280 HD
HETATM   18  C   UNL     1      25.256  44.592  52.834  1.00  0.00     0.244 C 
HETATM   19  C   UNL     1      26.492  43.808  53.295  1.00  0.00     0.046 C 
HETATM   20  C   UNL     1      26.984  43.255  51.954  1.00  0.00     0.039 C 
HETATM   21  C   UNL     1      26.778  44.379  50.949  1.00  0.00     0.235 C 
BRANCH  19  22
HETATM   22  C   UNL     1      27.444  44.672  54.119  1.00  0.00    -0.046 A 
HETATM   23  C   UNL     1      28.676  44.145  54.586  1.00  0.00    -0.055 A 
HETATM   24  C   UNL     1      29.168  42.755  54.262  1.00  0.00     0.049 C 
HETATM   25  C   UNL     1      29.496  44.927  55.420  1.00  0.00     0.007 A 
HETATM   26  C   UNL     1      29.149  46.230  55.754  1.00  0.00     0.001 A 
HETATM   27  C   UNL     1      27.979  46.778  55.249  1.00  0.00     0.001 A 
HETATM   28  C   UNL     1      27.142  46.010  54.436  1.00  0.00     0.008 A 
ENDBRANCH  19  22
ENDBRANCH  15  16
ENDBRANCH   1  15
TORSDOF 7
ENDMDL
MODEL 4
REMARK VINA RESULT:      -8.0      1.775      2.948
REMARK  7 active torsions:
REMARK  status: ('A' for Active; 'I' for Inactive)
REMARK    1  A    between atoms: C_2  and  C_3 
REMARK    2  A    between atoms: C_3  and  C_4 
REMARK    3  A    between atoms: C_8  and  C_9 
REMARK       I    between atoms: C_9  and  N_10 
REMARK    4  A    between atoms: N_10  and  C_11 
REMARK    5  A    between atoms: C_11  and  C_12 
REMARK    6  A    between atoms: C_12  and  N_13 
REMARK    7  A    between atoms: C_16  and  C_17 
ROOT
HETATM    1  C   UNL     1      26.448  43.834  50.111  1.00  0.00     0.150 C 
ENDROOT
BRANCH   1   2
HETATM    2  N   UNL     1      25.738  44.918  49.449  1.00  0.00    -0.354 N 
HETATM    3  C   UNL     1      24.818  45.686  50.148  1.00  0.00     0.272 C 
HETATM    4  O   UNL     1      24.214  45.251  51.124  1.00  0.00    -0.266 OA
HETATM    5  H   UNL     1      26.248  45.488  48.770  1.00  0.00     0.162 HD
BRANCH   3   6
HETATM    6  C   UNL     1      24.662  47.041  49.611  1.00  0.00     0.146 A 
HETATM    7  N   UNL     1      25.702  47.900  49.582  1.00  0.00    -0.169 NA
HETATM    8  N   UNL     1      25.175  49.032  49.073  1.00  0.00    -0.282 N 
HETATM    9  C   UNL     1      23.838  48.939  48.803  1.00  0.00     0.030 A 
HETATM   10  H   UNL     1      25.779  49.840  48.955  1.00  0.00     0.189 HD
HETATM   11  C   UNL     1      23.482  47.646  49.117  1.00  0.00     0.065 A 
BRANCH   9  12
HETATM   12  C   UNL     1      23.043  50.094  48.297  1.00  0.00     0.058 C 
BRANCH  12  13
HETATM   13  C   UNL     1      21.601  50.038  48.805  1.00  0.00     0.002 C 
HETATM   14  C   UNL     1      20.868  51.347  48.556  1.00  0.00     0.005 C 
ENDBRANCH  12  13
ENDBRANCH   9  12
ENDBRANCH   3   6
ENDBRANCH   1   2
BRANCH   1  15
HETATM   15  C   UNL     1      27.624  44.290  50.993  1.00  0.00     0.254 C 
BRANCH  15  16
HETATM   16  N   UNL     1      28.035  43.166  51.930  1.00  0.00    -0.069 N 
HETATM   17  H   UNL     1      28.018  42.319  51.343  1.00  0.00     0.280 HD
HETATM   18  C   UNL     1      27.067  42.959  53.078  1.00  0.00     0.244 C 
HETATM   19  C   UNL     1      27.752  43.589  54.298  1.00  0.00     0.046 C 
HETATM   20  C   UNL     1      29.206  43.182  54.036  1.00  0.00     0.039 C 
HETATM   21  C   UNL     1      29.408  43.329  52.536  1.00  0.00     0.235 C 
BRANCH  19  22
HETATM   22  C   UNL     1      27.427  45.074  54.435  1.00  0.00    -0.046 A 
HETATM   23  C   UNL     1      28.265  45.930  55.195  1.00  0.00    -0.055 A 
HETATM   24  C   UNL     1      29.545  45.478  55.855  1.00  0.00     0.049 C 
HETATM   25  C   UNL     1      27.898  47.275  55.386  1.00  0.00     0.007 A 
HETATM   26  C   UNL     1      26.753  47.800  54.797  1.00  0.00     0.001 A 
HETATM   27  C   UNL     1      25.962  46.989  53.997  1.00  0.00     0.001 A 
HETATM   28  C   UNL     1      26.299  45.645  53.812  1.00  0.00     0.008 A 
ENDBRANCH  19  22
ENDBRANCH  15  16
ENDBRANCH   1  15
TORSDOF 7
ENDMDL
MODEL 5
REMARK VINA RESULT:      -7.9      3.813      7.645
REMARK  7 active torsions:
REMARK  status: ('A' for Active; 'I' for Inactive)
REMARK    1  A    between atoms: C_2  and  C_3 
REMARK    2  A    between atoms: C_3  and  C_4 
REMARK    3  A    between atoms: C_8  and  C_9 
REMARK       I    between atoms: C_9  and  N_10 
REMARK    4  A    between atoms: N_10  and  C_11 
REMARK    5  A    between atoms: C_11  and  C_12 
REMARK    6  A    between atoms: C_12  and  N_13 
REMARK    7  A    between atoms: C_16  and  C_17 
ROOT
HETATM    1  C   UNL     1      25.630  46.750  53.055  1.00  0.00     0.150 C 
ENDROOT
BRANCH   1   2
HETATM    2  N   UNL     1      26.838  46.744  53.865  1.00  0.00    -0.354 N 
HETATM    3  C   UNL     1      26.848  47.342  55.117  1.00  0.00     0.272 C 
HETATM    4  O   UNL     1      26.090  48.263  55.405  1.00  0.00    -0.266 OA
HETATM    5  H   UNL     1      27.423  45.905  53.856  1.00  0.00     0.162 HD
BRANCH   3   6
HETATM    6  C   UNL     1      27.832  46.759  56.034  1.00  0.00     0.146 A 
HETATM    7  N   UNL     1      27.706  46.900  57.370  1.00  0.00    -0.169 NA
HETATM    8  N   UNL     1      28.795  46.283  57.867  1.00  0.00    -0.282 N 
HETATM    9  C   UNL     1      29.626  45.778  56.904  1.00  0.00     0.030 A 
HETATM   10  H   UNL     1      28.925  46.259  58.874  1.00  0.00     0.189 HD
HETATM   11  C   UNL     1      29.011  46.049  55.702  1.00  0.00     0.065 A 
BRANCH   9  12
HETATM   12  C   UNL     1      30.920  45.114  57.231  1.00  0.00     0.058 C 
BRANCH  12  13
HETATM   13  C   UNL     1      31.098  43.825  56.428  1.00  0.00     0.002 C 
HETATM   14  C   UNL     1      32.048  42.860  57.120  1.00  0.00     0.005 C 
ENDBRANCH  12  13
ENDBRANCH   9  12
ENDBRANCH   3   6
ENDBRANCH   1   2
BRANCH   1  15
HETATM   15  C   UNL     1      25.161  45.355  52.603  1.00  0.00     0.254 C 
BRANCH  15  16
HETATM   16  N   UNL     1      25.242  45.246  51.090  1.00  0.00    -0.069 N 
HETATM   17  H   UNL     1      24.372  45.683  50.751  1.00  0.00     0.280 HD
HETATM   18  C   UNL     1      25.269  43.813  50.593  1.00  0.00     0.244 C 
HETATM   19  C   UNL     1      26.732  43.548  50.217  1.00  0.00     0.046 C 
HETATM   20  C   UNL     1      27.108  44.901  49.604  1.00  0.00     0.039 C 
HETATM   21  C   UNL     1      26.430  45.947  50.475  1.00  0.00     0.235 C 
BRANCH  19  22
HETATM   22  C   UNL     1      27.545  43.037  51.404  1.00  0.00    -0.046 A 
HETATM   23  C   UNL     1      27.443  41.683  51.820  1.00  0.00    -0.055 A 
HETATM   24  C   UNL     1      26.605  40.650  51.107  1.00  0.00     0.049 C 
HETATM   25  C   UNL     1      28.130  41.255  52.971  1.00  0.00     0.007 A 
HETATM   26  C   UNL     1      28.953  42.121  53.683  1.00  0.00     0.001 A 
HETATM   27  C   UNL     1      29.111  43.427  53.247  1.00  0.00     0.001 A 
HETATM   28  C   UNL     1      28.422  43.877  52.117  1.00  0.00     0.008 A 
ENDBRANCH  19  22
ENDBRANCH  15  16
ENDBRANCH   1  15
TORSDOF 7
ENDMDL
MODEL 6
REMARK VINA RESULT:      -7.9      1.133      2.197
REMARK  7 active torsions:
REMARK  status: ('A' for Active; 'I' for Inactive)
REMARK    1  A    between atoms: C_2  and  C_3 
REMARK    2  A    between atoms: C_3  and  C_4 
REMARK    3  A    between atoms: C_8  and  C_9 
REMARK       I    between atoms: C_9  and  N_10 
REMARK    4  A    between atoms: N_10  and  C_11 
REMARK    5  A    between atoms: C_11  and  C_12 
REMARK    6  A    between atoms: C_12  and  N_13 
REMARK    7  A    between atoms: C_16  and  C_17 
ROOT
HETATM    1  C   UNL     1      26.847  44.767  49.902  1.00  0.00     0.150 C 
ENDROOT
BRANCH   1   2
HETATM    2  N   UNL     1      26.080  45.964  50.207  1.00  0.00    -0.354 N 
HETATM    3  C   UNL     1      26.357  47.161  49.560  1.00  0.00     0.272 C 
HETATM    4  O   UNL     1      27.468  47.414  49.107  1.00  0.00    -0.266 OA
HETATM    5  H   UNL     1      25.076  45.866  50.380  1.00  0.00     0.162 HD
BRANCH   3   6
HETATM    6  C   UNL     1      25.200  48.058  49.474  1.00  0.00     0.146 A 
HETATM    7  N   UNL     1      24.089  47.830  50.206  1.00  0.00    -0.169 NA
HETATM    8  N   UNL     1      23.248  48.815  49.835  1.00  0.00    -0.282 N 
HETATM    9  C   UNL     1      23.764  49.644  48.877  1.00  0.00     0.030 A 
HETATM   10  H   UNL     1      22.326  48.853  50.259  1.00  0.00     0.189 HD
HETATM   11  C   UNL     1      25.044  49.192  48.643  1.00  0.00     0.065 A 
BRANCH   9  12
HETATM   12  C   UNL     1      22.979  50.760  48.277  1.00  0.00     0.058 C 
BRANCH  12  13
HETATM   13  C   UNL     1      21.787  51.133  49.160  1.00  0.00     0.002 C 
HETATM   14  C   UNL     1      20.535  51.385  48.334  1.00  0.00     0.005 C 
ENDBRANCH  12  13
ENDBRANCH   9  12
ENDBRANCH   3   6
ENDBRANCH   1   2
BRANCH   1  15
HETATM   15  C   UNL     1      27.795  44.316  51.028  1.00  0.00     0.254 C 
BRANCH  15  16
HETATM   16  N   UNL     1      27.359  42.962  51.562  1.00  0.00    -0.069 N 
HETATM   17  H   UNL     1      26.897  42.504  50.762  1.00  0.00     0.280 HD
HETATM   18  C   UNL     1      26.350  43.060  52.691  1.00  0.00     0.244 C 
HETATM   19  C   UNL     1      27.152  42.775  53.967  1.00  0.00     0.046 C 
HETATM   20  C   UNL     1      28.092  41.675  53.463  1.00  0.00     0.039 C 
HETATM   21  C   UNL     1      28.489  42.091  52.055  1.00  0.00     0.235 C 
BRANCH  19  22
HETATM   22  C   UNL     1      27.766  44.044  54.553  1.00  0.00    -0.046 A 
HETATM   23  C   UNL     1      26.982  45.217  54.717  1.00  0.00    -0.055 A 
HETATM   24  C   UNL     1      25.508  45.288  54.403  1.00  0.00     0.049 C 
HETATM   25  C   UNL     1      27.589  46.402  55.171  1.00  0.00     0.007 A 
HETATM   26  C   UNL     1      28.936  46.435  55.516  1.00  0.00     0.001 A 
HETATM   27  C   UNL     1      29.695  45.279  55.423  1.00  0.00     0.001 A 
HETATM   28  C   UNL     1      29.115  44.097  54.954  1.00  0.00     0.008 A 
ENDBRANCH  19  22
ENDBRANCH  15  16
ENDBRANCH   1  15
TORSDOF 7
ENDMDL
MODEL 7
REMARK VINA RESULT:      -7.8      3.574      8.147
REMARK  7 active torsions:
REMARK  status: ('A' for Active; 'I' for Inactive)
REMARK    1  A    between atoms: C_2  and  C_3 
REMARK    2  A    between atoms: C_3  and  C_4 
REMARK    3  A    between atoms: C_8  and  C_9 
REMARK       I    between atoms: C_9  and  N_10 
REMARK    4  A    between atoms: N_10  and  C_11 
REMARK    5  A    between atoms: C_11  and  C_12 
REMARK    6  A    between atoms: C_12  and  N_13 
REMARK    7  A    between atoms: C_16  and  C_17 
ROOT
HETATM    1  C   UNL     1      26.095  41.461  50.638  1.00  0.00     0.150 C 
ENDROOT
BRANCH   1   2
HETATM    2  N   UNL     1      26.652  41.690  51.962  1.00  0.00    -0.354 N 
HETATM    3  C   UNL     1      27.986  41.410  52.222  1.00  0.00     0.272 C 
HETATM    4  O   UNL     1      28.610  40.566  51.586  1.00  0.00    -0.266 OA
HETATM    5  H   UNL     1      26.344  42.516  52.481  1.00  0.00     0.162 HD
BRANCH   3   6
HETATM    6  C   UNL     1      28.551  42.219  53.306  1.00  0.00     0.146 A 
HETATM    7  N   UNL     1      27.751  42.901  54.152  1.00  0.00    -0.169 NA
HETATM    8  N   UNL     1      28.612  43.546  54.965  1.00  0.00    -0.282 N 
HETATM    9  C   UNL     1      29.926  43.327  54.655  1.00  0.00     0.030 A 
HETATM   10  H   UNL     1      28.236  44.138  55.700  1.00  0.00     0.189 HD
HETATM   11  C   UNL     1      29.917  42.445  53.597  1.00  0.00     0.065 A 
BRANCH   9  12
HETATM   12  C   UNL     1      31.041  43.994  55.384  1.00  0.00     0.058 C 
BRANCH  12  13
HETATM   13  C   UNL     1      31.341  43.284  56.705  1.00  0.00     0.002 C 
HETATM   14  C   UNL     1      31.310  44.249  57.880  1.00  0.00     0.005 C 
ENDBRANCH  12  13
ENDBRANCH   9  12
ENDBRANCH   3   6
ENDBRANCH   1   2
BRANCH   1  15
HETATM   15  C   UNL     1      26.210  42.664  49.685  1.00  0.00     0.254 C 
BRANCH  15  16
HETATM   16  N   UNL     1      24.855  42.966  49.065  1.00  0.00    -0.069 N 
HETATM   17  H   UNL     1      24.840  42.415  48.193  1.00  0.00     0.280 HD
HETATM   18  C   UNL     1      24.676  44.427  48.698  1.00  0.00     0.244 C 
HETATM   19  C   UNL     1      23.774  45.006  49.796  1.00  0.00     0.046 C 
HETATM   20  C   UNL     1      22.815  43.831  50.013  1.00  0.00     0.039 C 
HETATM   21  C   UNL     1      23.675  42.580  49.924  1.00  0.00     0.235 C 
BRANCH  19  22
HETATM   22  C   UNL     1      24.578  45.517  50.988  1.00  0.00    -0.046 A 
HETATM   23  C   UNL     1      25.214  46.785  50.940  1.00  0.00    -0.055 A 
HETATM   24  C   UNL     1      25.097  47.736  49.774  1.00  0.00     0.049 C 
HETATM   25  C   UNL     1      26.026  47.198  52.013  1.00  0.00     0.007 A 
HETATM   26  C   UNL     1      26.176  46.409  53.147  1.00  0.00     0.001 A 
HETATM   27  C   UNL     1      25.506  45.198  53.233  1.00  0.00     0.001 A 
HETATM   28  C   UNL     1      24.711  44.762  52.169  1.00  0.00     0.008 A 
ENDBRANCH  19  22
ENDBRANCH  15  16
ENDBRANCH   1  15
TORSDOF 7
ENDMDL
MODEL 8
REMARK VINA RESULT:      -7.8     11.397     14.611
REMARK  7 active torsions:
REMARK  status: ('A' for Active; 'I' for Inactive)
REMARK    1  A    between atoms: C_2  and  C_3 
REMARK    2  A    between atoms: C_3  and  C_4 
REMARK    3  A    between atoms: C_8  and  C_9 
REMARK       I    between atoms: C_9  and  N_10 
REMARK    4  A    between atoms: N_10  and  C_11 
REMARK    5  A    between atoms: C_11  and  C_12 
REMARK    6  A    between atoms: C_12  and  N_13 
REMARK    7  A    between atoms: C_16  and  C_17 
ROOT
HETATM    1  C   UNL     1      29.142  48.331  41.905  1.00  0.00     0.150 C 
ENDROOT
BRANCH   1   2
HETATM    2  N   UNL     1      30.416  48.766  42.455  1.00  0.00    -0.354 N 
HETATM    3  C   UNL     1      31.570  48.707  41.687  1.00  0.00     0.272 C 
HETATM    4  O   UNL     1      31.701  47.905  40.767  1.00  0.00    -0.266 OA
HETATM    5  H   UNL     1      30.426  49.585  43.068  1.00  0.00     0.162 HD
BRANCH   3   6
HETATM    6  C   UNL     1      32.583  49.691  42.081  1.00  0.00     0.146 A 
HETATM    7  N   UNL     1      32.325  50.609  43.036  1.00  0.00    -0.169 NA
HETATM    8  N   UNL     1      33.451  51.348  43.090  1.00  0.00    -0.282 N 
HETATM    9  C   UNL     1      34.405  50.958  42.191  1.00  0.00     0.030 A 
HETATM   10  H   UNL     1      33.495  52.119  43.750  1.00  0.00     0.189 HD
HETATM   11  C   UNL     1      33.879  49.864  41.540  1.00  0.00     0.065 A 
BRANCH   9  12
HETATM   12  C   UNL     1      35.700  51.679  42.037  1.00  0.00     0.058 C 
BRANCH  12  13
HETATM   13  C   UNL     1      36.164  51.677  40.580  1.00  0.00     0.002 C 
HETATM   14  C   UNL     1      35.437  52.731  39.759  1.00  0.00     0.005 C 
ENDBRANCH  12  13
ENDBRANCH   9  12
ENDBRANCH   3   6
ENDBRANCH   1   2
BRANCH   1  15
HETATM   15  C   UNL     1      28.216  49.480  41.466  1.00  0.00     0.254 C 
BRANCH  15  16
HETATM   16  N   UNL     1      27.801  49.286  40.016  1.00  0.00    -0.069 N 
HETATM   17  H   UNL     1      27.383  48.343  39.990  1.00  0.00     0.280 HD
HETATM   18  C   UNL     1      28.970  49.305  39.051  1.00  0.00     0.244 C 
HETATM   19  C   UNL     1      28.916  50.687  38.386  1.00  0.00     0.046 C 
HETATM   20  C   UNL     1      27.401  50.862  38.237  1.00  0.00     0.039 C 
HETATM   21  C   UNL     1      26.797  50.295  39.514  1.00  0.00     0.235 C 
BRANCH  19  22
HETATM   22  C   UNL     1      29.694  51.734  39.178  1.00  0.00    -0.046 A 
HETATM   23  C   UNL     1      31.113  51.724  39.190  1.00  0.00    -0.055 A 
HETATM   24  C   UNL     1      31.949  50.753  38.392  1.00  0.00     0.049 C 
HETATM   25  C   UNL     1      31.810  52.640  40.000  1.00  0.00     0.007 A 
HETATM   26  C   UNL     1      31.135  53.596  40.751  1.00  0.00     0.001 A 
HETATM   27  C   UNL     1      29.751  53.657  40.695  1.00  0.00     0.001 A 
HETATM   28  C   UNL     1      29.041  52.743  39.913  1.00  0.00     0.008 A 
ENDBRANCH  19  22
ENDBRANCH  15  16
ENDBRANCH   1  15
TORSDOF 7
ENDMDL
MODEL 9
REMARK VINA RESULT:      -7.6      4.351      7.356
REMARK  7 active torsions:
REMARK  status: ('A' for Active; 'I' for Inactive)
REMARK    1  A    between atoms: C_2  and  C_3 
REMARK    2  A    between atoms: C_3  and  C_4 
REMARK    3  A    between atoms: C_8  and  C_9 
REMARK       I    between atoms: C_9  and  N_10 
REMARK    4  A    between atoms: N_10  and  C_11 
REMARK    5  A    between atoms: C_11  and  C_12 
REMARK    6  A    between atoms: C_12  and  N_13 
REMARK    7  A    between atoms: C_16  and  C_17 
ROOT
HETATM    1  C   UNL     1      26.178  44.376  50.327  1.00  0.00     0.150 C 
ENDROOT
BRANCH   1   2
HETATM    2  N   UNL     1      27.107  43.295  50.037  1.00  0.00    -0.354 N 
HETATM    3  C   UNL     1      26.699  41.972  50.132  1.00  0.00     0.272 C 
HETATM    4  O   UNL     1      25.785  41.624  50.873  1.00  0.00    -0.266 OA
HETATM    5  H   UNL     1      27.770  43.419  49.268  1.00  0.00     0.162 HD
BRANCH   3   6
HETATM    6  C   UNL     1      27.456  41.065  49.263  1.00  0.00     0.146 A 
HETATM    7  N   UNL     1      27.768  41.416  47.998  1.00  0.00    -0.169 NA
HETATM    8  N   UNL     1      28.410  40.336  47.511  1.00  0.00    -0.282 N 
HETATM    9  C   UNL     1      28.496  39.302  48.402  1.00  0.00     0.030 A 
HETATM   10  H   UNL     1      28.748  40.361  46.553  1.00  0.00     0.189 HD
HETATM   11  C   UNL     1      27.908  39.758  49.561  1.00  0.00     0.065 A 
BRANCH   9  12
HETATM   12  C   UNL     1      29.109  37.990  48.048  1.00  0.00     0.058 C 
BRANCH  12  13
HETATM   13  C   UNL     1      28.212  37.201  47.092  1.00  0.00     0.002 C 
HETATM   14  C   UNL     1      28.826  37.097  45.704  1.00  0.00     0.005 C 
ENDBRANCH  12  13
ENDBRANCH   9  12
ENDBRANCH   3   6
ENDBRANCH   1   2
BRANCH   1  15
HETATM   15  C   UNL     1      26.750  45.477  51.238  1.00  0.00     0.254 C 
BRANCH  15  16
HETATM   16  N   UNL     1      25.814  45.717  52.411  1.00  0.00    -0.069 N 
HETATM   17  H   UNL     1      25.190  46.475  52.095  1.00  0.00     0.280 HD
HETATM   18  C   UNL     1      26.529  46.193  53.661  1.00  0.00     0.244 C 
HETATM   19  C   UNL     1      26.593  44.963  54.576  1.00  0.00     0.046 C 
HETATM   20  C   UNL     1      25.221  44.341  54.299  1.00  0.00     0.039 C 
HETATM   21  C   UNL     1      24.986  44.518  52.806  1.00  0.00     0.235 C 
BRANCH  19  22
HETATM   22  C   UNL     1      27.839  44.120  54.316  1.00  0.00    -0.046 A 
HETATM   23  C   UNL     1      29.095  44.500  54.858  1.00  0.00    -0.055 A 
HETATM   24  C   UNL     1      29.288  45.690  55.765  1.00  0.00     0.049 C 
HETATM   25  C   UNL     1      30.247  43.762  54.531  1.00  0.00     0.007 A 
HETATM   26  C   UNL     1      30.173  42.630  53.727  1.00  0.00     0.001 A 
HETATM   27  C   UNL     1      28.941  42.212  53.246  1.00  0.00     0.001 A 
HETATM   28  C   UNL     1      27.788  42.944  53.543  1.00  0.00     0.008 A 
ENDBRANCH  19  22
ENDBRANCH  15  16
ENDBRANCH   1  15
TORSDOF 7
ENDMDL
MODEL 10
REMARK VINA RESULT:      -7.5     12.073     14.464
REMARK  7 active torsions:
REMARK  status: ('A' for Active; 'I' for Inactive)
REMARK    1  A    between atoms: C_2  and  C_3 
REMARK    2  A    between atoms: C_3  and  C_4 
REMARK    3  A    between atoms: C_8  and  C_9 
REMARK       I    between atoms: C_9  and  N_10 
REMARK    4  A    between atoms: N_10  and  C_11 
REMARK    5  A    between atoms: C_11  and  C_12 
REMARK    6  A    between atoms: C_12  and  N_13 
REMARK    7  A    between atoms: C_16  and  C_17 
ROOT
HETATM    1  C   UNL     1      31.335  48.715  40.080  1.00  0.00     0.150 C 
ENDROOT
BRANCH   1   2
HETATM    2  N   UNL     1      31.900  49.819  40.841  1.00  0.00    -0.354 N 
HETATM    3  C   UNL     1      32.045  49.723  42.217  1.00  0.00     0.272 C 
HETATM    4  O   UNL     1      31.329  48.997  42.899  1.00  0.00    -0.266 OA
HETATM    5  H   UNL     1      32.673  50.348  40.428  1.00  0.00     0.162 HD
BRANCH   3   6
HETATM    6  C   UNL     1      33.129  50.556  42.749  1.00  0.00     0.146 A 
HETATM    7  N   UNL     1      32.932  51.348  43.822  1.00  0.00    -0.169 NA
HETATM    8  N   UNL     1      34.112  51.978  43.983  1.00  0.00    -0.282 N 
HETATM    9  C   UNL     1      35.045  51.641  43.040  1.00  0.00     0.030 A 
HETATM   10  H   UNL     1      34.210  52.643  44.745  1.00  0.00     0.189 HD
HETATM   11  C   UNL     1      34.442  50.697  42.240  1.00  0.00     0.065 A 
BRANCH   9  12
HETATM   12  C   UNL     1      36.396  52.269  42.993  1.00  0.00     0.058 C 
BRANCH  12  13
HETATM   13  C   UNL     1      36.641  53.148  44.220  1.00  0.00     0.002 C 
HETATM   14  C   UNL     1      37.780  52.615  45.074  1.00  0.00     0.005 C 
ENDBRANCH  12  13
ENDBRANCH   9  12
ENDBRANCH   3   6
ENDBRANCH   1   2
BRANCH   1  15
HETATM   15  C   UNL     1      30.614  49.139  38.788  1.00  0.00     0.254 C 
BRANCH  15  16
HETATM   16  N   UNL     1      29.133  48.810  38.889  1.00  0.00    -0.069 N 
HETATM   17  H   UNL     1      28.994  48.034  38.224  1.00  0.00     0.280 HD
HETATM   18  C   UNL     1      28.235  49.956  38.465  1.00  0.00     0.244 C 
HETATM   19  C   UNL     1      27.707  50.555  39.774  1.00  0.00     0.046 C 
HETATM   20  C   UNL     1      27.499  49.279  40.597  1.00  0.00     0.039 C 
HETATM   21  C   UNL     1      28.681  48.381  40.264  1.00  0.00     0.235 C 
BRANCH  19  22
HETATM   22  C   UNL     1      28.636  51.632  40.328  1.00  0.00    -0.046 A 
HETATM   23  C   UNL     1      29.100  52.684  39.494  1.00  0.00    -0.055 A 
HETATM   24  C   UNL     1      28.675  52.861  38.057  1.00  0.00     0.049 C 
HETATM   25  C   UNL     1      30.028  53.614  39.998  1.00  0.00     0.007 A 
HETATM   26  C   UNL     1      30.462  53.556  41.317  1.00  0.00     0.001 A 
HETATM   27  C   UNL     1      29.964  52.573  42.159  1.00  0.00     0.001 A 
HETATM   28  C   UNL     1      29.057  51.628  41.672  1.00  0.00     0.008 A 
ENDBRANCH  19  22
ENDBRANCH  15  16
ENDBRANCH   1  15
TORSDOF 7
ENDMDL
