MODEL 1
REMARK VINA RESULT:      -8.4      0.000      0.000
REMARK  9 active torsions:
REMARK  status: ('A' for Active; 'I' for Inactive)
REMARK    1  A    between atoms: C_2  and  N_3 
REMARK    2  A    between atoms: N_3  and  C_5 
REMARK    3  A    between atoms: N_3  and  C_30 
REMARK    4  A    between atoms: C_5  and  C_6 
REMARK    5  A    between atoms: C_5  and  C_14 
REMARK    6  A    between atoms: C_8  and  O_9 
REMARK    7  A    between atoms: C_14  and  N_15 
REMARK       I    between atoms: N_15  and  C_16 
REMARK    8  A    between atoms: C_16  and  C_17 
REMARK    9  A    between atoms: C_18  and  N_19 
ROOT
HETATM    1  C   UNL     1      28.388  42.301  51.590  1.00  0.00     0.161 C 
ENDROOT
BRANCH   1   2
HETATM    2  C   UNL     1      27.578  42.540  50.267  1.00  0.00     0.238 C 
BRANCH   2   3
HETATM    3  N   UNL     1      27.068  41.223  49.653  1.00  0.00    -0.062 N 
HETATM    4  H   UNL     1      26.352  40.949  50.354  1.00  0.00     0.280 HD
BRANCH   3   5
HETATM    5  C   UNL     1      28.098  40.109  49.654  1.00  0.00     0.231 C 
HETATM    6  C   UNL     1      28.454  39.663  48.248  1.00  0.00     0.034 C 
ENDBRANCH   3   5
BRANCH   3   7
HETATM    7  C   UNL     1      26.389  41.360  48.314  1.00  0.00     0.231 C 
HETATM    8  C   UNL     1      24.930  40.952  48.402  1.00  0.00     0.034 C 
ENDBRANCH   3   7
ENDBRANCH   2   3
BRANCH   2   9
HETATM    9  C   UNL     1      26.524  43.627  50.422  1.00  0.00    -0.023 A 
HETATM   10  C   UNL     1      26.714  44.866  49.771  1.00  0.00     0.046 A 
HETATM   11  C   UNL     1      25.769  45.887  49.879  1.00  0.00     0.068 A 
HETATM   12  C   UNL     1      24.609  45.670  50.620  1.00  0.00     0.037 A 
HETATM   13  C   UNL     1      24.407  44.460  51.279  1.00  0.00     0.003 A 
HETATM   14  C   UNL     1      25.360  43.446  51.187  1.00  0.00     0.009 A 
BRANCH  11  15
HETATM   15  O   UNL     1      25.854  47.116  49.290  1.00  0.00    -0.356 OA
HETATM   16  C   UNL     1      26.707  48.070  49.910  1.00  0.00     0.210 C 
ENDBRANCH  11  15
ENDBRANCH   2   9
ENDBRANCH   1   2
BRANCH   1  17
HETATM   17  N   UNL     1      28.546  43.418  52.528  1.00  0.00    -0.354 N 
HETATM   18  C   UNL     1      28.250  43.288  53.877  1.00  0.00     0.253 C 
HETATM   19  O   UNL     1      27.351  42.539  54.239  1.00  0.00    -0.268 OA
HETATM   20  H   UNL     1      29.293  44.070  52.305  1.00  0.00     0.162 HD
BRANCH  18  21
HETATM   21  C   UNL     1      29.099  44.079  54.816  1.00  0.00     0.059 A 
HETATM   22  C   UNL     1      28.828  45.418  55.189  1.00  0.00     0.046 A 
HETATM   23  C   UNL     1      29.648  45.937  56.216  1.00  0.00     0.031 A 
HETATM   24  C   UNL     1      30.693  45.213  56.805  1.00  0.00     0.009 A 
HETATM   25  C   UNL     1      30.961  43.911  56.405  1.00  0.00    -0.061 A 
HETATM   26  C   UNL     1      32.042  43.112  57.070  1.00  0.00     0.048 C 
HETATM   27  C   UNL     1      30.141  43.342  55.432  1.00  0.00     0.026 A 
BRANCH  22  28
HETATM   28  N   UNL     1      27.836  46.217  54.637  1.00  0.00    -0.380 N 
HETATM   29  C   UNL     1      27.815  47.670  54.795  1.00  0.00     0.123 C 
HETATM   30  C   UNL     1      26.337  48.052  54.720  1.00  0.00     0.021 C 
HETATM   31  C   UNL     1      25.745  46.957  53.852  1.00  0.00     0.021 C 
HETATM   32  C   UNL     1      26.480  45.723  54.359  1.00  0.00     0.123 C 
ENDBRANCH  22  28
ENDBRANCH  18  21
ENDBRANCH   1  17
TORSDOF 9
ENDMDL
MODEL 2
REMARK VINA RESULT:      -8.2      2.003      4.381
REMARK  9 active torsions:
REMARK  status: ('A' for Active; 'I' for Inactive)
REMARK    1  A    between atoms: C_2  and  N_3 
REMARK    2  A    between atoms: N_3  and  C_5 
REMARK    3  A    between atoms: N_3  and  C_30 
REMARK    4  A    between atoms: C_5  and  C_6 
REMARK    5  A    between atoms: C_5  and  C_14 
REMARK    6  A    between atoms: C_8  and  O_9 
REMARK    7  A    between atoms: C_14  and  N_15 
REMARK       I    between atoms: N_15  and  C_16 
REMARK    8  A    between atoms: C_16  and  C_17 
REMARK    9  A    between atoms: C_18  and  N_19 
ROOT
HETATM    1  C   UNL     1      25.413  46.833  52.446  1.00  0.00     0.161 C 
ENDROOT
BRANCH   1   2
HETATM    2  C   UNL     1      25.720  46.401  50.969  1.00  0.00     0.238 C 
BRANCH   2   3
HETATM    3  N   UNL     1      24.711  45.361  50.447  1.00  0.00    -0.062 N 
HETATM    4  H   UNL     1      23.868  45.955  50.329  1.00  0.00     0.280 HD
BRANCH   3   5
HETATM    5  C   UNL     1      24.337  44.305  51.470  1.00  0.00     0.231 C 
HETATM    6  C   UNL     1      23.934  42.996  50.816  1.00  0.00     0.034 C 
ENDBRANCH   3   5
BRANCH   3   7
HETATM    7  C   UNL     1      25.051  44.753  49.110  1.00  0.00     0.231 C 
HETATM    8  C   UNL     1      23.882  44.870  48.149  1.00  0.00     0.034 C 
ENDBRANCH   3   7
ENDBRANCH   2   3
BRANCH   2   9
HETATM    9  C   UNL     1      25.945  47.594  50.051  1.00  0.00    -0.023 A 
HETATM   10  C   UNL     1      24.827  48.252  49.493  1.00  0.00     0.046 A 
HETATM   11  C   UNL     1      24.987  49.355  48.653  1.00  0.00     0.068 A 
HETATM   12  C   UNL     1      26.270  49.828  48.382  1.00  0.00     0.037 A 
HETATM   13  C   UNL     1      27.387  49.186  48.911  1.00  0.00     0.003 A 
HETATM   14  C   UNL     1      27.227  48.072  49.736  1.00  0.00     0.009 A 
BRANCH  11  15
HETATM   15  O   UNL     1      23.978  50.063  48.067  1.00  0.00    -0.356 OA
HETATM   16  C   UNL     1      22.701  49.437  48.008  1.00  0.00     0.210 C 
ENDBRANCH  11  15
ENDBRANCH   2   9
ENDBRANCH   1   2
BRANCH   1  17
HETATM   17  N   UNL     1      26.438  46.605  53.471  1.00  0.00    -0.354 N 
HETATM   18  C   UNL     1      26.410  45.492  54.298  1.00  0.00     0.253 C 
HETATM   19  O   UNL     1      25.338  45.007  54.639  1.00  0.00    -0.268 OA
HETATM   20  H   UNL     1      27.364  46.959  53.245  1.00  0.00     0.162 HD
BRANCH  18  21
HETATM   21  C   UNL     1      27.737  44.939  54.701  1.00  0.00     0.059 A 
HETATM   22  C   UNL     1      28.423  43.929  53.985  1.00  0.00     0.046 A 
HETATM   23  C   UNL     1      29.738  43.661  54.427  1.00  0.00     0.031 A 
HETATM   24  C   UNL     1      30.325  44.303  55.526  1.00  0.00     0.009 A 
HETATM   25  C   UNL     1      29.626  45.270  56.233  1.00  0.00    -0.061 A 
HETATM   26  C   UNL     1      30.268  46.000  57.375  1.00  0.00     0.048 C 
HETATM   27  C   UNL     1      28.344  45.604  55.796  1.00  0.00     0.026 A 
BRANCH  22  28
HETATM   28  N   UNL     1      27.907  43.221  52.908  1.00  0.00    -0.380 N 
HETATM   29  C   UNL     1      27.694  41.775  52.943  1.00  0.00     0.123 C 
HETATM   30  C   UNL     1      27.835  41.322  51.491  1.00  0.00     0.021 C 
HETATM   31  C   UNL     1      27.414  42.551  50.707  1.00  0.00     0.021 C 
HETATM   32  C   UNL     1      28.051  43.674  51.517  1.00  0.00     0.123 C 
ENDBRANCH  22  28
ENDBRANCH  18  21
ENDBRANCH   1  17
TORSDOF 9
ENDMDL
MODEL 3
REMARK VINA RESULT:      -7.9      1.465      2.086
REMARK  9 active torsions:
REMARK  status: ('A' for Active; 'I' for Inactive)
REMARK    1  A    between atoms: C_2  and  N_3 
REMARK    2  A    between atoms: N_3  and  C_5 
REMARK    3  A    between atoms: N_3  and  C_30 
REMARK    4  A    between atoms: C_5  and  C_6 
REMARK    5  A    between atoms: C_5  and  C_14 
REMARK    6  A    between atoms: C_8  and  O_9 
REMARK    7  A    between atoms: C_14  and  N_15 
REMARK       I    between atoms: N_15  and  C_16 
REMARK    8  A    between atoms: C_16  and  C_17 
REMARK    9  A    between atoms: C_18  and  N_19 
ROOT
HETATM    1  C   UNL     1      27.501  41.701  52.405  1.00  0.00     0.161 C 
ENDROOT
BRANCH   1   2
HETATM    2  C   UNL     1      27.731  42.283  50.966  1.00  0.00     0.238 C 
BRANCH   2   3
HETATM    3  N   UNL     1      27.967  41.174  49.924  1.00  0.00    -0.062 N 
HETATM    4  H   UNL     1      28.984  41.291  49.747  1.00  0.00     0.280 HD
BRANCH   3   5
HETATM    5  C   UNL     1      27.282  41.429  48.594  1.00  0.00     0.231 C 
HETATM    6  C   UNL     1      28.178  41.087  47.418  1.00  0.00     0.034 C 
ENDBRANCH   3   5
BRANCH   3   7
HETATM    7  C   UNL     1      27.732  39.769  50.418  1.00  0.00     0.231 C 
HETATM    8  C   UNL     1      26.502  39.165  49.766  1.00  0.00     0.034 C 
ENDBRANCH   3   7
ENDBRANCH   2   3
BRANCH   2   9
HETATM    9  C   UNL     1      26.678  43.313  50.582  1.00  0.00    -0.023 A 
HETATM   10  C   UNL     1      25.314  43.007  50.781  1.00  0.00     0.046 A 
HETATM   11  C   UNL     1      24.316  43.925  50.450  1.00  0.00     0.068 A 
HETATM   12  C   UNL     1      24.675  45.171  49.939  1.00  0.00     0.037 A 
HETATM   13  C   UNL     1      26.014  45.488  49.723  1.00  0.00     0.003 A 
HETATM   14  C   UNL     1      27.010  44.563  50.036  1.00  0.00     0.009 A 
BRANCH  11  15
HETATM   15  O   UNL     1      22.973  43.731  50.605  1.00  0.00    -0.356 OA
HETATM   16  C   UNL     1      22.141  44.079  49.506  1.00  0.00     0.210 C 
ENDBRANCH  11  15
ENDBRANCH   2   9
ENDBRANCH   1   2
BRANCH   1  17
HETATM   17  N   UNL     1      28.443  42.068  53.469  1.00  0.00    -0.354 N 
HETATM   18  C   UNL     1      29.350  43.107  53.316  1.00  0.00     0.253 C 
HETATM   19  O   UNL     1      29.822  43.353  52.213  1.00  0.00    -0.268 OA
HETATM   20  H   UNL     1      28.109  41.916  54.417  1.00  0.00     0.162 HD
BRANCH  18  21
HETATM   21  C   UNL     1      29.671  43.886  54.549  1.00  0.00     0.059 A 
HETATM   22  C   UNL     1      28.902  44.980  55.015  1.00  0.00     0.046 A 
HETATM   23  C   UNL     1      29.268  45.477  56.286  1.00  0.00     0.031 A 
HETATM   24  C   UNL     1      30.342  44.971  57.030  1.00  0.00     0.009 A 
HETATM   25  C   UNL     1      31.102  43.917  56.542  1.00  0.00    -0.061 A 
HETATM   26  C   UNL     1      32.219  43.335  57.357  1.00  0.00     0.048 C 
HETATM   27  C   UNL     1      30.742  43.361  55.315  1.00  0.00     0.026 A 
BRANCH  22  28
HETATM   28  N   UNL     1      27.844  45.563  54.332  1.00  0.00    -0.380 N 
HETATM   29  C   UNL     1      27.676  47.011  54.225  1.00  0.00     0.123 C 
HETATM   30  C   UNL     1      26.169  47.224  54.088  1.00  0.00     0.021 C 
HETATM   31  C   UNL     1      25.702  45.936  53.434  1.00  0.00     0.021 C 
HETATM   32  C   UNL     1      26.548  44.893  54.153  1.00  0.00     0.123 C 
ENDBRANCH  22  28
ENDBRANCH  18  21
ENDBRANCH   1  17
TORSDOF 9
ENDMDL
MODEL 4
REMARK VINA RESULT:      -7.7      1.593      4.112
REMARK  9 active torsions:
REMARK  status: ('A' for Active; 'I' for Inactive)
REMARK    1  A    between atoms: C_2  and  N_3 
REMARK    2  A    between atoms: N_3  and  C_5 
REMARK    3  A    between atoms: N_3  and  C_30 
REMARK    4  A    between atoms: C_5  and  C_6 
REMARK    5  A    between atoms: C_5  and  C_14 
REMARK    6  A    between atoms: C_8  and  O_9 
REMARK    7  A    between atoms: C_14  and  N_15 
REMARK       I    between atoms: N_15  and  C_16 
REMARK    8  A    between atoms: C_16  and  C_17 
REMARK    9  A    between atoms: C_18  and  N_19 
ROOT
HETATM    1  C   UNL     1      28.491  43.000  51.277  1.00  0.00     0.161 C 
ENDROOT
BRANCH   1   2
HETATM    2  C   UNL     1      27.116  42.585  50.646  1.00  0.00     0.238 C 
BRANCH   2   3
HETATM    3  N   UNL     1      26.482  43.730  49.834  1.00  0.00    -0.062 N 
HETATM    4  H   UNL     1      26.543  43.340  48.873  1.00  0.00     0.280 HD
BRANCH   3   5
HETATM    5  C   UNL     1      27.309  45.002  49.820  1.00  0.00     0.231 C 
HETATM    6  C   UNL     1      26.443  46.245  49.910  1.00  0.00     0.034 C 
ENDBRANCH   3   5
BRANCH   3   7
HETATM    7  C   UNL     1      25.031  44.006  50.139  1.00  0.00     0.231 C 
HETATM    8  C   UNL     1      24.676  43.545  51.541  1.00  0.00     0.034 C 
ENDBRANCH   3   7
ENDBRANCH   2   3
BRANCH   2   9
HETATM    9  C   UNL     1      27.190  41.249  49.921  1.00  0.00    -0.023 A 
HETATM   10  C   UNL     1      28.361  40.469  50.038  1.00  0.00     0.046 A 
HETATM   11  C   UNL     1      28.469  39.233  49.397  1.00  0.00     0.068 A 
HETATM   12  C   UNL     1      27.393  38.753  48.653  1.00  0.00     0.037 A 
HETATM   13  C   UNL     1      26.234  39.512  48.515  1.00  0.00     0.003 A 
HETATM   14  C   UNL     1      26.133  40.755  49.140  1.00  0.00     0.009 A 
BRANCH  11  15
HETATM   15  O   UNL     1      29.551  38.402  49.447  1.00  0.00    -0.356 OA
HETATM   16  C   UNL     1      29.730  37.648  50.640  1.00  0.00     0.210 C 
ENDBRANCH  11  15
ENDBRANCH   2   9
ENDBRANCH   1   2
BRANCH   1  17
HETATM   17  N   UNL     1      28.485  43.864  52.464  1.00  0.00    -0.354 N 
HETATM   18  C   UNL     1      28.458  43.342  53.749  1.00  0.00     0.253 C 
HETATM   19  O   UNL     1      27.868  42.292  53.972  1.00  0.00    -0.268 OA
HETATM   20  H   UNL     1      28.980  44.746  52.361  1.00  0.00     0.162 HD
BRANCH  18  21
HETATM   21  C   UNL     1      29.197  44.116  54.789  1.00  0.00     0.059 A 
HETATM   22  C   UNL     1      28.817  45.405  55.235  1.00  0.00     0.046 A 
HETATM   23  C   UNL     1      29.541  45.899  56.343  1.00  0.00     0.031 A 
HETATM   24  C   UNL     1      30.596  45.201  56.945  1.00  0.00     0.009 A 
HETATM   25  C   UNL     1      30.973  43.951  56.475  1.00  0.00    -0.061 A 
HETATM   26  C   UNL     1      32.066  43.176  57.149  1.00  0.00     0.048 C 
HETATM   27  C   UNL     1      30.249  43.403  55.417  1.00  0.00     0.026 A 
BRANCH  22  28
HETATM   28  N   UNL     1      27.807  46.178  54.679  1.00  0.00    -0.380 N 
HETATM   29  C   UNL     1      27.796  47.638  54.759  1.00  0.00     0.123 C 
HETATM   30  C   UNL     1      26.317  48.022  54.719  1.00  0.00     0.021 C 
HETATM   31  C   UNL     1      25.690  46.884  53.934  1.00  0.00     0.021 C 
HETATM   32  C   UNL     1      26.440  45.675  54.478  1.00  0.00     0.123 C 
ENDBRANCH  22  28
ENDBRANCH  18  21
ENDBRANCH   1  17
TORSDOF 9
ENDMDL
MODEL 5
REMARK VINA RESULT:      -7.5      3.679      8.010
REMARK  9 active torsions:
REMARK  status: ('A' for Active; 'I' for Inactive)
REMARK    1  A    between atoms: C_2  and  N_3 
REMARK    2  A    between atoms: N_3  and  C_5 
REMARK    3  A    between atoms: N_3  and  C_30 
REMARK    4  A    between atoms: C_5  and  C_6 
REMARK    5  A    between atoms: C_5  and  C_14 
REMARK    6  A    between atoms: C_8  and  O_9 
REMARK    7  A    between atoms: C_14  and  N_15 
REMARK       I    between atoms: N_15  and  C_16 
REMARK    8  A    between atoms: C_16  and  C_17 
REMARK    9  A    between atoms: C_18  and  N_19 
ROOT
HETATM    1  C   UNL     1      25.692  47.184  51.543  1.00  0.00     0.161 C 
ENDROOT
BRANCH   1   2
HETATM    2  C   UNL     1      26.353  45.894  52.144  1.00  0.00     0.238 C 
BRANCH   2   3
HETATM    3  N   UNL     1      26.175  45.810  53.671  1.00  0.00    -0.062 N 
HETATM    4  H   UNL     1      25.208  45.437  53.731  1.00  0.00     0.280 HD
BRANCH   3   5
HETATM    5  C   UNL     1      26.144  47.162  54.359  1.00  0.00     0.231 C 
HETATM    6  C   UNL     1      27.491  47.528  54.955  1.00  0.00     0.034 C 
ENDBRANCH   3   5
BRANCH   3   7
HETATM    7  C   UNL     1      27.097  44.843  54.371  1.00  0.00     0.231 C 
HETATM    8  C   UNL     1      26.333  43.630  54.870  1.00  0.00     0.034 C 
ENDBRANCH   3   7
ENDBRANCH   2   3
BRANCH   2   9
HETATM    9  C   UNL     1      25.966  44.635  51.381  1.00  0.00    -0.023 A 
HETATM   10  C   UNL     1      26.844  44.130  50.399  1.00  0.00     0.046 A 
HETATM   11  C   UNL     1      26.533  42.973  49.681  1.00  0.00     0.068 A 
HETATM   12  C   UNL     1      25.348  42.295  49.960  1.00  0.00     0.037 A 
HETATM   13  C   UNL     1      24.462  42.782  50.916  1.00  0.00     0.003 A 
HETATM   14  C   UNL     1      24.764  43.948  51.619  1.00  0.00     0.009 A 
BRANCH  11  15
HETATM   15  O   UNL     1      27.311  42.401  48.716  1.00  0.00    -0.356 OA
HETATM   16  C   UNL     1      27.635  41.026  48.881  1.00  0.00     0.210 C 
ENDBRANCH  11  15
ENDBRANCH   2   9
ENDBRANCH   1   2
BRANCH   1  17
HETATM   17  N   UNL     1      24.364  47.070  50.927  1.00  0.00    -0.354 N 
HETATM   18  C   UNL     1      24.048  47.720  49.743  1.00  0.00     0.253 C 
HETATM   19  O   UNL     1      24.557  48.804  49.484  1.00  0.00    -0.268 OA
HETATM   20  H   UNL     1      23.890  46.184  51.079  1.00  0.00     0.162 HD
BRANCH  18  21
HETATM   21  C   UNL     1      23.099  47.010  48.836  1.00  0.00     0.059 A 
HETATM   22  C   UNL     1      22.060  47.653  48.120  1.00  0.00     0.046 A 
HETATM   23  C   UNL     1      21.380  46.841  47.185  1.00  0.00     0.031 A 
HETATM   24  C   UNL     1      21.664  45.482  46.996  1.00  0.00     0.009 A 
HETATM   25  C   UNL     1      22.667  44.864  47.728  1.00  0.00    -0.061 A 
HETATM   26  C   UNL     1      23.013  43.424  47.491  1.00  0.00     0.048 C 
HETATM   27  C   UNL     1      23.400  45.642  48.623  1.00  0.00     0.026 A 
BRANCH  22  28
HETATM   28  N   UNL     1      21.691  48.982  48.267  1.00  0.00    -0.380 N 
HETATM   29  C   UNL     1      22.401  50.076  47.606  1.00  0.00     0.123 C 
HETATM   30  C   UNL     1      22.205  51.283  48.523  1.00  0.00     0.021 C 
HETATM   31  C   UNL     1      20.881  50.984  49.202  1.00  0.00     0.021 C 
HETATM   32  C   UNL     1      20.990  49.486  49.457  1.00  0.00     0.123 C 
ENDBRANCH  22  28
ENDBRANCH  18  21
ENDBRANCH   1  17
TORSDOF 9
ENDMDL
MODEL 6
REMARK VINA RESULT:      -7.5      1.997      8.018
REMARK  9 active torsions:
REMARK  status: ('A' for Active; 'I' for Inactive)
REMARK    1  A    between atoms: C_2  and  N_3 
REMARK    2  A    between atoms: N_3  and  C_5 
REMARK    3  A    between atoms: N_3  and  C_30 
REMARK    4  A    between atoms: C_5  and  C_6 
REMARK    5  A    between atoms: C_5  and  C_14 
REMARK    6  A    between atoms: C_8  and  O_9 
REMARK    7  A    between atoms: C_14  and  N_15 
REMARK       I    between atoms: N_15  and  C_16 
REMARK    8  A    between atoms: C_16  and  C_17 
REMARK    9  A    between atoms: C_18  and  N_19 
ROOT
HETATM    1  C   UNL     1      27.112  43.188  52.249  1.00  0.00     0.161 C 
ENDROOT
BRANCH   1   2
HETATM    2  C   UNL     1      27.630  44.537  52.861  1.00  0.00     0.238 C 
BRANCH   2   3
HETATM    3  N   UNL     1      26.474  45.446  53.322  1.00  0.00    -0.062 N 
HETATM    4  H   UNL     1      26.819  45.733  54.259  1.00  0.00     0.280 HD
BRANCH   3   5
HETATM    5  C   UNL     1      25.173  44.705  53.565  1.00  0.00     0.231 C 
HETATM    6  C   UNL     1      25.100  44.130  54.966  1.00  0.00     0.034 C 
ENDBRANCH   3   5
BRANCH   3   7
HETATM    7  C   UNL     1      26.268  46.689  52.494  1.00  0.00     0.231 C 
HETATM    8  C   UNL     1      25.084  46.526  51.558  1.00  0.00     0.034 C 
ENDBRANCH   3   7
ENDBRANCH   2   3
BRANCH   2   9
HETATM    9  C   UNL     1      28.728  44.322  53.892  1.00  0.00    -0.023 A 
HETATM   10  C   UNL     1      28.862  45.242  54.955  1.00  0.00     0.046 A 
HETATM   11  C   UNL     1      29.850  45.079  55.927  1.00  0.00     0.068 A 
HETATM   12  C   UNL     1      30.700  43.977  55.860  1.00  0.00     0.037 A 
HETATM   13  C   UNL     1      30.593  43.064  54.813  1.00  0.00     0.003 A 
HETATM   14  C   UNL     1      29.618  43.238  53.831  1.00  0.00     0.009 A 
BRANCH  11  15
HETATM   15  O   UNL     1      30.062  45.905  56.993  1.00  0.00    -0.356 OA
HETATM   16  C   UNL     1      30.613  45.317  58.165  1.00  0.00     0.210 C 
ENDBRANCH  11  15
ENDBRANCH   2   9
ENDBRANCH   1   2
BRANCH   1  17
HETATM   17  N   UNL     1      26.033  43.237  51.255  1.00  0.00    -0.354 N 
HETATM   18  C   UNL     1      26.292  43.412  49.903  1.00  0.00     0.253 C 
HETATM   19  O   UNL     1      27.247  44.089  49.543  1.00  0.00    -0.268 OA
HETATM   20  H   UNL     1      25.215  42.676  51.474  1.00  0.00     0.162 HD
BRANCH  18  21
HETATM   21  C   UNL     1      25.367  42.714  48.961  1.00  0.00     0.059 A 
HETATM   22  C   UNL     1      25.536  41.374  48.536  1.00  0.00     0.046 A 
HETATM   23  C   UNL     1      24.466  40.842  47.781  1.00  0.00     0.031 A 
HETATM   24  C   UNL     1      23.332  41.583  47.426  1.00  0.00     0.009 A 
HETATM   25  C   UNL     1      23.199  42.904  47.828  1.00  0.00    -0.061 A 
HETATM   26  C   UNL     1      21.963  43.686  47.498  1.00  0.00     0.048 C 
HETATM   27  C   UNL     1      24.207  43.453  48.621  1.00  0.00     0.026 A 
BRANCH  22  28
HETATM   28  N   UNL     1      26.638  40.579  48.814  1.00  0.00    -0.380 N 
HETATM   29  C   UNL     1      26.820  39.904  50.098  1.00  0.00     0.123 C 
HETATM   30  C   UNL     1      28.334  39.784  50.269  1.00  0.00     0.021 C 
HETATM   31  C   UNL     1      28.836  39.739  48.837  1.00  0.00     0.021 C 
HETATM   32  C   UNL     1      27.939  40.767  48.157  1.00  0.00     0.123 C 
ENDBRANCH  22  28
ENDBRANCH  18  21
ENDBRANCH   1  17
TORSDOF 9
ENDMDL
MODEL 7
REMARK VINA RESULT:      -7.4      5.128      9.066
REMARK  9 active torsions:
REMARK  status: ('A' for Active; 'I' for Inactive)
REMARK    1  A    between atoms: C_2  and  N_3 
REMARK    2  A    between atoms: N_3  and  C_5 
REMARK    3  A    between atoms: N_3  and  C_30 
REMARK    4  A    between atoms: C_5  and  C_6 
REMARK    5  A    between atoms: C_5  and  C_14 
REMARK    6  A    between atoms: C_8  and  O_9 
REMARK    7  A    between atoms: C_14  and  N_15 
REMARK       I    between atoms: N_15  and  C_16 
REMARK    8  A    between atoms: C_16  and  C_17 
REMARK    9  A    between atoms: C_18  and  N_19 
ROOT
HETATM    1  C   UNL     1      24.169  47.449  50.028  1.00  0.00     0.161 C 
ENDROOT
BRANCH   1   2
HETATM    2  C   UNL     1      24.462  45.965  50.445  1.00  0.00     0.238 C 
BRANCH   2   3
HETATM    3  N   UNL     1      25.234  45.198  49.354  1.00  0.00    -0.062 N 
HETATM    4  H   UNL     1      25.239  45.904  48.592  1.00  0.00     0.280 HD
BRANCH   3   5
HETATM    5  C   UNL     1      24.487  43.997  48.806  1.00  0.00     0.231 C 
HETATM    6  C   UNL     1      23.004  44.056  49.123  1.00  0.00     0.034 C 
ENDBRANCH   3   5
BRANCH   3   7
HETATM    7  C   UNL     1      26.664  44.863  49.696  1.00  0.00     0.231 C 
HETATM    8  C   UNL     1      26.880  43.361  49.708  1.00  0.00     0.034 C 
ENDBRANCH   3   7
ENDBRANCH   2   3
BRANCH   2   9
HETATM    9  C   UNL     1      25.053  45.861  51.843  1.00  0.00    -0.023 A 
HETATM   10  C   UNL     1      25.719  46.979  52.392  1.00  0.00     0.046 A 
HETATM   11  C   UNL     1      26.269  46.931  53.674  1.00  0.00     0.068 A 
HETATM   12  C   UNL     1      26.135  45.769  54.432  1.00  0.00     0.037 A 
HETATM   13  C   UNL     1      25.493  44.651  53.905  1.00  0.00     0.003 A 
HETATM   14  C   UNL     1      24.961  44.693  52.617  1.00  0.00     0.009 A 
BRANCH  11  15
HETATM   15  O   UNL     1      26.927  47.952  54.297  1.00  0.00    -0.356 OA
HETATM   16  C   UNL     1      26.380  48.417  55.525  1.00  0.00     0.210 C 
ENDBRANCH  11  15
ENDBRANCH   2   9
ENDBRANCH   1   2
BRANCH   1  17
HETATM   17  N   UNL     1      22.818  47.795  49.570  1.00  0.00    -0.354 N 
HETATM   18  C   UNL     1      22.583  48.296  48.298  1.00  0.00     0.253 C 
HETATM   19  O   UNL     1      23.423  49.001  47.751  1.00  0.00    -0.268 OA
HETATM   20  H   UNL     1      22.069  47.233  49.964  1.00  0.00     0.162 HD
BRANCH  18  21
HETATM   21  C   UNL     1      21.291  47.901  47.664  1.00  0.00     0.059 A 
HETATM   22  C   UNL     1      20.143  48.729  47.628  1.00  0.00     0.046 A 
HETATM   23  C   UNL     1      19.076  48.248  46.837  1.00  0.00     0.031 A 
HETATM   24  C   UNL     1      19.110  47.019  46.165  1.00  0.00     0.009 A 
HETATM   25  C   UNL     1      20.234  46.208  46.236  1.00  0.00    -0.061 A 
HETATM   26  C   UNL     1      20.298  44.918  45.475  1.00  0.00     0.048 C 
HETATM   27  C   UNL     1      21.331  46.670  46.963  1.00  0.00     0.026 A 
BRANCH  22  28
HETATM   28  N   UNL     1      20.011  49.943  48.287  1.00  0.00    -0.380 N 
HETATM   29  C   UNL     1      19.777  50.038  49.728  1.00  0.00     0.123 C 
HETATM   30  C   UNL     1      19.007  51.344  49.916  1.00  0.00     0.021 C 
HETATM   31  C   UNL     1      19.476  52.188  48.745  1.00  0.00     0.021 C 
HETATM   32  C   UNL     1      19.532  51.162  47.620  1.00  0.00     0.123 C 
ENDBRANCH  22  28
ENDBRANCH  18  21
ENDBRANCH   1  17
TORSDOF 9
ENDMDL
MODEL 8
REMARK VINA RESULT:      -7.3      5.494      8.099
REMARK  9 active torsions:
REMARK  status: ('A' for Active; 'I' for Inactive)
REMARK    1  A    between atoms: C_2  and  N_3 
REMARK    2  A    between atoms: N_3  and  C_5 
REMARK    3  A    between atoms: N_3  and  C_30 
REMARK    4  A    between atoms: C_5  and  C_6 
REMARK    5  A    between atoms: C_5  and  C_14 
REMARK    6  A    between atoms: C_8  and  O_9 
REMARK    7  A    between atoms: C_14  and  N_15 
REMARK       I    between atoms: N_15  and  C_16 
REMARK    8  A    between atoms: C_16  and  C_17 
REMARK    9  A    between atoms: C_18  and  N_19 
ROOT
HETATM    1  C   UNL     1      22.793  48.883  49.216  1.00  0.00     0.161 C 
ENDROOT
BRANCH   1   2
HETATM    2  C   UNL     1      21.565  48.840  48.241  1.00  0.00     0.238 C 
BRANCH   2   3
HETATM    3  N   UNL     1      20.900  47.451  48.207  1.00  0.00    -0.062 N 
HETATM    4  H   UNL     1      21.609  46.887  48.714  1.00  0.00     0.280 HD
BRANCH   3   5
HETATM    5  C   UNL     1      20.806  46.851  46.817  1.00  0.00     0.231 C 
HETATM    6  C   UNL     1      21.834  45.756  46.600  1.00  0.00     0.034 C 
ENDBRANCH   3   5
BRANCH   3   7
HETATM    7  C   UNL     1      19.594  47.348  48.953  1.00  0.00     0.231 C 
HETATM    8  C   UNL     1      18.471  46.923  48.024  1.00  0.00     0.034 C 
ENDBRANCH   3   7
ENDBRANCH   2   3
BRANCH   2   9
HETATM    9  C   UNL     1      20.609  50.005  48.459  1.00  0.00    -0.023 A 
HETATM   10  C   UNL     1      19.786  50.427  47.393  1.00  0.00     0.046 A 
HETATM   11  C   UNL     1      18.890  51.485  47.551  1.00  0.00     0.068 A 
HETATM   12  C   UNL     1      18.790  52.116  48.790  1.00  0.00     0.037 A 
HETATM   13  C   UNL     1      19.601  51.724  49.851  1.00  0.00     0.003 A 
HETATM   14  C   UNL     1      20.510  50.679  49.687  1.00  0.00     0.009 A 
BRANCH  11  15
HETATM   15  O   UNL     1      18.049  51.968  46.590  1.00  0.00    -0.356 OA
HETATM   16  C   UNL     1      16.748  51.398  46.526  1.00  0.00     0.210 C 
ENDBRANCH  11  15
ENDBRANCH   2   9
ENDBRANCH   1   2
BRANCH   1  17
HETATM   17  N   UNL     1      23.307  47.618  49.753  1.00  0.00    -0.354 N 
HETATM   18  C   UNL     1      24.645  47.452  50.079  1.00  0.00     0.253 C 
HETATM   19  O   UNL     1      25.511  48.037  49.439  1.00  0.00    -0.268 OA
HETATM   20  H   UNL     1      22.650  47.088  50.319  1.00  0.00     0.162 HD
BRANCH  18  21
HETATM   21  C   UNL     1      24.933  46.562  51.243  1.00  0.00     0.059 A 
HETATM   22  C   UNL     1      24.827  45.150  51.203  1.00  0.00     0.046 A 
HETATM   23  C   UNL     1      25.304  44.477  52.350  1.00  0.00     0.031 A 
HETATM   24  C   UNL     1      25.808  45.139  53.477  1.00  0.00     0.009 A 
HETATM   25  C   UNL     1      25.877  46.524  53.508  1.00  0.00    -0.061 A 
HETATM   26  C   UNL     1      26.465  47.237  54.689  1.00  0.00     0.048 C 
HETATM   27  C   UNL     1      25.466  47.227  52.375  1.00  0.00     0.026 A 
BRANCH  22  28
HETATM   28  N   UNL     1      24.313  44.416  50.144  1.00  0.00    -0.380 N 
HETATM   29  C   UNL     1      22.951  43.884  50.139  1.00  0.00     0.123 C 
HETATM   30  C   UNL     1      23.020  42.635  49.261  1.00  0.00     0.021 C 
HETATM   31  C   UNL     1      24.161  42.948  48.311  1.00  0.00     0.021 C 
HETATM   32  C   UNL     1      25.161  43.632  49.235  1.00  0.00     0.123 C 
ENDBRANCH  22  28
ENDBRANCH  18  21
ENDBRANCH   1  17
TORSDOF 9
ENDMDL
MODEL 9
REMARK VINA RESULT:      -7.3     12.589     15.872
REMARK  9 active torsions:
REMARK  status: ('A' for Active; 'I' for Inactive)
REMARK    1  A    between atoms: C_2  and  N_3 
REMARK    2  A    between atoms: N_3  and  C_5 
REMARK    3  A    between atoms: N_3  and  C_30 
REMARK    4  A    between atoms: C_5  and  C_6 
REMARK    5  A    between atoms: C_5  and  C_14 
REMARK    6  A    between atoms: C_8  and  O_9 
REMARK    7  A    between atoms: C_14  and  N_15 
REMARK       I    between atoms: N_15  and  C_16 
REMARK    8  A    between atoms: C_16  and  C_17 
REMARK    9  A    between atoms: C_18  and  N_19 
ROOT
HETATM    1  C   UNL     1      34.192  49.502  41.464  1.00  0.00     0.161 C 
ENDROOT
BRANCH   1   2
HETATM    2  C   UNL     1      34.173  51.044  41.175  1.00  0.00     0.238 C 
BRANCH   2   3
HETATM    3  N   UNL     1      34.058  51.875  42.467  1.00  0.00    -0.062 N 
HETATM    4  H   UNL     1      34.163  52.836  42.086  1.00  0.00     0.280 HD
BRANCH   3   5
HETATM    5  C   UNL     1      35.218  51.679  43.425  1.00  0.00     0.231 C 
HETATM    6  C   UNL     1      36.244  52.791  43.311  1.00  0.00     0.034 C 
ENDBRANCH   3   5
BRANCH   3   7
HETATM    7  C   UNL     1      32.727  51.788  43.169  1.00  0.00     0.231 C 
HETATM    8  C   UNL     1      32.894  51.949  44.669  1.00  0.00     0.034 C 
ENDBRANCH   3   7
ENDBRANCH   2   3
BRANCH   2   9
HETATM    9  C   UNL     1      35.291  51.471  40.233  1.00  0.00    -0.023 A 
HETATM   10  C   UNL     1      35.252  52.762  39.663  1.00  0.00     0.046 A 
HETATM   11  C   UNL     1      36.260  53.198  38.801  1.00  0.00     0.068 A 
HETATM   12  C   UNL     1      37.333  52.353  38.521  1.00  0.00     0.037 A 
HETATM   13  C   UNL     1      37.384  51.072  39.063  1.00  0.00     0.003 A 
HETATM   14  C   UNL     1      36.367  50.630  39.909  1.00  0.00     0.009 A 
BRANCH  11  15
HETATM   15  O   UNL     1      36.320  54.423  38.201  1.00  0.00    -0.356 OA
HETATM   16  C   UNL     1      35.718  55.510  38.893  1.00  0.00     0.210 C 
ENDBRANCH  11  15
ENDBRANCH   2   9
ENDBRANCH   1   2
BRANCH   1  17
HETATM   17  N   UNL     1      33.161  48.660  40.846  1.00  0.00    -0.354 N 
HETATM   18  C   UNL     1      31.915  48.483  41.428  1.00  0.00     0.253 C 
HETATM   19  O   UNL     1      31.801  48.487  42.648  1.00  0.00    -0.268 OA
HETATM   20  H   UNL     1      33.178  48.629  39.830  1.00  0.00     0.162 HD
BRANCH  18  21
HETATM   21  C   UNL     1      30.766  48.324  40.488  1.00  0.00     0.059 A 
HETATM   22  C   UNL     1      30.007  49.405  39.978  1.00  0.00     0.046 A 
HETATM   23  C   UNL     1      29.074  49.065  38.972  1.00  0.00     0.031 A 
HETATM   24  C   UNL     1      28.863  47.752  38.530  1.00  0.00     0.009 A 
HETATM   25  C   UNL     1      29.598  46.703  39.064  1.00  0.00    -0.061 A 
HETATM   26  C   UNL     1      29.416  45.304  38.556  1.00  0.00     0.048 C 
HETATM   27  C   UNL     1      30.568  47.001  40.020  1.00  0.00     0.026 A 
BRANCH  22  28
HETATM   28  N   UNL     1      30.127  50.727  40.380  1.00  0.00    -0.380 N 
HETATM   29  C   UNL     1      29.158  51.375  41.263  1.00  0.00     0.123 C 
HETATM   30  C   UNL     1      29.209  52.855  40.886  1.00  0.00     0.021 C 
HETATM   31  C   UNL     1      30.627  53.026  40.372  1.00  0.00     0.021 C 
HETATM   32  C   UNL     1      30.833  51.740  39.582  1.00  0.00     0.123 C 
ENDBRANCH  22  28
ENDBRANCH  18  21
ENDBRANCH   1  17
TORSDOF 9
ENDMDL
MODEL 10
REMARK VINA RESULT:      -7.2      2.304      4.216
REMARK  9 active torsions:
REMARK  status: ('A' for Active; 'I' for Inactive)
REMARK    1  A    between atoms: C_2  and  N_3 
REMARK    2  A    between atoms: N_3  and  C_5 
REMARK    3  A    between atoms: N_3  and  C_30 
REMARK    4  A    between atoms: C_5  and  C_6 
REMARK    5  A    between atoms: C_5  and  C_14 
REMARK    6  A    between atoms: C_8  and  O_9 
REMARK    7  A    between atoms: C_14  and  N_15 
REMARK       I    between atoms: N_15  and  C_16 
REMARK    8  A    between atoms: C_16  and  C_17 
REMARK    9  A    between atoms: C_18  and  N_19 
ROOT
HETATM    1  C   UNL     1      26.722  40.351  51.116  1.00  0.00     0.161 C 
ENDROOT
BRANCH   1   2
HETATM    2  C   UNL     1      27.845  39.899  50.116  1.00  0.00     0.238 C 
BRANCH   2   3
HETATM    3  N   UNL     1      28.236  38.422  50.314  1.00  0.00    -0.062 N 
HETATM    4  H   UNL     1      27.706  38.198  51.179  1.00  0.00     0.280 HD
BRANCH   3   5
HETATM    5  C   UNL     1      29.700  38.218  50.658  1.00  0.00     0.231 C 
HETATM    6  C   UNL     1      29.921  36.962  51.479  1.00  0.00     0.034 C 
ENDBRANCH   3   5
BRANCH   3   7
HETATM    7  C   UNL     1      27.779  37.487  49.224  1.00  0.00     0.231 C 
HETATM    8  C   UNL     1      26.476  36.806  49.605  1.00  0.00     0.034 C 
ENDBRANCH   3   7
ENDBRANCH   2   3
BRANCH   2   9
HETATM    9  C   UNL     1      27.536  40.295  48.680  1.00  0.00    -0.023 A 
HETATM   10  C   UNL     1      26.189  40.450  48.285  1.00  0.00     0.046 A 
HETATM   11  C   UNL     1      25.860  40.820  46.979  1.00  0.00     0.068 A 
HETATM   12  C   UNL     1      26.880  41.064  46.061  1.00  0.00     0.037 A 
HETATM   13  C   UNL     1      28.214  40.905  46.426  1.00  0.00     0.003 A 
HETATM   14  C   UNL     1      28.542  40.517  47.725  1.00  0.00     0.009 A 
BRANCH  11  15
HETATM   15  O   UNL     1      24.596  41.000  46.497  1.00  0.00    -0.356 OA
HETATM   16  C   UNL     1      23.707  41.776  47.291  1.00  0.00     0.210 C 
ENDBRANCH  11  15
ENDBRANCH   2   9
ENDBRANCH   1   2
BRANCH   1  17
HETATM   17  N   UNL     1      27.116  41.060  52.339  1.00  0.00    -0.354 N 
HETATM   18  C   UNL     1      28.436  41.408  52.590  1.00  0.00     0.253 C 
HETATM   19  O   UNL     1      29.346  40.693  52.188  1.00  0.00    -0.268 OA
HETATM   20  H   UNL     1      26.418  41.694  52.717  1.00  0.00     0.162 HD
BRANCH  18  21
HETATM   21  C   UNL     1      28.650  42.684  53.334  1.00  0.00     0.059 A 
HETATM   22  C   UNL     1      27.815  43.821  53.209  1.00  0.00     0.046 A 
HETATM   23  C   UNL     1      28.080  44.868  54.120  1.00  0.00     0.031 A 
HETATM   24  C   UNL     1      29.121  44.827  55.057  1.00  0.00     0.009 A 
HETATM   25  C   UNL     1      29.946  43.714  55.144  1.00  0.00    -0.061 A 
HETATM   26  C   UNL     1      31.027  43.641  56.182  1.00  0.00     0.048 C 
HETATM   27  C   UNL     1      29.685  42.636  54.300  1.00  0.00     0.026 A 
BRANCH  22  28
HETATM   28  N   UNL     1      26.784  43.960  52.290  1.00  0.00    -0.380 N 
HETATM   29  C   UNL     1      27.006  44.416  50.919  1.00  0.00     0.123 C 
HETATM   30  C   UNL     1      25.699  45.098  50.516  1.00  0.00     0.021 C 
HETATM   31  C   UNL     1      24.664  44.378  51.361  1.00  0.00     0.021 C 
HETATM   32  C   UNL     1      25.394  44.223  52.688  1.00  0.00     0.123 C 
ENDBRANCH  22  28
ENDBRANCH  18  21
ENDBRANCH   1  17
TORSDOF 9
ENDMDL
