MODEL 1
REMARK VINA RESULT:      -8.4      0.000      0.000
REMARK  4 active torsions:
REMARK  status: ('A' for Active; 'I' for Inactive)
REMARK    1  A    between atoms: C_5  and  C_6 
REMARK    2  A    between atoms: C_16  and  C_17 
REMARK       I    between atoms: C_17  and  N_18 
REMARK    3  A    between atoms: N_18  and  C_19 
REMARK    4  A    between atoms: C_20  and  O_21 
ROOT
HETATM    1  C   UNL     1      25.140  46.034  52.050  1.00  0.00     0.202 C 
HETATM    2  N   UNL     1      25.813  46.568  53.241  1.00  0.00    -0.083 N 
HETATM    3  C   UNL     1      26.948  46.033  53.773  1.00  0.00     0.726 A 
HETATM    4  N   UNL     1      27.354  46.769  54.777  1.00  0.00    -0.046 NA
HETATM    5  C   UNL     1      26.386  47.747  54.847  1.00  0.00     0.162 A 
HETATM    6  C   UNL     1      26.448  48.839  55.838  1.00  0.00     0.096 C 
HETATM    7  N   UNL     1      25.392  47.641  53.949  1.00  0.00    -0.141 NA
HETATM    8  N   UNL     1      27.432  44.892  53.255  1.00  0.00    -0.192 N 
HETATM    9  C   UNL     1      26.714  44.110  52.350  1.00  0.00     0.037 C 
HETATM   10  C   UNL     1      27.321  42.750  52.082  1.00  0.00     0.070 C 
HETATM   11  C   UNL     1      25.573  44.590  51.774  1.00  0.00     0.062 C 
HETATM   12  H   UNL     1      28.217  44.453  53.725  1.00  0.00     0.184 HD
ENDROOT
BRANCH  11  13
HETATM   13  C   UNL     1      24.711  43.698  50.919  1.00  0.00     0.256 C 
HETATM   14  N   UNL     1      24.977  43.674  49.567  1.00  0.00    -0.321 N 
HETATM   15  H   UNL     1      25.630  44.321  49.144  1.00  0.00     0.169 HD
HETATM   16  O   UNL     1      23.774  43.089  51.429  1.00  0.00    -0.267 OA
BRANCH  14  17
HETATM   17  C   UNL     1      24.337  42.850  48.602  1.00  0.00     0.068 A 
HETATM   18  C   UNL     1      23.422  43.464  47.724  1.00  0.00     0.095 A 
HETATM   19  C   UNL     1      22.793  42.708  46.727  1.00  0.00     0.039 A 
HETATM   20  C   UNL     1      23.053  41.341  46.613  1.00  0.00     0.003 A 
HETATM   21  C   UNL     1      23.945  40.728  47.487  1.00  0.00     0.002 A 
HETATM   22  C   UNL     1      24.585  41.479  48.475  1.00  0.00     0.032 A 
BRANCH  18  23
HETATM   23  O   UNL     1      23.206  44.810  47.918  1.00  0.00    -0.354 OA
HETATM   24  C   UNL     1      21.901  45.156  48.377  1.00  0.00     0.210 C 
ENDBRANCH  18  23
ENDBRANCH  14  17
ENDBRANCH  11  13
BRANCH   1  25
HETATM   25  C   UNL     1      25.397  47.002  50.887  1.00  0.00    -0.028 A 
HETATM   26  C   UNL     1      26.682  47.472  50.565  1.00  0.00     0.010 A 
HETATM   27  C   UNL     1      26.865  48.444  49.577  1.00  0.00     0.007 A 
HETATM   28  C   UNL     1      25.771  48.978  48.890  1.00  0.00    -0.062 A 
HETATM   29  C   UNL     1      25.969  50.092  47.906  1.00  0.00     0.048 C 
HETATM   30  C   UNL     1      24.489  48.519  49.203  1.00  0.00     0.007 A 
HETATM   31  C   UNL     1      24.304  47.536  50.179  1.00  0.00     0.010 A 
ENDBRANCH   1  25
TORSDOF 4
ENDMDL
MODEL 2
REMARK VINA RESULT:      -8.0      2.981      6.466
REMARK  4 active torsions:
REMARK  status: ('A' for Active; 'I' for Inactive)
REMARK    1  A    between atoms: C_5  and  C_6 
REMARK    2  A    between atoms: C_16  and  C_17 
REMARK       I    between atoms: C_17  and  N_18 
REMARK    3  A    between atoms: N_18  and  C_19 
REMARK    4  A    between atoms: C_20  and  O_21 
ROOT
HETATM    1  C   UNL     1      23.529  47.906  49.649  1.00  0.00     0.202 C 
HETATM    2  N   UNL     1      22.984  49.186  49.177  1.00  0.00    -0.083 N 
HETATM    3  C   UNL     1      23.720  50.127  48.521  1.00  0.00     0.726 A 
HETATM    4  N   UNL     1      22.946  51.117  48.158  1.00  0.00    -0.046 NA
HETATM    5  C   UNL     1      21.720  50.745  48.663  1.00  0.00     0.162 A 
HETATM    6  C   UNL     1      20.511  51.568  48.465  1.00  0.00     0.096 C 
HETATM    7  N   UNL     1      21.701  49.584  49.337  1.00  0.00    -0.141 NA
HETATM    8  N   UNL     1      25.043  49.935  48.383  1.00  0.00    -0.192 N 
HETATM    9  C   UNL     1      25.736  48.936  49.068  1.00  0.00     0.037 C 
HETATM   10  C   UNL     1      27.242  49.045  48.972  1.00  0.00     0.070 C 
HETATM   11  C   UNL     1      25.058  47.959  49.738  1.00  0.00     0.062 C 
HETATM   12  H   UNL     1      25.593  50.689  47.984  1.00  0.00     0.184 HD
ENDROOT
BRANCH  11  13
HETATM   13  C   UNL     1      25.794  46.970  50.604  1.00  0.00     0.256 C 
HETATM   14  N   UNL     1      25.559  47.023  51.960  1.00  0.00    -0.321 N 
HETATM   15  H   UNL     1      25.021  47.774  52.375  1.00  0.00     0.169 HD
HETATM   16  O   UNL     1      26.617  46.212  50.096  1.00  0.00    -0.267 OA
BRANCH  14  17
HETATM   17  C   UNL     1      26.088  46.138  52.938  1.00  0.00     0.068 A 
HETATM   18  C   UNL     1      25.544  44.840  53.006  1.00  0.00     0.095 A 
HETATM   19  C   UNL     1      26.056  43.914  53.924  1.00  0.00     0.039 A 
HETATM   20  C   UNL     1      27.091  44.279  54.788  1.00  0.00     0.003 A 
HETATM   21  C   UNL     1      27.620  45.564  54.733  1.00  0.00     0.002 A 
HETATM   22  C   UNL     1      27.124  46.488  53.812  1.00  0.00     0.032 A 
BRANCH  18  23
HETATM   23  O   UNL     1      24.513  44.569  52.135  1.00  0.00    -0.354 OA
HETATM   24  C   UNL     1      24.663  43.374  51.371  1.00  0.00     0.210 C 
ENDBRANCH  18  23
ENDBRANCH  14  17
ENDBRANCH  11  13
BRANCH   1  25
HETATM   25  C   UNL     1      22.988  46.795  48.739  1.00  0.00    -0.028 A 
HETATM   26  C   UNL     1      22.222  47.066  47.591  1.00  0.00     0.010 A 
HETATM   27  C   UNL     1      21.645  46.030  46.851  1.00  0.00     0.007 A 
HETATM   28  C   UNL     1      21.809  44.698  47.242  1.00  0.00    -0.062 A 
HETATM   29  C   UNL     1      21.102  43.603  46.501  1.00  0.00     0.048 C 
HETATM   30  C   UNL     1      22.567  44.418  48.382  1.00  0.00     0.007 A 
HETATM   31  C   UNL     1      23.158  45.451  49.114  1.00  0.00     0.010 A 
ENDBRANCH   1  25
TORSDOF 4
ENDMDL
MODEL 3
REMARK VINA RESULT:      -8.0      2.728      7.890
REMARK  4 active torsions:
REMARK  status: ('A' for Active; 'I' for Inactive)
REMARK    1  A    between atoms: C_5  and  C_6 
REMARK    2  A    between atoms: C_16  and  C_17 
REMARK       I    between atoms: C_17  and  N_18 
REMARK    3  A    between atoms: N_18  and  C_19 
REMARK    4  A    between atoms: C_20  and  O_21 
ROOT
HETATM    1  C   UNL     1      24.888  42.242  50.002  1.00  0.00     0.202 C 
HETATM    2  N   UNL     1      23.964  42.338  48.863  1.00  0.00    -0.083 N 
HETATM    3  C   UNL     1      23.879  43.427  48.048  1.00  0.00     0.726 A 
HETATM    4  N   UNL     1      23.030  43.187  47.081  1.00  0.00    -0.046 NA
HETATM    5  C   UNL     1      22.581  41.920  47.379  1.00  0.00     0.162 A 
HETATM    6  C   UNL     1      21.607  41.214  46.523  1.00  0.00     0.096 C 
HETATM    7  N   UNL     1      23.095  41.372  48.492  1.00  0.00    -0.141 NA
HETATM    8  N   UNL     1      24.596  44.521  48.351  1.00  0.00    -0.192 N 
HETATM    9  C   UNL     1      25.249  44.682  49.573  1.00  0.00     0.037 C 
HETATM   10  C   UNL     1      25.785  46.076  49.815  1.00  0.00     0.070 C 
HETATM   11  C   UNL     1      25.377  43.629  50.432  1.00  0.00     0.062 C 
HETATM   12  H   UNL     1      24.445  45.357  47.793  1.00  0.00     0.184 HD
ENDROOT
BRANCH  11  13
HETATM   13  C   UNL     1      25.942  43.831  51.815  1.00  0.00     0.256 C 
HETATM   14  N   UNL     1      27.314  43.864  51.936  1.00  0.00    -0.321 N 
HETATM   15  H   UNL     1      27.920  43.632  51.159  1.00  0.00     0.169 HD
HETATM   16  O   UNL     1      25.182  43.886  52.779  1.00  0.00    -0.267 OA
BRANCH  14  17
HETATM   17  C   UNL     1      28.044  44.118  53.129  1.00  0.00     0.068 A 
HETATM   18  C   UNL     1      29.076  43.220  53.465  1.00  0.00     0.095 A 
HETATM   19  C   UNL     1      29.854  43.444  54.608  1.00  0.00     0.039 A 
HETATM   20  C   UNL     1      29.597  44.543  55.428  1.00  0.00     0.003 A 
HETATM   21  C   UNL     1      28.569  45.424  55.108  1.00  0.00     0.002 A 
HETATM   22  C   UNL     1      27.798  45.214  53.963  1.00  0.00     0.032 A 
BRANCH  18  23
HETATM   23  O   UNL     1      29.250  42.151  52.615  1.00  0.00    -0.354 OA
HETATM   24  C   UNL     1      28.685  40.921  53.063  1.00  0.00     0.210 C 
ENDBRANCH  18  23
ENDBRANCH  14  17
ENDBRANCH  11  13
BRANCH   1  25
HETATM   25  C   UNL     1      26.011  41.267  49.621  1.00  0.00    -0.028 A 
HETATM   26  C   UNL     1      26.199  40.039  50.279  1.00  0.00     0.010 A 
HETATM   27  C   UNL     1      27.301  39.230  49.987  1.00  0.00     0.007 A 
HETATM   28  C   UNL     1      28.248  39.629  49.040  1.00  0.00    -0.062 A 
HETATM   29  C   UNL     1      29.479  38.804  48.809  1.00  0.00     0.048 C 
HETATM   30  C   UNL     1      28.071  40.849  48.381  1.00  0.00     0.007 A 
HETATM   31  C   UNL     1      26.962  41.652  48.659  1.00  0.00     0.010 A 
ENDBRANCH   1  25
TORSDOF 4
ENDMDL
MODEL 4
REMARK VINA RESULT:      -7.9      2.476      4.927
REMARK  4 active torsions:
REMARK  status: ('A' for Active; 'I' for Inactive)
REMARK    1  A    between atoms: C_5  and  C_6 
REMARK    2  A    between atoms: C_16  and  C_17 
REMARK       I    between atoms: C_17  and  N_18 
REMARK    3  A    between atoms: N_18  and  C_19 
REMARK    4  A    between atoms: C_20  and  O_21 
ROOT
HETATM    1  C   UNL     1      26.325  44.813  49.764  1.00  0.00     0.202 C 
HETATM    2  N   UNL     1      26.226  46.268  49.588  1.00  0.00    -0.083 N 
HETATM    3  C   UNL     1      25.056  46.963  49.670  1.00  0.00     0.726 A 
HETATM    4  N   UNL     1      25.295  48.244  49.550  1.00  0.00    -0.046 NA
HETATM    5  C   UNL     1      26.657  48.281  49.352  1.00  0.00     0.162 A 
HETATM    6  C   UNL     1      27.390  49.553  49.192  1.00  0.00     0.096 C 
HETATM    7  N   UNL     1      27.270  47.086  49.324  1.00  0.00    -0.141 NA
HETATM    8  N   UNL     1      23.907  46.282  49.813  1.00  0.00    -0.192 N 
HETATM    9  C   UNL     1      23.824  44.898  49.660  1.00  0.00     0.037 C 
HETATM   10  C   UNL     1      22.412  44.358  49.612  1.00  0.00     0.070 C 
HETATM   11  C   UNL     1      24.959  44.142  49.581  1.00  0.00     0.062 C 
HETATM   12  H   UNL     1      23.037  46.805  49.770  1.00  0.00     0.184 HD
ENDROOT
BRANCH  11  13
HETATM   13  C   UNL     1      24.881  42.672  49.261  1.00  0.00     0.256 C 
HETATM   14  N   UNL     1      24.937  42.313  47.933  1.00  0.00    -0.321 N 
HETATM   15  H   UNL     1      24.897  43.004  47.194  1.00  0.00     0.169 HD
HETATM   16  O   UNL     1      24.703  41.862  50.168  1.00  0.00    -0.267 OA
BRANCH  14  17
HETATM   17  C   UNL     1      24.956  40.986  47.423  1.00  0.00     0.068 A 
HETATM   18  C   UNL     1      26.213  40.378  47.233  1.00  0.00     0.095 A 
HETATM   19  C   UNL     1      26.289  39.058  46.772  1.00  0.00     0.039 A 
HETATM   20  C   UNL     1      25.124  38.347  46.479  1.00  0.00     0.003 A 
HETATM   21  C   UNL     1      23.882  38.949  46.652  1.00  0.00     0.002 A 
HETATM   22  C   UNL     1      23.798  40.260  47.123  1.00  0.00     0.032 A 
BRANCH  18  23
HETATM   23  O   UNL     1      27.312  41.155  47.525  1.00  0.00    -0.354 OA
HETATM   24  C   UNL     1      28.151  40.653  48.563  1.00  0.00     0.210 C 
ENDBRANCH  18  23
ENDBRANCH  14  17
ENDBRANCH  11  13
BRANCH   1  25
HETATM   25  C   UNL     1      26.983  44.543  51.124  1.00  0.00    -0.028 A 
HETATM   26  C   UNL     1      26.580  45.199  52.301  1.00  0.00     0.010 A 
HETATM   27  C   UNL     1      27.278  45.019  53.498  1.00  0.00     0.007 A 
HETATM   28  C   UNL     1      28.400  44.187  53.551  1.00  0.00    -0.062 A 
HETATM   29  C   UNL     1      29.201  44.082  54.815  1.00  0.00     0.048 C 
HETATM   30  C   UNL     1      28.810  43.531  52.387  1.00  0.00     0.007 A 
HETATM   31  C   UNL     1      28.105  43.698  51.193  1.00  0.00     0.010 A 
ENDBRANCH   1  25
TORSDOF 4
ENDMDL
MODEL 5
REMARK VINA RESULT:      -7.9      2.560      7.196
REMARK  4 active torsions:
REMARK  status: ('A' for Active; 'I' for Inactive)
REMARK    1  A    between atoms: C_5  and  C_6 
REMARK    2  A    between atoms: C_16  and  C_17 
REMARK       I    between atoms: C_17  and  N_18 
REMARK    3  A    between atoms: N_18  and  C_19 
REMARK    4  A    between atoms: C_20  and  O_21 
ROOT
HETATM    1  C   UNL     1      24.167  43.898  50.708  1.00  0.00     0.202 C 
HETATM    2  N   UNL     1      23.164  44.527  49.838  1.00  0.00    -0.083 N 
HETATM    3  C   UNL     1      23.322  45.752  49.264  1.00  0.00     0.726 A 
HETATM    4  N   UNL     1      22.303  46.008  48.484  1.00  0.00    -0.046 NA
HETATM    5  C   UNL     1      21.508  44.896  48.649  1.00  0.00     0.162 A 
HETATM    6  C   UNL     1      20.233  44.730  47.923  1.00  0.00     0.096 C 
HETATM    7  N   UNL     1      21.975  43.974  49.508  1.00  0.00    -0.141 NA
HETATM    8  N   UNL     1      24.402  46.484  49.585  1.00  0.00    -0.192 N 
HETATM    9  C   UNL     1      25.253  46.153  50.640  1.00  0.00     0.037 C 
HETATM   10  C   UNL     1      26.255  47.229  50.995  1.00  0.00     0.070 C 
HETATM   11  C   UNL     1      25.153  44.937  51.252  1.00  0.00     0.062 C 
HETATM   12  H   UNL     1      24.454  47.434  49.229  1.00  0.00     0.184 HD
ENDROOT
BRANCH  11  13
HETATM   13  C   UNL     1      25.960  44.632  52.487  1.00  0.00     0.256 C 
HETATM   14  N   UNL     1      27.319  44.471  52.328  1.00  0.00    -0.321 N 
HETATM   15  H   UNL     1      27.743  44.426  51.410  1.00  0.00     0.169 HD
HETATM   16  O   UNL     1      25.387  44.468  53.562  1.00  0.00    -0.267 OA
BRANCH  14  17
HETATM   17  C   UNL     1      28.265  44.255  53.366  1.00  0.00     0.068 A 
HETATM   18  C   UNL     1      29.089  43.116  53.271  1.00  0.00     0.095 A 
HETATM   19  C   UNL     1      30.066  42.876  54.246  1.00  0.00     0.039 A 
HETATM   20  C   UNL     1      30.213  43.750  55.324  1.00  0.00     0.003 A 
HETATM   21  C   UNL     1      29.391  44.867  55.429  1.00  0.00     0.002 A 
HETATM   22  C   UNL     1      28.424  45.119  54.455  1.00  0.00     0.032 A 
BRANCH  18  23
HETATM   23  O   UNL     1      28.865  42.294  52.189  1.00  0.00    -0.354 OA
HETATM   24  C   UNL     1      28.820  40.900  52.485  1.00  0.00     0.210 C 
ENDBRANCH  18  23
ENDBRANCH  14  17
ENDBRANCH  11  13
BRANCH   1  25
HETATM   25  C   UNL     1      24.826  42.755  49.922  1.00  0.00    -0.028 A 
HETATM   26  C   UNL     1      24.693  42.622  48.529  1.00  0.00     0.010 A 
HETATM   27  C   UNL     1      25.205  41.506  47.862  1.00  0.00     0.007 A 
HETATM   28  C   UNL     1      25.855  40.489  48.568  1.00  0.00    -0.062 A 
HETATM   29  C   UNL     1      26.310  39.249  47.857  1.00  0.00     0.048 C 
HETATM   30  C   UNL     1      25.992  40.611  49.954  1.00  0.00     0.007 A 
HETATM   31  C   UNL     1      25.494  41.733  50.620  1.00  0.00     0.010 A 
ENDBRANCH   1  25
TORSDOF 4
ENDMDL
MODEL 6
REMARK VINA RESULT:      -7.7      2.915      5.406
REMARK  4 active torsions:
REMARK  status: ('A' for Active; 'I' for Inactive)
REMARK    1  A    between atoms: C_5  and  C_6 
REMARK    2  A    between atoms: C_16  and  C_17 
REMARK       I    between atoms: C_17  and  N_18 
REMARK    3  A    between atoms: N_18  and  C_19 
REMARK    4  A    between atoms: C_20  and  O_21 
ROOT
HETATM    1  C   UNL     1      27.089  43.785  50.148  1.00  0.00     0.202 C 
HETATM    2  N   UNL     1      26.730  45.182  49.867  1.00  0.00    -0.083 N 
HETATM    3  C   UNL     1      25.451  45.653  49.888  1.00  0.00     0.726 A 
HETATM    4  N   UNL     1      25.454  46.945  49.679  1.00  0.00    -0.046 NA
HETATM    5  C   UNL     1      26.791  47.218  49.491  1.00  0.00     0.162 A 
HETATM    6  C   UNL     1      27.282  48.589  49.246  1.00  0.00     0.096 C 
HETATM    7  N   UNL     1      27.612  46.157  49.555  1.00  0.00    -0.141 NA
HETATM    8  N   UNL     1      24.443  44.784  50.070  1.00  0.00    -0.192 N 
HETATM    9  C   UNL     1      24.618  43.401  50.016  1.00  0.00     0.037 C 
HETATM   10  C   UNL     1      23.330  42.609  49.994  1.00  0.00     0.070 C 
HETATM   11  C   UNL     1      25.873  42.864  50.001  1.00  0.00     0.062 C 
HETATM   12  H   UNL     1      23.493  45.134  49.982  1.00  0.00     0.184 HD
ENDROOT
BRANCH  11  13
HETATM   13  C   UNL     1      26.073  41.386  49.788  1.00  0.00     0.256 C 
HETATM   14  N   UNL     1      26.514  40.983  48.547  1.00  0.00    -0.321 N 
HETATM   15  H   UNL     1      26.576  41.630  47.770  1.00  0.00     0.169 HD
HETATM   16  O   UNL     1      25.774  40.597  50.682  1.00  0.00    -0.267 OA
BRANCH  14  17
HETATM   17  C   UNL     1      26.836  39.653  48.163  1.00  0.00     0.068 A 
HETATM   18  C   UNL     1      25.861  38.924  47.454  1.00  0.00     0.095 A 
HETATM   19  C   UNL     1      26.140  37.624  47.015  1.00  0.00     0.039 A 
HETATM   20  C   UNL     1      27.375  37.037  47.297  1.00  0.00     0.003 A 
HETATM   21  C   UNL     1      28.336  37.748  48.009  1.00  0.00     0.002 A 
HETATM   22  C   UNL     1      28.068  39.050  48.438  1.00  0.00     0.032 A 
BRANCH  18  23
HETATM   23  O   UNL     1      24.663  39.567  47.236  1.00  0.00    -0.354 OA
HETATM   24  C   UNL     1      24.335  39.792  45.867  1.00  0.00     0.210 C 
ENDBRANCH  18  23
ENDBRANCH  14  17
ENDBRANCH  11  13
BRANCH   1  25
HETATM   25  C   UNL     1      27.755  43.735  51.530  1.00  0.00    -0.028 A 
HETATM   26  C   UNL     1      27.332  44.542  52.601  1.00  0.00     0.010 A 
HETATM   27  C   UNL     1      28.035  44.559  53.809  1.00  0.00     0.007 A 
HETATM   28  C   UNL     1      29.183  43.778  53.977  1.00  0.00    -0.062 A 
HETATM   29  C   UNL     1      29.987  43.881  55.239  1.00  0.00     0.048 C 
HETATM   30  C   UNL     1      29.613  42.974  52.918  1.00  0.00     0.007 A 
HETATM   31  C   UNL     1      28.903  42.944  51.715  1.00  0.00     0.010 A 
ENDBRANCH   1  25
TORSDOF 4
ENDMDL
MODEL 7
REMARK VINA RESULT:      -7.6     11.091     13.848
REMARK  4 active torsions:
REMARK  status: ('A' for Active; 'I' for Inactive)
REMARK    1  A    between atoms: C_5  and  C_6 
REMARK    2  A    between atoms: C_16  and  C_17 
REMARK       I    between atoms: C_17  and  N_18 
REMARK    3  A    between atoms: N_18  and  C_19 
REMARK    4  A    between atoms: C_20  and  O_21 
ROOT
HETATM    1  C   UNL     1      26.713  48.883  40.157  1.00  0.00     0.202 C 
HETATM    2  N   UNL     1      25.442  48.901  39.418  1.00  0.00    -0.083 N 
HETATM    3  C   UNL     1      25.208  49.694  38.336  1.00  0.00     0.726 A 
HETATM    4  N   UNL     1      24.023  49.432  37.846  1.00  0.00    -0.046 NA
HETATM    5  C   UNL     1      23.543  48.474  38.710  1.00  0.00     0.162 A 
HETATM    6  C   UNL     1      22.218  47.848  38.527  1.00  0.00     0.096 C 
HETATM    7  N   UNL     1      24.364  48.144  39.721  1.00  0.00    -0.141 NA
HETATM    8  N   UNL     1      26.141  50.591  37.975  1.00  0.00    -0.192 N 
HETATM    9  C   UNL     1      27.236  50.907  38.779  1.00  0.00     0.037 C 
HETATM   10  C   UNL     1      28.025  52.111  38.314  1.00  0.00     0.070 C 
HETATM   11  C   UNL     1      27.532  50.146  39.873  1.00  0.00     0.062 C 
HETATM   12  H   UNL     1      25.909  51.243  37.231  1.00  0.00     0.184 HD
ENDROOT
BRANCH  11  13
HETATM   13  C   UNL     1      28.616  50.568  40.831  1.00  0.00     0.256 C 
HETATM   14  N   UNL     1      29.893  50.123  40.572  1.00  0.00    -0.321 N 
HETATM   15  H   UNL     1      30.079  49.436  39.851  1.00  0.00     0.169 HD
HETATM   16  O   UNL     1      28.323  51.222  41.829  1.00  0.00    -0.267 OA
BRANCH  14  17
HETATM   17  C   UNL     1      31.064  50.465  41.301  1.00  0.00     0.068 A 
HETATM   18  C   UNL     1      31.976  51.351  40.694  1.00  0.00     0.095 A 
HETATM   19  C   UNL     1      33.126  51.754  41.384  1.00  0.00     0.039 A 
HETATM   20  C   UNL     1      33.385  51.263  42.665  1.00  0.00     0.003 A 
HETATM   21  C   UNL     1      32.495  50.376  43.262  1.00  0.00     0.002 A 
HETATM   22  C   UNL     1      31.340  49.981  42.585  1.00  0.00     0.032 A 
BRANCH  18  23
HETATM   23  O   UNL     1      31.657  51.771  39.422  1.00  0.00    -0.354 OA
HETATM   24  C   UNL     1      32.531  51.310  38.394  1.00  0.00     0.210 C 
ENDBRANCH  18  23
ENDBRANCH  14  17
ENDBRANCH  11  13
BRANCH   1  25
HETATM   25  C   UNL     1      27.438  47.572  39.820  1.00  0.00    -0.028 A 
HETATM   26  C   UNL     1      28.127  47.380  38.609  1.00  0.00     0.010 A 
HETATM   27  C   UNL     1      28.674  46.136  38.284  1.00  0.00     0.007 A 
HETATM   28  C   UNL     1      28.541  45.049  39.153  1.00  0.00    -0.062 A 
HETATM   29  C   UNL     1      29.042  43.694  38.749  1.00  0.00     0.048 C 
HETATM   30  C   UNL     1      27.857  45.229  40.359  1.00  0.00     0.007 A 
HETATM   31  C   UNL     1      27.322  46.475  40.693  1.00  0.00     0.010 A 
ENDBRANCH   1  25
TORSDOF 4
ENDMDL
MODEL 8
REMARK VINA RESULT:      -7.6     18.688     20.684
REMARK  4 active torsions:
REMARK  status: ('A' for Active; 'I' for Inactive)
REMARK    1  A    between atoms: C_5  and  C_6 
REMARK    2  A    between atoms: C_16  and  C_17 
REMARK       I    between atoms: C_17  and  N_18 
REMARK    3  A    between atoms: N_18  and  C_19 
REMARK    4  A    between atoms: C_20  and  O_21 
ROOT
HETATM    1  C   UNL     1      38.699  48.968  65.524  1.00  0.00     0.202 C 
HETATM    2  N   UNL     1      38.370  50.241  66.180  1.00  0.00    -0.083 N 
HETATM    3  C   UNL     1      37.450  50.361  67.179  1.00  0.00     0.726 A 
HETATM    4  N   UNL     1      37.434  51.595  67.616  1.00  0.00    -0.046 NA
HETATM    5  C   UNL     1      38.358  52.216  66.805  1.00  0.00     0.162 A 
HETATM    6  C   UNL     1      38.698  53.644  66.959  1.00  0.00     0.096 C 
HETATM    7  N   UNL     1      38.930  51.433  65.876  1.00  0.00    -0.141 NA
HETATM    8  N   UNL     1      36.719  49.287  67.520  1.00  0.00    -0.192 N 
HETATM    9  C   UNL     1      36.695  48.117  66.760  1.00  0.00     0.037 C 
HETATM   10  C   UNL     1      35.627  47.128  67.171  1.00  0.00     0.070 C 
HETATM   11  C   UNL     1      37.595  47.930  65.751  1.00  0.00     0.062 C 
HETATM   12  H   UNL     1      35.969  49.417  68.193  1.00  0.00     0.184 HD
ENDROOT
BRANCH  11  13
HETATM   13  C   UNL     1      37.479  46.744  64.829  1.00  0.00     0.256 C 
HETATM   14  N   UNL     1      38.297  45.665  65.084  1.00  0.00    -0.321 N 
HETATM   15  H   UNL     1      39.036  45.712  65.774  1.00  0.00     0.169 HD
HETATM   16  O   UNL     1      36.728  46.801  63.858  1.00  0.00    -0.267 OA
BRANCH  14  17
HETATM   17  C   UNL     1      38.292  44.426  64.387  1.00  0.00     0.068 A 
HETATM   18  C   UNL     1      37.426  43.418  64.855  1.00  0.00     0.095 A 
HETATM   19  C   UNL     1      37.351  42.192  64.182  1.00  0.00     0.039 A 
HETATM   20  C   UNL     1      38.147  41.957  63.060  1.00  0.00     0.003 A 
HETATM   21  C   UNL     1      39.014  42.945  62.603  1.00  0.00     0.002 A 
HETATM   22  C   UNL     1      39.084  44.173  63.262  1.00  0.00     0.032 A 
BRANCH  18  23
HETATM   23  O   UNL     1      36.692  43.723  65.980  1.00  0.00    -0.354 OA
HETATM   24  C   UNL     1      35.277  43.671  65.813  1.00  0.00     0.210 C 
ENDBRANCH  18  23
ENDBRANCH  14  17
ENDBRANCH  11  13
BRANCH   1  25
HETATM   25  C   UNL     1      40.088  48.530  66.009  1.00  0.00    -0.028 A 
HETATM   26  C   UNL     1      41.012  47.884  65.169  1.00  0.00     0.010 A 
HETATM   27  C   UNL     1      42.219  47.392  65.673  1.00  0.00     0.007 A 
HETATM   28  C   UNL     1      42.532  47.523  67.029  1.00  0.00    -0.062 A 
HETATM   29  C   UNL     1      43.782  46.902  67.578  1.00  0.00     0.048 C 
HETATM   30  C   UNL     1      41.620  48.162  67.873  1.00  0.00     0.007 A 
HETATM   31  C   UNL     1      40.419  48.668  67.369  1.00  0.00     0.010 A 
ENDBRANCH   1  25
TORSDOF 4
ENDMDL
MODEL 9
REMARK VINA RESULT:      -7.5      4.698      7.675
REMARK  4 active torsions:
REMARK  status: ('A' for Active; 'I' for Inactive)
REMARK    1  A    between atoms: C_5  and  C_6 
REMARK    2  A    between atoms: C_16  and  C_17 
REMARK       I    between atoms: C_17  and  N_18 
REMARK    3  A    between atoms: N_18  and  C_19 
REMARK    4  A    between atoms: C_20  and  O_21 
ROOT
HETATM    1  C   UNL     1      20.370  48.622  48.993  1.00  0.00     0.202 C 
HETATM    2  N   UNL     1      19.735  49.934  49.176  1.00  0.00    -0.083 N 
HETATM    3  C   UNL     1      20.266  51.102  48.717  1.00  0.00     0.726 A 
HETATM    4  N   UNL     1      19.438  52.087  48.958  1.00  0.00    -0.046 NA
HETATM    5  C   UNL     1      18.405  51.460  49.619  1.00  0.00     0.162 A 
HETATM    6  C   UNL     1      17.206  52.193  50.069  1.00  0.00     0.096 C 
HETATM    7  N   UNL     1      18.561  50.140  49.815  1.00  0.00    -0.141 NA
HETATM    8  N   UNL     1      21.488  51.084  48.159  1.00  0.00    -0.192 N 
HETATM    9  C   UNL     1      22.331  49.974  48.225  1.00  0.00     0.037 C 
HETATM   10  C   UNL     1      23.746  50.239  47.759  1.00  0.00     0.070 C 
HETATM   11  C   UNL     1      21.859  48.772  48.666  1.00  0.00     0.062 C 
HETATM   12  H   UNL     1      21.912  51.974  47.916  1.00  0.00     0.184 HD
ENDROOT
BRANCH  11  13
HETATM   13  C   UNL     1      22.797  47.613  48.886  1.00  0.00     0.256 C 
HETATM   14  N   UNL     1      23.733  47.742  49.888  1.00  0.00    -0.321 N 
HETATM   15  H   UNL     1      23.877  48.621  50.369  1.00  0.00     0.169 HD
HETATM   16  O   UNL     1      22.747  46.641  48.136  1.00  0.00    -0.267 OA
BRANCH  14  17
HETATM   17  C   UNL     1      24.655  46.745  50.307  1.00  0.00     0.068 A 
HETATM   18  C   UNL     1      25.981  46.846  49.842  1.00  0.00     0.095 A 
HETATM   19  C   UNL     1      26.941  45.913  50.256  1.00  0.00     0.039 A 
HETATM   20  C   UNL     1      26.584  44.870  51.112  1.00  0.00     0.003 A 
HETATM   21  C   UNL     1      25.272  44.759  51.562  1.00  0.00     0.002 A 
HETATM   22  C   UNL     1      24.314  45.692  51.163  1.00  0.00     0.032 A 
BRANCH  18  23
HETATM   23  O   UNL     1      26.245  47.891  48.985  1.00  0.00    -0.354 OA
HETATM   24  C   UNL     1      27.515  48.514  49.161  1.00  0.00     0.210 C 
ENDBRANCH  18  23
ENDBRANCH  14  17
ENDBRANCH  11  13
BRANCH   1  25
HETATM   25  C   UNL     1      19.567  47.849  47.938  1.00  0.00    -0.028 A 
HETATM   26  C   UNL     1      19.388  48.325  46.627  1.00  0.00     0.010 A 
HETATM   27  C   UNL     1      18.553  47.656  45.728  1.00  0.00     0.007 A 
HETATM   28  C   UNL     1      17.869  46.500  46.114  1.00  0.00    -0.062 A 
HETATM   29  C   UNL     1      16.898  45.849  45.175  1.00  0.00     0.048 C 
HETATM   30  C   UNL     1      18.039  46.019  47.415  1.00  0.00     0.007 A 
HETATM   31  C   UNL     1      18.884  46.677  48.311  1.00  0.00     0.010 A 
ENDBRANCH   1  25
TORSDOF 4
ENDMDL
MODEL 10
REMARK VINA RESULT:      -7.4     18.743     20.758
REMARK  4 active torsions:
REMARK  status: ('A' for Active; 'I' for Inactive)
REMARK    1  A    between atoms: C_5  and  C_6 
REMARK    2  A    between atoms: C_16  and  C_17 
REMARK       I    between atoms: C_17  and  N_18 
REMARK    3  A    between atoms: N_18  and  C_19 
REMARK    4  A    between atoms: C_20  and  O_21 
ROOT
HETATM    1  C   UNL     1      40.652  45.875  65.896  1.00  0.00     0.202 C 
HETATM    2  N   UNL     1      42.011  46.142  65.406  1.00  0.00    -0.083 N 
HETATM    3  C   UNL     1      42.477  45.719  64.197  1.00  0.00     0.726 A 
HETATM    4  N   UNL     1      43.689  46.175  64.009  1.00  0.00    -0.046 NA
HETATM    5  C   UNL     1      43.942  46.857  65.178  1.00  0.00     0.162 A 
HETATM    6  C   UNL     1      45.212  47.576  65.405  1.00  0.00     0.096 C 
HETATM    7  N   UNL     1      42.955  46.829  66.089  1.00  0.00    -0.141 NA
HETATM    8  N   UNL     1      41.699  44.924  63.445  1.00  0.00    -0.192 N 
HETATM    9  C   UNL     1      40.535  44.328  63.930  1.00  0.00     0.037 C 
HETATM   10  C   UNL     1      39.943  43.278  63.016  1.00  0.00     0.070 C 
HETATM   11  C   UNL     1      40.010  44.712  65.131  1.00  0.00     0.062 C 
HETATM   12  H   UNL     1      42.099  44.535  62.596  1.00  0.00     0.184 HD
ENDROOT
BRANCH  11  13
HETATM   13  C   UNL     1      38.845  43.970  65.732  1.00  0.00     0.256 C 
HETATM   14  N   UNL     1      37.612  44.153  65.147  1.00  0.00    -0.321 N 
HETATM   15  H   UNL     1      37.464  44.853  64.431  1.00  0.00     0.169 HD
HETATM   16  O   UNL     1      39.013  43.296  66.746  1.00  0.00    -0.267 OA
BRANCH  14  17
HETATM   17  C   UNL     1      36.406  43.493  65.509  1.00  0.00     0.068 A 
HETATM   18  C   UNL     1      35.498  44.195  66.326  1.00  0.00     0.095 A 
HETATM   19  C   UNL     1      34.277  43.608  66.679  1.00  0.00     0.039 A 
HETATM   20  C   UNL     1      33.964  42.319  66.243  1.00  0.00     0.003 A 
HETATM   21  C   UNL     1      34.864  41.617  65.449  1.00  0.00     0.002 A 
HETATM   22  C   UNL     1      36.078  42.201  65.082  1.00  0.00     0.032 A 
BRANCH  18  23
HETATM   23  O   UNL     1      35.892  45.451  66.730  1.00  0.00    -0.354 OA
HETATM   24  C   UNL     1      35.980  45.634  68.141  1.00  0.00     0.210 C 
ENDBRANCH  18  23
ENDBRANCH  14  17
ENDBRANCH  11  13
BRANCH   1  25
HETATM   25  C   UNL     1      39.858  47.187  65.830  1.00  0.00    -0.028 A 
HETATM   26  C   UNL     1      40.085  48.158  64.839  1.00  0.00     0.010 A 
HETATM   27  C   UNL     1      39.429  49.392  64.878  1.00  0.00     0.007 A 
HETATM   28  C   UNL     1      38.537  49.692  65.912  1.00  0.00    -0.062 A 
HETATM   29  C   UNL     1      37.918  51.056  66.000  1.00  0.00     0.048 C 
HETATM   30  C   UNL     1      38.305  48.735  66.903  1.00  0.00     0.007 A 
HETATM   31  C   UNL     1      38.948  47.496  66.857  1.00  0.00     0.010 A 
ENDBRANCH   1  25
TORSDOF 4
ENDMDL
