MODEL 1
REMARK VINA RESULT:      -9.1      0.000      0.000
REMARK  6 active torsions:
REMARK  status: ('A' for Active; 'I' for Inactive)
REMARK    1  A    between atoms: C_2  and  C_3 
REMARK    2  A    between atoms: C_3  and  O_4 
REMARK    3  A    between atoms: O_4  and  C_5 
REMARK    4  A    between atoms: C_7  and  C_8 
REMARK       I    between atoms: C_8  and  N_9 
REMARK    5  A    between atoms: N_9  and  C_10 
REMARK    6  A    between atoms: C_17  and  C_18 
REMARK       I    between atoms: C_18  and  N_19 
ROOT
HETATM    1  C   UNL     1      25.696  47.594  50.265  1.00  0.00     0.036 A 
HETATM    2  C   UNL     1      24.383  47.824  49.836  1.00  0.00     0.046 A 
HETATM    3  C   UNL     1      24.128  48.816  48.862  1.00  0.00     0.030 A 
HETATM    4  C   UNL     1      25.193  49.553  48.363  1.00  0.00     0.063 A 
HETATM    5  N   UNL     1      24.642  50.422  47.463  1.00  0.00    -0.277 N 
HETATM    6  H   UNL     1      25.126  51.119  46.907  1.00  0.00     0.189 HD
HETATM    7  N   UNL     1      23.313  50.307  47.320  1.00  0.00    -0.168 NA
HETATM    8  C   UNL     1      22.979  49.316  48.178  1.00  0.00     0.156 A 
HETATM    9  C   UNL     1      26.513  49.358  48.771  1.00  0.00     0.034 A 
HETATM   10  C   UNL     1      26.741  48.359  49.726  1.00  0.00     0.032 A 
ENDROOT
BRANCH   1  11
HETATM   11  N   UNL     1      26.053  46.614  51.220  1.00  0.00    -0.323 N 
HETATM   12  C   UNL     1      25.919  46.695  52.594  1.00  0.00     0.256 C 
HETATM   13  O   UNL     1      25.453  47.635  53.227  1.00  0.00    -0.267 OA
HETATM   14  H   UNL     1      26.400  45.745  50.838  1.00  0.00     0.169 HD
BRANCH  12  15
HETATM   15  C   UNL     1      26.361  45.492  53.362  1.00  0.00     0.035 A 
HETATM   16  C   UNL     1      27.722  45.150  53.307  1.00  0.00     0.053 A 
HETATM   17  C   UNL     1      28.200  44.036  53.996  1.00  0.00     0.069 A 
HETATM   18  C   UNL     1      27.310  43.266  54.748  1.00  0.00     0.037 A 
HETATM   19  C   UNL     1      25.952  43.587  54.794  1.00  0.00     0.004 A 
HETATM   20  C   UNL     1      25.472  44.695  54.094  1.00  0.00     0.017 A 
BRANCH  17  21
HETATM   21  O   UNL     1      29.496  43.600  54.015  1.00  0.00    -0.351 OA
BRANCH  21  22
HETATM   22  C   UNL     1      29.967  43.030  55.240  1.00  0.00     0.179 C 
BRANCH  22  23
HETATM   23  C   UNL     1      31.026  43.961  55.849  1.00  0.00     0.002 C 
HETATM   24  C   UNL     1      31.731  43.302  57.037  1.00  0.00     0.011 C 
HETATM   25  C   UNL     1      30.389  45.283  56.277  1.00  0.00     0.011 C 
ENDBRANCH  22  23
ENDBRANCH  21  22
ENDBRANCH  17  21
ENDBRANCH  12  15
ENDBRANCH   1  11
BRANCH   8  26
HETATM   26  C   UNL     1      21.586  48.867  48.316  1.00  0.00     0.270 C 
HETATM   27  N   UNL     1      21.035  49.125  49.542  1.00  0.00    -0.365 N 
HETATM   28  H   UNL     1      21.601  49.597  50.238  1.00  0.00     0.159 HD
HETATM   29  H   UNL     1      20.079  48.866  49.723  1.00  0.00     0.159 HD
HETATM   30  O   UNL     1      20.936  48.313  47.435  1.00  0.00    -0.266 OA
ENDBRANCH   8  26
TORSDOF 6
ENDMDL
MODEL 2
REMARK VINA RESULT:      -8.9      3.452      9.318
REMARK  6 active torsions:
REMARK  status: ('A' for Active; 'I' for Inactive)
REMARK    1  A    between atoms: C_2  and  C_3 
REMARK    2  A    between atoms: C_3  and  O_4 
REMARK    3  A    between atoms: O_4  and  C_5 
REMARK    4  A    between atoms: C_7  and  C_8 
REMARK       I    between atoms: C_8  and  N_9 
REMARK    5  A    between atoms: N_9  and  C_10 
REMARK    6  A    between atoms: C_17  and  C_18 
REMARK       I    between atoms: C_18  and  N_19 
ROOT
HETATM    1  C   UNL     1      28.491  44.284  53.501  1.00  0.00     0.036 A 
HETATM    2  C   UNL     1      28.698  44.895  54.744  1.00  0.00     0.046 A 
HETATM    3  C   UNL     1      29.760  44.462  55.569  1.00  0.00     0.030 A 
HETATM    4  C   UNL     1      30.568  43.421  55.129  1.00  0.00     0.063 A 
HETATM    5  N   UNL     1      31.483  43.226  56.126  1.00  0.00    -0.277 N 
HETATM    6  H   UNL     1      32.229  42.540  56.148  1.00  0.00     0.189 HD
HETATM    7  N   UNL     1      31.353  44.057  57.172  1.00  0.00    -0.168 NA
HETATM    8  C   UNL     1      30.292  44.829  56.843  1.00  0.00     0.156 A 
HETATM    9  C   UNL     1      30.388  42.784  53.901  1.00  0.00     0.034 A 
HETATM   10  C   UNL     1      29.337  43.242  53.096  1.00  0.00     0.032 A 
ENDROOT
BRANCH   1  11
HETATM   11  N   UNL     1      27.468  44.658  52.600  1.00  0.00    -0.323 N 
HETATM   12  C   UNL     1      26.125  44.832  52.881  1.00  0.00     0.256 C 
HETATM   13  O   UNL     1      25.585  44.699  53.974  1.00  0.00    -0.267 OA
HETATM   14  H   UNL     1      27.775  44.865  51.660  1.00  0.00     0.169 HD
BRANCH  12  15
HETATM   15  C   UNL     1      25.270  45.255  51.732  1.00  0.00     0.035 A 
HETATM   16  C   UNL     1      25.239  46.622  51.412  1.00  0.00     0.053 A 
HETATM   17  C   UNL     1      24.457  47.085  50.355  1.00  0.00     0.069 A 
HETATM   18  C   UNL     1      23.708  46.171  49.610  1.00  0.00     0.037 A 
HETATM   19  C   UNL     1      23.717  44.813  49.931  1.00  0.00     0.004 A 
HETATM   20  C   UNL     1      24.491  44.352  50.997  1.00  0.00     0.017 A 
BRANCH  17  21
HETATM   21  O   UNL     1      24.341  48.387  49.953  1.00  0.00    -0.351 OA
BRANCH  21  22
HETATM   22  C   UNL     1      23.385  48.663  48.926  1.00  0.00     0.179 C 
BRANCH  22  23
HETATM   23  C   UNL     1      23.886  49.844  48.081  1.00  0.00     0.002 C 
HETATM   24  C   UNL     1      25.412  49.948  48.117  1.00  0.00     0.011 C 
HETATM   25  C   UNL     1      23.253  51.149  48.563  1.00  0.00     0.011 C 
ENDBRANCH  22  23
ENDBRANCH  21  22
ENDBRANCH  17  21
ENDBRANCH  12  15
ENDBRANCH   1  11
BRANCH   8  26
HETATM   26  C   UNL     1      29.821  45.896  57.738  1.00  0.00     0.270 C 
HETATM   27  N   UNL     1      30.806  46.452  58.509  1.00  0.00    -0.365 N 
HETATM   28  H   UNL     1      31.754  46.109  58.407  1.00  0.00     0.159 HD
HETATM   29  H   UNL     1      30.579  47.201  59.143  1.00  0.00     0.159 HD
HETATM   30  O   UNL     1      28.662  46.289  57.813  1.00  0.00    -0.266 OA
ENDBRANCH   8  26
TORSDOF 6
ENDMDL
MODEL 3
REMARK VINA RESULT:      -8.6      3.052      9.391
REMARK  6 active torsions:
REMARK  status: ('A' for Active; 'I' for Inactive)
REMARK    1  A    between atoms: C_2  and  C_3 
REMARK    2  A    between atoms: C_3  and  O_4 
REMARK    3  A    between atoms: O_4  and  C_5 
REMARK    4  A    between atoms: C_7  and  C_8 
REMARK       I    between atoms: C_8  and  N_9 
REMARK    5  A    between atoms: N_9  and  C_10 
REMARK    6  A    between atoms: C_17  and  C_18 
REMARK       I    between atoms: C_18  and  N_19 
ROOT
HETATM    1  C   UNL     1      26.679  44.464  50.381  1.00  0.00     0.036 A 
HETATM    2  C   UNL     1      27.588  44.113  51.388  1.00  0.00     0.046 A 
HETATM    3  C   UNL     1      27.614  42.788  51.878  1.00  0.00     0.030 A 
HETATM    4  C   UNL     1      26.719  41.864  51.354  1.00  0.00     0.063 A 
HETATM    5  N   UNL     1      26.975  40.696  52.018  1.00  0.00    -0.277 N 
HETATM    6  H   UNL     1      26.506  39.806  51.896  1.00  0.00     0.189 HD
HETATM    7  N   UNL     1      27.968  40.774  52.918  1.00  0.00    -0.168 NA
HETATM    8  C   UNL     1      28.374  42.061  52.843  1.00  0.00     0.156 A 
HETATM    9  C   UNL     1      25.795  42.177  50.357  1.00  0.00     0.034 A 
HETATM   10  C   UNL     1      25.800  43.494  49.878  1.00  0.00     0.032 A 
ENDROOT
BRANCH   1  11
HETATM   11  N   UNL     1      26.589  45.757  49.816  1.00  0.00    -0.323 N 
HETATM   12  C   UNL     1      25.848  46.826  50.284  1.00  0.00     0.256 C 
HETATM   13  O   UNL     1      25.142  46.842  51.285  1.00  0.00    -0.267 OA
HETATM   14  H   UNL     1      27.174  45.916  49.007  1.00  0.00     0.169 HD
BRANCH  12  15
HETATM   15  C   UNL     1      25.960  48.089  49.493  1.00  0.00     0.035 A 
HETATM   16  C   UNL     1      24.800  48.565  48.860  1.00  0.00     0.053 A 
HETATM   17  C   UNL     1      24.836  49.734  48.102  1.00  0.00     0.069 A 
HETATM   18  C   UNL     1      26.039  50.434  47.985  1.00  0.00     0.037 A 
HETATM   19  C   UNL     1      27.202  49.960  48.596  1.00  0.00     0.004 A 
HETATM   20  C   UNL     1      27.168  48.783  49.344  1.00  0.00     0.017 A 
BRANCH  17  21
HETATM   21  O   UNL     1      23.779  50.292  47.437  1.00  0.00    -0.351 OA
BRANCH  21  22
HETATM   22  C   UNL     1      22.471  49.884  47.847  1.00  0.00     0.179 C 
BRANCH  22  23
HETATM   23  C   UNL     1      21.790  51.051  48.579  1.00  0.00     0.002 C 
HETATM   24  C   UNL     1      21.855  50.871  50.097  1.00  0.00     0.011 C 
HETATM   25  C   UNL     1      20.339  51.190  48.122  1.00  0.00     0.011 C 
ENDBRANCH  22  23
ENDBRANCH  21  22
ENDBRANCH  17  21
ENDBRANCH  12  15
ENDBRANCH   1  11
BRANCH   8  26
HETATM   26  C   UNL     1      29.476  42.561  53.678  1.00  0.00     0.270 C 
HETATM   27  N   UNL     1      30.656  42.724  53.005  1.00  0.00    -0.365 N 
HETATM   28  H   UNL     1      30.685  42.507  52.015  1.00  0.00     0.159 HD
HETATM   29  H   UNL     1      31.464  43.077  53.493  1.00  0.00     0.159 HD
HETATM   30  O   UNL     1      29.388  42.827  54.872  1.00  0.00    -0.266 OA
ENDBRANCH   8  26
TORSDOF 6
ENDMDL
MODEL 4
REMARK VINA RESULT:      -8.4      4.944      7.923
REMARK  6 active torsions:
REMARK  status: ('A' for Active; 'I' for Inactive)
REMARK    1  A    between atoms: C_2  and  C_3 
REMARK    2  A    between atoms: C_3  and  O_4 
REMARK    3  A    between atoms: O_4  and  C_5 
REMARK    4  A    between atoms: C_7  and  C_8 
REMARK       I    between atoms: C_8  and  N_9 
REMARK    5  A    between atoms: N_9  and  C_10 
REMARK    6  A    between atoms: C_17  and  C_18 
REMARK       I    between atoms: C_18  and  N_19 
ROOT
HETATM    1  C   UNL     1      27.280  41.788  51.105  1.00  0.00     0.036 A 
HETATM    2  C   UNL     1      28.219  40.755  51.006  1.00  0.00     0.046 A 
HETATM    3  C   UNL     1      27.962  39.653  50.159  1.00  0.00     0.030 A 
HETATM    4  C   UNL     1      26.767  39.617  49.452  1.00  0.00     0.063 A 
HETATM    5  N   UNL     1      26.802  38.450  48.741  1.00  0.00    -0.277 N 
HETATM    6  H   UNL     1      26.089  38.091  48.115  1.00  0.00     0.189 HD
HETATM    7  N   UNL     1      27.921  37.728  48.909  1.00  0.00    -0.168 NA
HETATM    8  C   UNL     1      28.650  38.460  49.783  1.00  0.00     0.156 A 
HETATM    9  C   UNL     1      25.804  40.623  49.531  1.00  0.00     0.034 A 
HETATM   10  C   UNL     1      26.090  41.711  50.367  1.00  0.00     0.032 A 
ENDROOT
BRANCH   1  11
HETATM   11  N   UNL     1      27.454  42.937  51.910  1.00  0.00    -0.323 N 
HETATM   12  C   UNL     1      26.467  43.766  52.413  1.00  0.00     0.256 C 
HETATM   13  O   UNL     1      25.258  43.641  52.254  1.00  0.00    -0.267 OA
HETATM   14  H   UNL     1      28.407  43.136  52.180  1.00  0.00     0.169 HD
BRANCH  12  15
HETATM   15  C   UNL     1      26.942  44.902  53.259  1.00  0.00     0.035 A 
HETATM   16  C   UNL     1      28.017  44.660  54.129  1.00  0.00     0.053 A 
HETATM   17  C   UNL     1      28.505  45.675  54.951  1.00  0.00     0.069 A 
HETATM   18  C   UNL     1      27.917  46.940  54.894  1.00  0.00     0.037 A 
HETATM   19  C   UNL     1      26.836  47.187  54.046  1.00  0.00     0.004 A 
HETATM   20  C   UNL     1      26.340  46.167  53.232  1.00  0.00     0.017 A 
BRANCH  17  21
HETATM   21  O   UNL     1      29.538  45.560  55.840  1.00  0.00    -0.351 OA
BRANCH  21  22
HETATM   22  C   UNL     1      30.361  44.396  55.726  1.00  0.00     0.179 C 
BRANCH  22  23
HETATM   23  C   UNL     1      31.341  44.359  56.909  1.00  0.00     0.002 C 
HETATM   24  C   UNL     1      31.764  42.926  57.238  1.00  0.00     0.011 C 
HETATM   25  C   UNL     1      30.718  45.024  58.136  1.00  0.00     0.011 C 
ENDBRANCH  22  23
ENDBRANCH  21  22
ENDBRANCH  17  21
ENDBRANCH  12  15
ENDBRANCH   1  11
BRANCH   8  26
HETATM   26  C   UNL     1      29.979  38.012  50.226  1.00  0.00     0.270 C 
HETATM   27  N   UNL     1      31.010  38.482  49.459  1.00  0.00    -0.365 N 
HETATM   28  H   UNL     1      30.795  39.088  48.675  1.00  0.00     0.159 HD
HETATM   29  H   UNL     1      31.958  38.239  49.696  1.00  0.00     0.159 HD
HETATM   30  O   UNL     1      30.189  37.290  51.194  1.00  0.00    -0.266 OA
ENDBRANCH   8  26
TORSDOF 6
ENDMDL
MODEL 5
REMARK VINA RESULT:      -8.3      2.901      9.284
REMARK  6 active torsions:
REMARK  status: ('A' for Active; 'I' for Inactive)
REMARK    1  A    between atoms: C_2  and  C_3 
REMARK    2  A    between atoms: C_3  and  O_4 
REMARK    3  A    between atoms: O_4  and  C_5 
REMARK    4  A    between atoms: C_7  and  C_8 
REMARK       I    between atoms: C_8  and  N_9 
REMARK    5  A    between atoms: N_9  and  C_10 
REMARK    6  A    between atoms: C_17  and  C_18 
REMARK       I    between atoms: C_18  and  N_19 
ROOT
HETATM    1  C   UNL     1      25.802  46.269  51.857  1.00  0.00     0.036 A 
HETATM    2  C   UNL     1      26.145  44.955  51.514  1.00  0.00     0.046 A 
HETATM    3  C   UNL     1      26.908  44.173  52.410  1.00  0.00     0.030 A 
HETATM    4  C   UNL     1      27.315  44.739  53.612  1.00  0.00     0.063 A 
HETATM    5  N   UNL     1      28.028  43.762  54.249  1.00  0.00    -0.277 N 
HETATM    6  H   UNL     1      28.481  43.824  55.154  1.00  0.00     0.189 HD
HETATM    7  N   UNL     1      28.110  42.603  53.576  1.00  0.00    -0.168 NA
HETATM    8  C   UNL     1      27.421  42.841  52.436  1.00  0.00     0.156 A 
HETATM    9  C   UNL     1      26.999  46.045  53.985  1.00  0.00     0.034 A 
HETATM   10  C   UNL     1      26.229  46.794  53.085  1.00  0.00     0.032 A 
ENDROOT
BRANCH   1  11
HETATM   11  N   UNL     1      25.029  47.121  51.036  1.00  0.00    -0.323 N 
HETATM   12  C   UNL     1      25.452  47.820  49.920  1.00  0.00     0.256 C 
HETATM   13  O   UNL     1      26.579  47.813  49.438  1.00  0.00    -0.267 OA
HETATM   14  H   UNL     1      24.049  47.180  51.275  1.00  0.00     0.169 HD
BRANCH  12  15
HETATM   15  C   UNL     1      24.407  48.632  49.227  1.00  0.00     0.035 A 
HETATM   16  C   UNL     1      23.066  48.254  49.403  1.00  0.00     0.053 A 
HETATM   17  C   UNL     1      22.041  48.965  48.780  1.00  0.00     0.069 A 
HETATM   18  C   UNL     1      22.363  50.066  47.982  1.00  0.00     0.037 A 
HETATM   19  C   UNL     1      23.694  50.439  47.786  1.00  0.00     0.004 A 
HETATM   20  C   UNL     1      24.719  49.719  48.400  1.00  0.00     0.017 A 
BRANCH  17  21
HETATM   21  O   UNL     1      20.704  48.691  48.870  1.00  0.00    -0.351 OA
BRANCH  21  22
HETATM   22  C   UNL     1      19.809  49.651  48.301  1.00  0.00     0.179 C 
BRANCH  22  23
HETATM   23  C   UNL     1      18.899  50.204  49.409  1.00  0.00     0.002 C 
HETATM   24  C   UNL     1      19.310  51.622  49.812  1.00  0.00     0.011 C 
HETATM   25  C   UNL     1      18.922  49.278  50.625  1.00  0.00     0.011 C 
ENDBRANCH  22  23
ENDBRANCH  21  22
ENDBRANCH  17  21
ENDBRANCH  12  15
ENDBRANCH   1  11
BRANCH   8  26
HETATM   26  C   UNL     1      27.261  41.798  51.413  1.00  0.00     0.270 C 
HETATM   27  N   UNL     1      26.712  40.635  51.883  1.00  0.00    -0.365 N 
HETATM   28  H   UNL     1      26.456  40.580  52.862  1.00  0.00     0.159 HD
HETATM   29  H   UNL     1      26.550  39.869  51.249  1.00  0.00     0.159 HD
HETATM   30  O   UNL     1      27.570  41.918  50.233  1.00  0.00    -0.266 OA
ENDBRANCH   8  26
TORSDOF 6
ENDMDL
MODEL 6
REMARK VINA RESULT:      -8.1      2.106      3.197
REMARK  6 active torsions:
REMARK  status: ('A' for Active; 'I' for Inactive)
REMARK    1  A    between atoms: C_2  and  C_3 
REMARK    2  A    between atoms: C_3  and  O_4 
REMARK    3  A    between atoms: O_4  and  C_5 
REMARK    4  A    between atoms: C_7  and  C_8 
REMARK       I    between atoms: C_8  and  N_9 
REMARK    5  A    between atoms: N_9  and  C_10 
REMARK    6  A    between atoms: C_17  and  C_18 
REMARK       I    between atoms: C_18  and  N_19 
ROOT
HETATM    1  C   UNL     1      25.534  47.667  50.198  1.00  0.00     0.036 A 
HETATM    2  C   UNL     1      24.149  47.793  50.033  1.00  0.00     0.046 A 
HETATM    3  C   UNL     1      23.635  48.750  49.130  1.00  0.00     0.030 A 
HETATM    4  C   UNL     1      24.525  49.558  48.434  1.00  0.00     0.063 A 
HETATM    5  N   UNL     1      23.745  50.372  47.659  1.00  0.00    -0.277 N 
HETATM    6  H   UNL     1      24.058  51.095  47.021  1.00  0.00     0.189 HD
HETATM    7  N   UNL     1      22.426  50.156  47.777  1.00  0.00    -0.168 NA
HETATM    8  C   UNL     1      22.341  49.154  48.682  1.00  0.00     0.156 A 
HETATM    9  C   UNL     1      25.910  49.467  48.576  1.00  0.00     0.034 A 
HETATM   10  C   UNL     1      26.393  48.501  49.468  1.00  0.00     0.032 A 
ENDROOT
BRANCH   1  11
HETATM   11  N   UNL     1      26.143  46.729  51.064  1.00  0.00    -0.323 N 
HETATM   12  C   UNL     1      26.085  46.704  52.445  1.00  0.00     0.256 C 
HETATM   13  O   UNL     1      25.482  47.492  53.165  1.00  0.00    -0.267 OA
HETATM   14  H   UNL     1      26.631  45.972  50.606  1.00  0.00     0.169 HD
BRANCH  12  15
HETATM   15  C   UNL     1      26.810  45.576  53.105  1.00  0.00     0.035 A 
HETATM   16  C   UNL     1      26.748  44.315  52.490  1.00  0.00     0.053 A 
HETATM   17  C   UNL     1      27.396  43.218  53.056  1.00  0.00     0.069 A 
HETATM   18  C   UNL     1      28.116  43.389  54.241  1.00  0.00     0.037 A 
HETATM   19  C   UNL     1      28.169  44.634  54.870  1.00  0.00     0.004 A 
HETATM   20  C   UNL     1      27.509  45.729  54.309  1.00  0.00     0.017 A 
BRANCH  17  21
HETATM   21  O   UNL     1      27.405  41.945  52.557  1.00  0.00    -0.351 OA
BRANCH  21  22
HETATM   22  C   UNL     1      28.279  41.691  51.453  1.00  0.00     0.179 C 
BRANCH  22  23
HETATM   23  C   UNL     1      27.447  41.191  50.262  1.00  0.00     0.002 C 
HETATM   24  C   UNL     1      26.998  42.351  49.370  1.00  0.00     0.011 C 
HETATM   25  C   UNL     1      26.236  40.400  50.754  1.00  0.00     0.011 C 
ENDBRANCH  22  23
ENDBRANCH  21  22
ENDBRANCH  17  21
ENDBRANCH  12  15
ENDBRANCH   1  11
BRANCH   8  26
HETATM   26  C   UNL     1      21.039  48.604  49.088  1.00  0.00     0.270 C 
HETATM   27  N   UNL     1      20.925  47.252  48.909  1.00  0.00    -0.365 N 
HETATM   28  H   UNL     1      21.717  46.744  48.533  1.00  0.00     0.159 HD
HETATM   29  H   UNL     1      20.073  46.785  49.173  1.00  0.00     0.159 HD
HETATM   30  O   UNL     1      20.115  49.260  49.555  1.00  0.00    -0.266 OA
ENDBRANCH   8  26
TORSDOF 6
ENDMDL
MODEL 7
REMARK VINA RESULT:      -8.0      2.155      2.587
REMARK  6 active torsions:
REMARK  status: ('A' for Active; 'I' for Inactive)
REMARK    1  A    between atoms: C_2  and  C_3 
REMARK    2  A    between atoms: C_3  and  O_4 
REMARK    3  A    between atoms: O_4  and  C_5 
REMARK    4  A    between atoms: C_7  and  C_8 
REMARK       I    between atoms: C_8  and  N_9 
REMARK    5  A    between atoms: N_9  and  C_10 
REMARK    6  A    between atoms: C_17  and  C_18 
REMARK       I    between atoms: C_18  and  N_19 
ROOT
HETATM    1  C   UNL     1      25.178  46.215  50.433  1.00  0.00     0.036 A 
HETATM    2  C   UNL     1      23.950  45.860  49.862  1.00  0.00     0.046 A 
HETATM    3  C   UNL     1      23.263  46.786  49.045  1.00  0.00     0.030 A 
HETATM    4  C   UNL     1      23.822  48.041  48.841  1.00  0.00     0.063 A 
HETATM    5  N   UNL     1      22.942  48.703  48.031  1.00  0.00    -0.277 N 
HETATM    6  H   UNL     1      23.024  49.650  47.679  1.00  0.00     0.189 HD
HETATM    7  N   UNL     1      21.864  47.985  47.676  1.00  0.00    -0.168 NA
HETATM    8  C   UNL     1      22.048  46.796  48.294  1.00  0.00     0.156 A 
HETATM    9  C   UNL     1      25.040  48.434  49.398  1.00  0.00     0.034 A 
HETATM   10  C   UNL     1      25.707  47.492  50.193  1.00  0.00     0.032 A 
ENDROOT
BRANCH   1  11
HETATM   11  N   UNL     1      25.946  45.353  51.249  1.00  0.00    -0.323 N 
HETATM   12  C   UNL     1      26.931  44.471  50.842  1.00  0.00     0.256 C 
HETATM   13  O   UNL     1      27.318  44.288  49.694  1.00  0.00    -0.267 OA
HETATM   14  H   UNL     1      25.780  45.436  52.242  1.00  0.00     0.169 HD
BRANCH  12  15
HETATM   15  C   UNL     1      27.599  43.696  51.931  1.00  0.00     0.035 A 
HETATM   16  C   UNL     1      28.098  44.415  53.028  1.00  0.00     0.053 A 
HETATM   17  C   UNL     1      28.738  43.753  54.076  1.00  0.00     0.069 A 
HETATM   18  C   UNL     1      28.870  42.364  54.026  1.00  0.00     0.037 A 
HETATM   19  C   UNL     1      28.393  41.641  52.931  1.00  0.00     0.004 A 
HETATM   20  C   UNL     1      27.764  42.306  51.876  1.00  0.00     0.017 A 
BRANCH  17  21
HETATM   21  O   UNL     1      29.269  44.342  55.191  1.00  0.00    -0.351 OA
BRANCH  21  22
HETATM   22  C   UNL     1      30.654  44.099  55.451  1.00  0.00     0.179 C 
BRANCH  22  23
HETATM   23  C   UNL     1      30.835  43.787  56.945  1.00  0.00     0.002 C 
HETATM   24  C   UNL     1      30.746  45.056  57.795  1.00  0.00     0.011 C 
HETATM   25  C   UNL     1      32.170  43.082  57.182  1.00  0.00     0.011 C 
ENDBRANCH  22  23
ENDBRANCH  21  22
ENDBRANCH  17  21
ENDBRANCH  12  15
ENDBRANCH   1  11
BRANCH   8  26
HETATM   26  C   UNL     1      21.076  45.704  48.147  1.00  0.00     0.270 C 
HETATM   27  N   UNL     1      20.283  45.512  49.246  1.00  0.00    -0.365 N 
HETATM   28  H   UNL     1      20.410  46.118  50.049  1.00  0.00     0.159 HD
HETATM   29  H   UNL     1      19.576  44.794  49.231  1.00  0.00     0.159 HD
HETATM   30  O   UNL     1      20.948  45.008  47.146  1.00  0.00    -0.266 OA
ENDBRANCH   8  26
TORSDOF 6
ENDMDL
MODEL 8
REMARK VINA RESULT:      -8.0      2.818      9.457
REMARK  6 active torsions:
REMARK  status: ('A' for Active; 'I' for Inactive)
REMARK    1  A    between atoms: C_2  and  C_3 
REMARK    2  A    between atoms: C_3  and  O_4 
REMARK    3  A    between atoms: O_4  and  C_5 
REMARK    4  A    between atoms: C_7  and  C_8 
REMARK       I    between atoms: C_8  and  N_9 
REMARK    5  A    between atoms: N_9  and  C_10 
REMARK    6  A    between atoms: C_17  and  C_18 
REMARK       I    between atoms: C_18  and  N_19 
ROOT
HETATM    1  C   UNL     1      25.457  46.418  52.277  1.00  0.00     0.036 A 
HETATM    2  C   UNL     1      26.183  45.222  52.212  1.00  0.00     0.046 A 
HETATM    3  C   UNL     1      27.136  44.927  53.214  1.00  0.00     0.030 A 
HETATM    4  C   UNL     1      27.339  45.845  54.236  1.00  0.00     0.063 A 
HETATM    5  N   UNL     1      28.305  45.294  55.031  1.00  0.00    -0.277 N 
HETATM    6  H   UNL     1      28.707  45.692  55.872  1.00  0.00     0.189 HD
HETATM    7  N   UNL     1      28.740  44.091  54.626  1.00  0.00    -0.168 NA
HETATM    8  C   UNL     1      28.025  43.848  53.504  1.00  0.00     0.156 A 
HETATM    9  C   UNL     1      26.640  47.049  54.329  1.00  0.00     0.034 A 
HETATM   10  C   UNL     1      25.691  47.311  53.332  1.00  0.00     0.032 A 
ENDROOT
BRANCH   1  11
HETATM   11  N   UNL     1      24.473  46.793  51.333  1.00  0.00    -0.323 N 
HETATM   12  C   UNL     1      24.660  47.517  50.169  1.00  0.00     0.256 C 
HETATM   13  O   UNL     1      25.724  47.953  49.745  1.00  0.00    -0.267 OA
HETATM   14  H   UNL     1      23.542  46.448  51.519  1.00  0.00     0.169 HD
BRANCH  12  15
HETATM   15  C   UNL     1      23.436  47.750  49.345  1.00  0.00     0.035 A 
HETATM   16  C   UNL     1      22.861  49.030  49.384  1.00  0.00     0.053 A 
HETATM   17  C   UNL     1      21.714  49.314  48.643  1.00  0.00     0.069 A 
HETATM   18  C   UNL     1      21.146  48.310  47.854  1.00  0.00     0.037 A 
HETATM   19  C   UNL     1      21.700  47.029  47.823  1.00  0.00     0.004 A 
HETATM   20  C   UNL     1      22.841  46.743  48.575  1.00  0.00     0.017 A 
BRANCH  17  21
HETATM   21  O   UNL     1      21.061  50.515  48.603  1.00  0.00    -0.351 OA
BRANCH  21  22
HETATM   22  C   UNL     1      20.704  51.097  49.860  1.00  0.00     0.179 C 
BRANCH  22  23
HETATM   23  C   UNL     1      19.268  51.636  49.771  1.00  0.00     0.002 C 
HETATM   24  C   UNL     1      18.241  50.506  49.867  1.00  0.00     0.011 C 
HETATM   25  C   UNL     1      19.074  52.420  48.474  1.00  0.00     0.011 C 
ENDBRANCH  22  23
ENDBRANCH  21  22
ENDBRANCH  17  21
ENDBRANCH  12  15
ENDBRANCH   1  11
BRANCH   8  26
HETATM   26  C   UNL     1      28.199  42.600  52.746  1.00  0.00     0.270 C 
HETATM   27  N   UNL     1      27.049  41.874  52.598  1.00  0.00    -0.365 N 
HETATM   28  H   UNL     1      26.191  42.236  52.997  1.00  0.00     0.159 HD
HETATM   29  H   UNL     1      27.068  41.010  52.080  1.00  0.00     0.159 HD
HETATM   30  O   UNL     1      29.258  42.211  52.267  1.00  0.00    -0.266 OA
ENDBRANCH   8  26
TORSDOF 6
ENDMDL
MODEL 9
REMARK VINA RESULT:      -7.8      2.929      8.938
REMARK  6 active torsions:
REMARK  status: ('A' for Active; 'I' for Inactive)
REMARK    1  A    between atoms: C_2  and  C_3 
REMARK    2  A    between atoms: C_3  and  O_4 
REMARK    3  A    between atoms: O_4  and  C_5 
REMARK    4  A    between atoms: C_7  and  C_8 
REMARK       I    between atoms: C_8  and  N_9 
REMARK    5  A    between atoms: N_9  and  C_10 
REMARK    6  A    between atoms: C_17  and  C_18 
REMARK       I    between atoms: C_18  and  N_19 
ROOT
HETATM    1  C   UNL     1      26.004  46.213  52.685  1.00  0.00     0.036 A 
HETATM    2  C   UNL     1      26.946  45.240  53.044  1.00  0.00     0.046 A 
HETATM    3  C   UNL     1      27.714  45.410  54.218  1.00  0.00     0.030 A 
HETATM    4  C   UNL     1      27.524  46.553  54.983  1.00  0.00     0.063 A 
HETATM    5  N   UNL     1      28.397  46.439  56.029  1.00  0.00    -0.277 N 
HETATM    6  H   UNL     1      28.536  47.097  56.787  1.00  0.00     0.189 HD
HETATM    7  N   UNL     1      29.129  45.314  56.022  1.00  0.00    -0.168 NA
HETATM    8  C   UNL     1      28.718  44.666  54.909  1.00  0.00     0.156 A 
HETATM    9  C   UNL     1      26.601  47.546  54.653  1.00  0.00     0.034 A 
HETATM   10  C   UNL     1      25.843  47.348  53.492  1.00  0.00     0.032 A 
ENDROOT
BRANCH   1  11
HETATM   11  N   UNL     1      25.178  46.125  51.540  1.00  0.00    -0.323 N 
HETATM   12  C   UNL     1      24.395  45.053  51.153  1.00  0.00     0.256 C 
HETATM   13  O   UNL     1      24.271  43.987  51.746  1.00  0.00    -0.267 OA
HETATM   14  H   UNL     1      25.129  46.962  50.978  1.00  0.00     0.169 HD
BRANCH  12  15
HETATM   15  C   UNL     1      23.602  45.247  49.902  1.00  0.00     0.035 A 
HETATM   16  C   UNL     1      23.524  46.547  49.376  1.00  0.00     0.053 A 
HETATM   17  C   UNL     1      22.795  46.798  48.214  1.00  0.00     0.069 A 
HETATM   18  C   UNL     1      22.148  45.739  47.573  1.00  0.00     0.037 A 
HETATM   19  C   UNL     1      22.204  44.447  48.097  1.00  0.00     0.004 A 
HETATM   20  C   UNL     1      22.923  44.198  49.267  1.00  0.00     0.017 A 
BRANCH  17  21
HETATM   21  O   UNL     1      22.641  48.016  47.611  1.00  0.00    -0.351 OA
BRANCH  21  22
HETATM   22  C   UNL     1      21.545  48.821  48.054  1.00  0.00     0.179 C 
BRANCH  22  23
HETATM   23  C   UNL     1      22.008  50.283  48.159  1.00  0.00     0.002 C 
HETATM   24  C   UNL     1      23.490  50.425  47.803  1.00  0.00     0.011 C 
HETATM   25  C   UNL     1      21.745  50.824  49.563  1.00  0.00     0.011 C 
ENDBRANCH  22  23
ENDBRANCH  21  22
ENDBRANCH  17  21
ENDBRANCH  12  15
ENDBRANCH   1  11
BRANCH   8  26
HETATM   26  C   UNL     1      29.280  43.358  54.539  1.00  0.00     0.270 C 
HETATM   27  N   UNL     1      30.638  43.273  54.687  1.00  0.00    -0.365 N 
HETATM   28  H   UNL     1      31.140  44.081  55.036  1.00  0.00     0.159 HD
HETATM   29  H   UNL     1      31.109  42.409  54.472  1.00  0.00     0.159 HD
HETATM   30  O   UNL     1      28.627  42.402  54.137  1.00  0.00    -0.266 OA
ENDBRANCH   8  26
TORSDOF 6
ENDMDL
MODEL 10
REMARK VINA RESULT:      -7.7      5.688      8.723
REMARK  6 active torsions:
REMARK  status: ('A' for Active; 'I' for Inactive)
REMARK    1  A    between atoms: C_2  and  C_3 
REMARK    2  A    between atoms: C_3  and  O_4 
REMARK    3  A    between atoms: O_4  and  C_5 
REMARK    4  A    between atoms: C_7  and  C_8 
REMARK       I    between atoms: C_8  and  N_9 
REMARK    5  A    between atoms: N_9  and  C_10 
REMARK    6  A    between atoms: C_17  and  C_18 
REMARK       I    between atoms: C_18  and  N_19 
ROOT
HETATM    1  C   UNL     1      29.405  43.021  53.429  1.00  0.00     0.036 A 
HETATM    2  C   UNL     1      28.384  43.975  53.536  1.00  0.00     0.046 A 
HETATM    3  C   UNL     1      28.442  44.951  54.557  1.00  0.00     0.030 A 
HETATM    4  C   UNL     1      29.511  44.929  55.444  1.00  0.00     0.063 A 
HETATM    5  N   UNL     1      29.290  45.968  56.303  1.00  0.00    -0.277 N 
HETATM    6  H   UNL     1      29.868  46.250  57.087  1.00  0.00     0.189 HD
HETATM    7  N   UNL     1      28.179  46.676  56.046  1.00  0.00    -0.168 NA
HETATM    8  C   UNL     1      27.643  46.060  54.968  1.00  0.00     0.156 A 
HETATM    9  C   UNL     1      30.541  43.990  55.373  1.00  0.00     0.034 A 
HETATM   10  C   UNL     1      30.467  43.043  54.343  1.00  0.00     0.032 A 
ENDROOT
BRANCH   1  11
HETATM   11  N   UNL     1      29.444  42.018  52.434  1.00  0.00    -0.323 N 
HETATM   12  C   UNL     1      28.601  40.928  52.308  1.00  0.00     0.256 C 
HETATM   13  O   UNL     1      27.659  40.646  53.040  1.00  0.00    -0.267 OA
HETATM   14  H   UNL     1      30.140  42.150  51.714  1.00  0.00     0.169 HD
BRANCH  12  15
HETATM   15  C   UNL     1      28.862  40.036  51.138  1.00  0.00     0.035 A 
HETATM   16  C   UNL     1      28.370  40.443  49.888  1.00  0.00     0.053 A 
HETATM   17  C   UNL     1      28.574  39.654  48.756  1.00  0.00     0.069 A 
HETATM   18  C   UNL     1      29.280  38.456  48.879  1.00  0.00     0.037 A 
HETATM   19  C   UNL     1      29.758  38.033  50.120  1.00  0.00     0.004 A 
HETATM   20  C   UNL     1      29.543  38.817  51.255  1.00  0.00     0.017 A 
BRANCH  17  21
HETATM   21  O   UNL     1      28.141  39.940  47.491  1.00  0.00    -0.351 OA
BRANCH  21  22
HETATM   22  C   UNL     1      28.050  38.844  46.577  1.00  0.00     0.179 C 
BRANCH  22  23
HETATM   23  C   UNL     1      27.836  39.393  45.157  1.00  0.00     0.002 C 
HETATM   24  C   UNL     1      28.660  38.615  44.129  1.00  0.00     0.011 C 
HETATM   25  C   UNL     1      28.186  40.879  45.105  1.00  0.00     0.011 C 
ENDBRANCH  22  23
ENDBRANCH  21  22
ENDBRANCH  17  21
ENDBRANCH  12  15
ENDBRANCH   1  11
BRANCH   8  26
HETATM   26  C   UNL     1      26.399  46.546  54.354  1.00  0.00     0.270 C 
HETATM   27  N   UNL     1      26.114  47.855  54.634  1.00  0.00    -0.365 N 
HETATM   28  H   UNL     1      26.758  48.379  55.214  1.00  0.00     0.159 HD
HETATM   29  H   UNL     1      25.288  48.280  54.243  1.00  0.00     0.159 HD
HETATM   30  O   UNL     1      25.659  45.876  53.642  1.00  0.00    -0.266 OA
ENDBRANCH   8  26
TORSDOF 6
ENDMDL
