MODEL 1
REMARK VINA RESULT:      -6.5      0.000      0.000
REMARK  10 active torsions:
REMARK  status: ('A' for Active; 'I' for Inactive)
REMARK    1  A    between atoms: C_2  and  O_3 
REMARK    2  A    between atoms: O_3  and  C_4 
REMARK    3  A    between atoms: C_4  and  C_5 
REMARK    4  A    between atoms: C_6  and  C_7 
REMARK    5  A    between atoms: C_16  and  C_17 
REMARK    6  A    between atoms: C_17  and  C_18 
REMARK       I    between atoms: C_18  and  N_19 
REMARK    7  A    between atoms: N_19  and  C_20 
REMARK    8  A    between atoms: C_20  and  C_21 
REMARK    9  A    between atoms: C_21  and  N_22 
REMARK   10  A    between atoms: C_31  and  C_32 
ROOT
HETATM    1  C   UNL     1      20.141  46.351  47.449  1.00  0.00     0.078 C 
HETATM    2  C   UNL     1      19.678  47.524  48.265  1.00  0.00     0.167 C 
HETATM    3  N   UNL     1      20.792  48.409  48.687  1.00  0.00    -0.318 N 
HETATM    4  C   UNL     1      20.874  49.437  49.471  1.00  0.00     0.011 C 
HETATM    5  C   UNL     1      22.143  48.116  47.991  1.00  0.00     0.170 C 
HETATM    6  S   UNL     1      23.360  49.268  48.422  1.00  0.00    -0.086 SA
HETATM    7  C   UNL     1      22.254  50.041  49.625  1.00  0.00     0.135 C 
HETATM    8  N   UNL     1      22.374  47.150  47.180  1.00  0.00    -0.219 NA
HETATM    9  C   UNL     1      21.389  46.201  46.952  1.00  0.00     0.157 C 
ENDROOT
BRANCH   4  10
HETATM   10  C   UNL     1      19.690  50.037  50.173  1.00  0.00     0.156 C 
BRANCH  10  11
HETATM   11  C   UNL     1      19.085  51.266  49.535  1.00  0.00     0.223 C 
HETATM   12  N   UNL     1      17.771  51.478  49.869  1.00  0.00    -0.359 N 
HETATM   13  H   UNL     1      17.291  50.757  50.408  1.00  0.00     0.162 HD
HETATM   14  O   UNL     1      19.729  52.035  48.827  1.00  0.00    -0.273 OA
BRANCH  12  15
HETATM   15  C   UNL     1      16.893  52.464  49.235  1.00  0.00     0.150 C 
BRANCH  15  16
HETATM   16  C   UNL     1      15.490  52.619  49.861  1.00  0.00     0.253 C 
BRANCH  16  17
HETATM   17  N   UNL     1      15.104  54.069  50.076  1.00  0.00    -0.077 N 
HETATM   18  H   UNL     1      15.972  54.633  49.989  1.00  0.00     0.279 HD
HETATM   19  C   UNL     1      14.147  54.594  49.037  1.00  0.00     0.269 C 
HETATM   20  C   UNL     1      14.552  54.301  51.459  1.00  0.00     0.269 C 
ENDBRANCH  16  17
ENDBRANCH  15  16
ENDBRANCH  12  15
ENDBRANCH  10  11
ENDBRANCH   4  10
BRANCH   2  21
HETATM   21  C   UNL     1      18.597  48.345  47.555  1.00  0.00    -0.024 A 
HETATM   22  C   UNL     1      17.248  48.357  47.982  1.00  0.00    -0.053 A 
HETATM   23  C   UNL     1      16.694  47.478  49.073  1.00  0.00     0.049 C 
HETATM   24  C   UNL     1      16.323  49.172  47.305  1.00  0.00     0.008 A 
HETATM   25  C   UNL     1      16.713  49.978  46.238  1.00  0.00     0.007 A 
HETATM   26  C   UNL     1      18.033  49.971  45.798  1.00  0.00    -0.061 A 
HETATM   27  C   UNL     1      18.439  50.794  44.608  1.00  0.00     0.048 C 
HETATM   28  C   UNL     1      18.958  49.137  46.436  1.00  0.00     0.017 A 
ENDBRANCH   2  21
BRANCH   1  29
HETATM   29  C   UNL     1      19.138  45.269  47.373  1.00  0.00     0.294 C 
HETATM   30  O   UNL     1      18.829  44.632  48.367  1.00  0.00    -0.259 OA
BRANCH  29  31
HETATM   31  O   UNL     1      18.633  45.176  46.131  1.00  0.00    -0.318 OA
BRANCH  31  32
HETATM   32  C   UNL     1      17.197  45.184  46.030  1.00  0.00     0.174 C 
HETATM   33  C   UNL     1      16.739  46.215  45.018  1.00  0.00     0.034 C 
ENDBRANCH  31  32
ENDBRANCH  29  31
ENDBRANCH   1  29
BRANCH   9  34
HETATM   34  C   UNL     1      21.846  44.932  46.200  1.00  0.00     0.435 C 
HETATM   35  F   UNL     1      21.446  43.805  46.839  1.00  0.00    -0.165 F 
HETATM   36  F   UNL     1      21.318  44.872  44.952  1.00  0.00    -0.165 F 
HETATM   37  F   UNL     1      23.193  44.882  46.091  1.00  0.00    -0.165 F 
ENDBRANCH   9  34
TORSDOF 10
ENDMDL
MODEL 2
REMARK VINA RESULT:      -6.4      1.787      2.541
REMARK  10 active torsions:
REMARK  status: ('A' for Active; 'I' for Inactive)
REMARK    1  A    between atoms: C_2  and  O_3 
REMARK    2  A    between atoms: O_3  and  C_4 
REMARK    3  A    between atoms: C_4  and  C_5 
REMARK    4  A    between atoms: C_6  and  C_7 
REMARK    5  A    between atoms: C_16  and  C_17 
REMARK    6  A    between atoms: C_17  and  C_18 
REMARK       I    between atoms: C_18  and  N_19 
REMARK    7  A    between atoms: N_19  and  C_20 
REMARK    8  A    between atoms: C_20  and  C_21 
REMARK    9  A    between atoms: C_21  and  N_22 
REMARK   10  A    between atoms: C_31  and  C_32 
ROOT
HETATM    1  C   UNL     1      18.374  47.899  47.121  1.00  0.00     0.078 C 
HETATM    2  C   UNL     1      18.320  49.382  47.352  1.00  0.00     0.167 C 
HETATM    3  N   UNL     1      19.621  49.945  47.793  1.00  0.00    -0.318 N 
HETATM    4  C   UNL     1      20.000  51.114  48.204  1.00  0.00     0.011 C 
HETATM    5  C   UNL     1      20.818  48.973  47.662  1.00  0.00     0.170 C 
HETATM    6  S   UNL     1      22.321  49.734  48.059  1.00  0.00    -0.086 SA
HETATM    7  C   UNL     1      21.463  51.241  48.570  1.00  0.00     0.135 C 
HETATM    8  N   UNL     1      20.749  47.744  47.301  1.00  0.00    -0.219 NA
HETATM    9  C   UNL     1      19.507  47.162  47.094  1.00  0.00     0.157 C 
ENDROOT
BRANCH   4  10
HETATM   10  C   UNL     1      19.078  52.297  48.294  1.00  0.00     0.156 C 
BRANCH  10  11
HETATM   11  C   UNL     1      18.040  52.254  49.390  1.00  0.00     0.223 C 
HETATM   12  N   UNL     1      17.037  53.179  49.243  1.00  0.00    -0.359 N 
HETATM   13  H   UNL     1      17.127  53.871  48.500  1.00  0.00     0.162 HD
HETATM   14  O   UNL     1      18.062  51.428  50.299  1.00  0.00    -0.273 OA
BRANCH  12  15
HETATM   15  C   UNL     1      16.029  53.492  50.260  1.00  0.00     0.150 C 
BRANCH  15  16
HETATM   16  C   UNL     1      14.562  53.228  49.857  1.00  0.00     0.253 C 
BRANCH  16  17
HETATM   17  N   UNL     1      13.944  54.394  49.111  1.00  0.00    -0.077 N 
HETATM   18  H   UNL     1      12.934  54.409  49.350  1.00  0.00     0.279 HD
HETATM   19  C   UNL     1      14.501  55.732  49.523  1.00  0.00     0.269 C 
HETATM   20  C   UNL     1      14.051  54.221  47.618  1.00  0.00     0.269 C 
ENDBRANCH  16  17
ENDBRANCH  15  16
ENDBRANCH  12  15
ENDBRANCH  10  11
ENDBRANCH   4  10
BRANCH   2  21
HETATM   21  C   UNL     1      17.803  50.149  46.131  1.00  0.00    -0.024 A 
HETATM   22  C   UNL     1      16.561  50.828  46.129  1.00  0.00    -0.053 A 
HETATM   23  C   UNL     1      15.556  50.763  47.250  1.00  0.00     0.049 C 
HETATM   24  C   UNL     1      16.177  51.548  44.985  1.00  0.00     0.008 A 
HETATM   25  C   UNL     1      17.000  51.621  43.864  1.00  0.00     0.007 A 
HETATM   26  C   UNL     1      18.220  50.952  43.844  1.00  0.00    -0.061 A 
HETATM   27  C   UNL     1      19.080  50.981  42.612  1.00  0.00     0.048 C 
HETATM   28  C   UNL     1      18.601  50.199  44.961  1.00  0.00     0.017 A 
ENDBRANCH   2  21
BRANCH   1  29
HETATM   29  C   UNL     1      17.038  47.270  47.087  1.00  0.00     0.294 C 
HETATM   30  O   UNL     1      16.362  47.183  48.100  1.00  0.00    -0.259 OA
BRANCH  29  31
HETATM   31  O   UNL     1      16.714  46.909  45.833  1.00  0.00    -0.318 OA
BRANCH  31  32
HETATM   32  C   UNL     1      15.486  47.454  45.315  1.00  0.00     0.174 C 
HETATM   33  C   UNL     1      15.680  47.951  43.896  1.00  0.00     0.034 C 
ENDBRANCH  31  32
ENDBRANCH  29  31
ENDBRANCH   1  29
BRANCH   9  34
HETATM   34  C   UNL     1      19.506  45.625  46.949  1.00  0.00     0.435 C 
HETATM   35  F   UNL     1      20.738  45.104  47.173  1.00  0.00    -0.165 F 
HETATM   36  F   UNL     1      18.673  45.038  47.843  1.00  0.00    -0.165 F 
HETATM   37  F   UNL     1      19.125  45.248  45.707  1.00  0.00    -0.165 F 
ENDBRANCH   9  34
TORSDOF 10
ENDMDL
MODEL 3
REMARK VINA RESULT:      -6.1      3.005      5.286
REMARK  10 active torsions:
REMARK  status: ('A' for Active; 'I' for Inactive)
REMARK    1  A    between atoms: C_2  and  O_3 
REMARK    2  A    between atoms: O_3  and  C_4 
REMARK    3  A    between atoms: C_4  and  C_5 
REMARK    4  A    between atoms: C_6  and  C_7 
REMARK    5  A    between atoms: C_16  and  C_17 
REMARK    6  A    between atoms: C_17  and  C_18 
REMARK       I    between atoms: C_18  and  N_19 
REMARK    7  A    between atoms: N_19  and  C_20 
REMARK    8  A    between atoms: C_20  and  C_21 
REMARK    9  A    between atoms: C_21  and  N_22 
REMARK   10  A    between atoms: C_31  and  C_32 
ROOT
HETATM    1  C   UNL     1      22.678  48.103  48.359  1.00  0.00     0.078 C 
HETATM    2  C   UNL     1      21.378  48.048  47.608  1.00  0.00     0.167 C 
HETATM    3  N   UNL     1      20.977  46.665  47.248  1.00  0.00    -0.318 N 
HETATM    4  C   UNL     1      20.025  46.167  46.525  1.00  0.00     0.011 C 
HETATM    5  C   UNL     1      21.807  45.556  47.938  1.00  0.00     0.170 C 
HETATM    6  S   UNL     1      21.199  43.974  47.586  1.00  0.00    -0.086 SA
HETATM    7  C   UNL     1      19.999  44.657  46.419  1.00  0.00     0.135 C 
HETATM    8  N   UNL     1      22.826  45.743  48.694  1.00  0.00    -0.219 NA
HETATM    9  C   UNL     1      23.326  47.026  48.859  1.00  0.00     0.157 C 
ENDROOT
BRANCH   4  10
HETATM   10  C   UNL     1      18.977  47.003  45.848  1.00  0.00     0.156 C 
BRANCH  10  11
HETATM   11  C   UNL     1      17.627  47.061  46.522  1.00  0.00     0.223 C 
HETATM   12  N   UNL     1      16.676  47.748  45.810  1.00  0.00    -0.359 N 
HETATM   13  H   UNL     1      16.973  48.243  44.970  1.00  0.00     0.162 HD
HETATM   14  O   UNL     1      17.388  46.494  47.586  1.00  0.00    -0.273 OA
BRANCH  12  15
HETATM   15  C   UNL     1      15.358  48.130  46.322  1.00  0.00     0.150 C 
BRANCH  15  16
HETATM   16  C   UNL     1      15.282  49.500  47.029  1.00  0.00     0.253 C 
BRANCH  16  17
HETATM   17  N   UNL     1      15.515  50.660  46.081  1.00  0.00    -0.077 N 
HETATM   18  H   UNL     1      16.454  50.526  45.659  1.00  0.00     0.279 HD
HETATM   19  C   UNL     1      14.535  50.704  44.937  1.00  0.00     0.269 C 
HETATM   20  C   UNL     1      15.531  51.980  46.807  1.00  0.00     0.269 C 
ENDBRANCH  16  17
ENDBRANCH  15  16
ENDBRANCH  12  15
ENDBRANCH  10  11
ENDBRANCH   4  10
BRANCH   2  21
HETATM   21  C   UNL     1      20.238  48.747  48.354  1.00  0.00    -0.024 A 
HETATM   22  C   UNL     1      19.527  49.841  47.804  1.00  0.00    -0.053 A 
HETATM   23  C   UNL     1      19.886  50.523  46.511  1.00  0.00     0.049 C 
HETATM   24  C   UNL     1      18.462  50.399  48.532  1.00  0.00     0.008 A 
HETATM   25  C   UNL     1      18.084  49.888  49.772  1.00  0.00     0.007 A 
HETATM   26  C   UNL     1      18.778  48.821  50.332  1.00  0.00    -0.061 A 
HETATM   27  C   UNL     1      18.409  48.310  51.697  1.00  0.00     0.048 C 
HETATM   28  C   UNL     1      19.865  48.277  49.638  1.00  0.00     0.017 A 
ENDBRANCH   2  21
BRANCH   1  29
HETATM   29  C   UNL     1      23.287  49.448  48.364  1.00  0.00     0.294 C 
HETATM   30  O   UNL     1      23.717  49.944  47.334  1.00  0.00    -0.259 OA
BRANCH  29  31
HETATM   31  O   UNL     1      23.221  49.995  49.590  1.00  0.00    -0.318 OA
BRANCH  31  32
HETATM   32  C   UNL     1      22.501  51.238  49.690  1.00  0.00     0.174 C 
HETATM   33  C   UNL     1      21.521  51.195  50.845  1.00  0.00     0.034 C 
ENDBRANCH  31  32
ENDBRANCH  29  31
ENDBRANCH   1  29
BRANCH   9  34
HETATM   34  C   UNL     1      24.709  47.121  49.541  1.00  0.00     0.435 C 
HETATM   35  F   UNL     1      25.354  45.929  49.522  1.00  0.00    -0.165 F 
HETATM   36  F   UNL     1      25.519  48.006  48.908  1.00  0.00    -0.165 F 
HETATM   37  F   UNL     1      24.595  47.502  50.833  1.00  0.00    -0.165 F 
ENDBRANCH   9  34
TORSDOF 10
ENDMDL
MODEL 4
REMARK VINA RESULT:      -6.1      3.160      4.647
REMARK  10 active torsions:
REMARK  status: ('A' for Active; 'I' for Inactive)
REMARK    1  A    between atoms: C_2  and  O_3 
REMARK    2  A    between atoms: O_3  and  C_4 
REMARK    3  A    between atoms: C_4  and  C_5 
REMARK    4  A    between atoms: C_6  and  C_7 
REMARK    5  A    between atoms: C_16  and  C_17 
REMARK    6  A    between atoms: C_17  and  C_18 
REMARK       I    between atoms: C_18  and  N_19 
REMARK    7  A    between atoms: N_19  and  C_20 
REMARK    8  A    between atoms: C_20  and  C_21 
REMARK    9  A    between atoms: C_21  and  N_22 
REMARK   10  A    between atoms: C_31  and  C_32 
ROOT
HETATM    1  C   UNL     1      20.204  48.885  47.900  1.00  0.00     0.078 C 
HETATM    2  C   UNL     1      18.731  48.610  47.799  1.00  0.00     0.167 C 
HETATM    3  N   UNL     1      17.898  49.768  48.213  1.00  0.00    -0.318 N 
HETATM    4  C   UNL     1      16.626  49.940  48.391  1.00  0.00     0.011 C 
HETATM    5  C   UNL     1      18.682  51.090  48.394  1.00  0.00     0.170 C 
HETATM    6  S   UNL     1      17.635  52.425  48.738  1.00  0.00    -0.086 SA
HETATM    7  C   UNL     1      16.205  51.324  48.839  1.00  0.00     0.135 C 
HETATM    8  N   UNL     1      19.954  51.225  48.304  1.00  0.00    -0.219 NA
HETATM    9  C   UNL     1      20.749  50.102  48.127  1.00  0.00     0.157 C 
ENDROOT
BRANCH   4  10
HETATM   10  C   UNL     1      15.605  48.866  48.147  1.00  0.00     0.156 C 
BRANCH  10  11
HETATM   11  C   UNL     1      14.897  48.906  46.813  1.00  0.00     0.223 C 
HETATM   12  N   UNL     1      15.224  49.992  46.041  1.00  0.00    -0.359 N 
HETATM   13  H   UNL     1      15.807  50.718  46.456  1.00  0.00     0.162 HD
HETATM   14  O   UNL     1      14.142  48.015  46.432  1.00  0.00    -0.273 OA
BRANCH  12  15
HETATM   15  C   UNL     1      14.536  50.381  44.807  1.00  0.00     0.150 C 
BRANCH  15  16
HETATM   16  C   UNL     1      14.925  51.757  44.224  1.00  0.00     0.253 C 
BRANCH  16  17
HETATM   17  N   UNL     1      15.624  52.643  45.237  1.00  0.00    -0.077 N 
HETATM   18  H   UNL     1      15.599  52.146  46.148  1.00  0.00     0.279 HD
HETATM   19  C   UNL     1      17.078  52.881  44.920  1.00  0.00     0.269 C 
HETATM   20  C   UNL     1      14.908  53.956  45.419  1.00  0.00     0.269 C 
ENDBRANCH  16  17
ENDBRANCH  15  16
ENDBRANCH  12  15
ENDBRANCH  10  11
ENDBRANCH   4  10
BRANCH   2  21
HETATM   21  C   UNL     1      18.315  48.137  46.404  1.00  0.00    -0.024 A 
HETATM   22  C   UNL     1      17.757  46.857  46.170  1.00  0.00    -0.053 A 
HETATM   23  C   UNL     1      17.636  45.779  47.215  1.00  0.00     0.049 C 
HETATM   24  C   UNL     1      17.357  46.513  44.867  1.00  0.00     0.008 A 
HETATM   25  C   UNL     1      17.484  47.411  43.809  1.00  0.00     0.007 A 
HETATM   26  C   UNL     1      18.040  48.669  44.018  1.00  0.00    -0.061 A 
HETATM   27  C   UNL     1      18.233  49.613  42.865  1.00  0.00     0.048 C 
HETATM   28  C   UNL     1      18.477  49.014  45.302  1.00  0.00     0.017 A 
ENDBRANCH   2  21
BRANCH   1  29
HETATM   29  C   UNL     1      21.023  47.656  47.894  1.00  0.00     0.294 C 
HETATM   30  O   UNL     1      21.168  46.996  48.911  1.00  0.00    -0.259 OA
BRANCH  29  31
HETATM   31  O   UNL     1      21.478  47.394  46.657  1.00  0.00    -0.318 OA
BRANCH  31  32
HETATM   32  C   UNL     1      21.432  46.016  46.245  1.00  0.00     0.174 C 
HETATM   33  C   UNL     1      21.044  45.908  44.783  1.00  0.00     0.034 C 
ENDBRANCH  31  32
ENDBRANCH  29  31
ENDBRANCH   1  29
BRANCH   9  34
HETATM   34  C   UNL     1      22.265  50.321  48.318  1.00  0.00     0.435 C 
HETATM   35  F   UNL     1      22.959  49.985  47.203  1.00  0.00    -0.165 F 
HETATM   36  F   UNL     1      22.555  51.621  48.573  1.00  0.00    -0.165 F 
HETATM   37  F   UNL     1      22.746  49.573  49.337  1.00  0.00    -0.165 F 
ENDBRANCH   9  34
TORSDOF 10
ENDMDL
MODEL 5
REMARK VINA RESULT:      -6.0      3.551      5.569
REMARK  10 active torsions:
REMARK  status: ('A' for Active; 'I' for Inactive)
REMARK    1  A    between atoms: C_2  and  O_3 
REMARK    2  A    between atoms: O_3  and  C_4 
REMARK    3  A    between atoms: C_4  and  C_5 
REMARK    4  A    between atoms: C_6  and  C_7 
REMARK    5  A    between atoms: C_16  and  C_17 
REMARK    6  A    between atoms: C_17  and  C_18 
REMARK       I    between atoms: C_18  and  N_19 
REMARK    7  A    between atoms: N_19  and  C_20 
REMARK    8  A    between atoms: C_20  and  C_21 
REMARK    9  A    between atoms: C_21  and  N_22 
REMARK   10  A    between atoms: C_31  and  C_32 
ROOT
HETATM    1  C   UNL     1      20.246  48.724  48.063  1.00  0.00     0.078 C 
HETATM    2  C   UNL     1      18.771  48.522  47.869  1.00  0.00     0.167 C 
HETATM    3  N   UNL     1      17.965  49.685  48.317  1.00  0.00    -0.318 N 
HETATM    4  C   UNL     1      16.694  49.903  48.440  1.00  0.00     0.011 C 
HETATM    5  C   UNL     1      18.791  50.956  48.628  1.00  0.00     0.170 C 
HETATM    6  S   UNL     1      17.784  52.311  49.007  1.00  0.00    -0.086 SA
HETATM    7  C   UNL     1      16.306  51.271  48.960  1.00  0.00     0.135 C 
HETATM    8  N   UNL     1      20.071  51.041  48.612  1.00  0.00    -0.219 NA
HETATM    9  C   UNL     1      20.827  49.897  48.400  1.00  0.00     0.157 C 
ENDROOT
BRANCH   4  10
HETATM   10  C   UNL     1      15.643  48.894  48.072  1.00  0.00     0.156 C 
BRANCH  10  11
HETATM   11  C   UNL     1      15.031  49.036  46.699  1.00  0.00     0.223 C 
HETATM   12  N   UNL     1      14.459  47.884  46.221  1.00  0.00    -0.359 N 
HETATM   13  H   UNL     1      14.588  47.027  46.758  1.00  0.00     0.162 HD
HETATM   14  O   UNL     1      14.998  50.103  46.090  1.00  0.00    -0.273 OA
BRANCH  12  15
HETATM   15  C   UNL     1      13.986  47.689  44.849  1.00  0.00     0.150 C 
BRANCH  15  16
HETATM   16  C   UNL     1      12.730  46.806  44.688  1.00  0.00     0.253 C 
BRANCH  16  17
HETATM   17  N   UNL     1      13.068  45.345  44.469  1.00  0.00    -0.077 N 
HETATM   18  H   UNL     1      13.313  44.946  45.396  1.00  0.00     0.279 HD
HETATM   19  C   UNL     1      11.909  44.534  43.948  1.00  0.00     0.269 C 
HETATM   20  C   UNL     1      14.268  45.177  43.574  1.00  0.00     0.269 C 
ENDBRANCH  16  17
ENDBRANCH  15  16
ENDBRANCH  12  15
ENDBRANCH  10  11
ENDBRANCH   4  10
BRANCH   2  21
HETATM   21  C   UNL     1      18.412  48.161  46.425  1.00  0.00    -0.024 A 
HETATM   22  C   UNL     1      17.936  46.879  46.057  1.00  0.00    -0.053 A 
HETATM   23  C   UNL     1      17.858  45.701  46.993  1.00  0.00     0.049 C 
HETATM   24  C   UNL     1      17.584  46.638  44.718  1.00  0.00     0.008 A 
HETATM   25  C   UNL     1      17.678  47.638  43.752  1.00  0.00     0.007 A 
HETATM   26  C   UNL     1      18.153  48.901  44.093  1.00  0.00    -0.061 A 
HETATM   27  C   UNL     1      18.313  49.960  43.040  1.00  0.00     0.048 C 
HETATM   28  C   UNL     1      18.544  49.146  45.415  1.00  0.00     0.017 A 
ENDBRANCH   2  21
BRANCH   1  29
HETATM   29  C   UNL     1      21.013  47.462  48.016  1.00  0.00     0.294 C 
HETATM   30  O   UNL     1      20.977  46.673  48.947  1.00  0.00    -0.259 OA
BRANCH  29  31
HETATM   31  O   UNL     1      21.643  47.333  46.835  1.00  0.00    -0.318 OA
BRANCH  31  32
HETATM   32  C   UNL     1      21.878  45.986  46.387  1.00  0.00     0.174 C 
HETATM   33  C   UNL     1      21.207  45.743  45.050  1.00  0.00     0.034 C 
ENDBRANCH  31  32
ENDBRANCH  29  31
ENDBRANCH   1  29
BRANCH   9  34
HETATM   34  C   UNL     1      22.339  50.035  48.683  1.00  0.00     0.435 C 
HETATM   35  F   UNL     1      22.767  49.095  49.561  1.00  0.00    -0.165 F 
HETATM   36  F   UNL     1      23.076  49.871  47.556  1.00  0.00    -0.165 F 
HETATM   37  F   UNL     1      22.633  51.246  49.208  1.00  0.00    -0.165 F 
ENDBRANCH   9  34
TORSDOF 10
ENDMDL
MODEL 6
REMARK VINA RESULT:      -6.0      3.007      5.240
REMARK  10 active torsions:
REMARK  status: ('A' for Active; 'I' for Inactive)
REMARK    1  A    between atoms: C_2  and  O_3 
REMARK    2  A    between atoms: O_3  and  C_4 
REMARK    3  A    between atoms: C_4  and  C_5 
REMARK    4  A    between atoms: C_6  and  C_7 
REMARK    5  A    between atoms: C_16  and  C_17 
REMARK    6  A    between atoms: C_17  and  C_18 
REMARK       I    between atoms: C_18  and  N_19 
REMARK    7  A    between atoms: N_19  and  C_20 
REMARK    8  A    between atoms: C_20  and  C_21 
REMARK    9  A    between atoms: C_21  and  N_22 
REMARK   10  A    between atoms: C_31  and  C_32 
ROOT
HETATM    1  C   UNL     1      22.900  47.448  48.670  1.00  0.00     0.078 C 
HETATM    2  C   UNL     1      21.751  48.007  47.881  1.00  0.00     0.167 C 
HETATM    3  N   UNL     1      20.970  46.958  47.178  1.00  0.00    -0.318 N 
HETATM    4  C   UNL     1      19.999  46.986  46.321  1.00  0.00     0.011 C 
HETATM    5  C   UNL     1      21.309  45.510  47.606  1.00  0.00     0.170 C 
HETATM    6  S   UNL     1      20.269  44.349  46.855  1.00  0.00    -0.086 SA
HETATM    7  C   UNL     1      19.499  45.637  45.847  1.00  0.00     0.135 C 
HETATM    8  N   UNL     1      22.237  45.168  48.423  1.00  0.00    -0.219 NA
HETATM    9  C   UNL     1      23.103  46.134  48.915  1.00  0.00     0.157 C 
ENDROOT
BRANCH   4  10
HETATM   10  C   UNL     1      19.365  48.256  45.831  1.00  0.00     0.156 C 
BRANCH  10  11
HETATM   11  C   UNL     1      18.091  48.680  46.523  1.00  0.00     0.223 C 
HETATM   12  N   UNL     1      17.845  50.028  46.460  1.00  0.00    -0.359 N 
HETATM   13  H   UNL     1      18.567  50.630  46.067  1.00  0.00     0.162 HD
HETATM   14  O   UNL     1      17.319  47.880  47.046  1.00  0.00    -0.273 OA
BRANCH  12  15
HETATM   15  C   UNL     1      16.803  50.726  47.217  1.00  0.00     0.150 C 
BRANCH  15  16
HETATM   16  C   UNL     1      16.876  52.268  47.201  1.00  0.00     0.253 C 
BRANCH  16  17
HETATM   17  N   UNL     1      16.098  52.877  46.052  1.00  0.00    -0.077 N 
HETATM   18  H   UNL     1      15.784  53.818  46.359  1.00  0.00     0.279 HD
HETATM   19  C   UNL     1      16.928  53.088  44.812  1.00  0.00     0.269 C 
HETATM   20  C   UNL     1      14.865  52.075  45.725  1.00  0.00     0.269 C 
ENDBRANCH  16  17
ENDBRANCH  15  16
ENDBRANCH  12  15
ENDBRANCH  10  11
ENDBRANCH   4  10
BRANCH   2  21
HETATM   21  C   UNL     1      20.819  48.872  48.733  1.00  0.00    -0.024 A 
HETATM   22  C   UNL     1      20.767  50.282  48.611  1.00  0.00    -0.053 A 
HETATM   23  C   UNL     1      21.698  51.095  47.751  1.00  0.00     0.049 C 
HETATM   24  C   UNL     1      19.851  51.003  49.396  1.00  0.00     0.008 A 
HETATM   25  C   UNL     1      18.985  50.359  50.276  1.00  0.00     0.007 A 
HETATM   26  C   UNL     1      19.028  48.975  50.417  1.00  0.00    -0.061 A 
HETATM   27  C   UNL     1      18.137  48.286  51.411  1.00  0.00     0.048 C 
HETATM   28  C   UNL     1      19.960  48.245  49.670  1.00  0.00     0.017 A 
ENDBRANCH   2  21
BRANCH   1  29
HETATM   29  C   UNL     1      23.907  48.469  49.027  1.00  0.00     0.294 C 
HETATM   30  O   UNL     1      24.095  48.781  50.192  1.00  0.00    -0.259 OA
BRANCH  29  31
HETATM   31  O   UNL     1      24.559  48.895  47.932  1.00  0.00    -0.318 OA
BRANCH  31  32
HETATM   32  C   UNL     1      25.481  49.983  48.128  1.00  0.00     0.174 C 
HETATM   33  C   UNL     1      26.834  49.463  48.573  1.00  0.00     0.034 C 
ENDBRANCH  31  32
ENDBRANCH  29  31
ENDBRANCH   1  29
BRANCH   9  34
HETATM   34  C   UNL     1      24.351  45.599  49.650  1.00  0.00     0.435 C 
HETATM   35  F   UNL     1      24.475  44.257  49.506  1.00  0.00    -0.165 F 
HETATM   36  F   UNL     1      25.492  46.144  49.159  1.00  0.00    -0.165 F 
HETATM   37  F   UNL     1      24.293  45.863  50.975  1.00  0.00    -0.165 F 
ENDBRANCH   9  34
TORSDOF 10
ENDMDL
MODEL 7
REMARK VINA RESULT:      -5.9      3.522      6.099
REMARK  10 active torsions:
REMARK  status: ('A' for Active; 'I' for Inactive)
REMARK    1  A    between atoms: C_2  and  O_3 
REMARK    2  A    between atoms: O_3  and  C_4 
REMARK    3  A    between atoms: C_4  and  C_5 
REMARK    4  A    between atoms: C_6  and  C_7 
REMARK    5  A    between atoms: C_16  and  C_17 
REMARK    6  A    between atoms: C_17  and  C_18 
REMARK       I    between atoms: C_18  and  N_19 
REMARK    7  A    between atoms: N_19  and  C_20 
REMARK    8  A    between atoms: C_20  and  C_21 
REMARK    9  A    between atoms: C_21  and  N_22 
REMARK   10  A    between atoms: C_31  and  C_32 
ROOT
HETATM    1  C   UNL     1      22.744  48.078  48.363  1.00  0.00     0.078 C 
HETATM    2  C   UNL     1      21.490  48.063  47.536  1.00  0.00     0.167 C 
HETATM    3  N   UNL     1      21.096  46.696  47.110  1.00  0.00    -0.318 N 
HETATM    4  C   UNL     1      20.183  46.231  46.318  1.00  0.00     0.011 C 
HETATM    5  C   UNL     1      21.872  45.556  47.814  1.00  0.00     0.170 C 
HETATM    6  S   UNL     1      21.270  43.993  47.378  1.00  0.00    -0.086 SA
HETATM    7  C   UNL     1      20.148  44.725  46.164  1.00  0.00     0.135 C 
HETATM    8  N   UNL     1      22.847  45.708  48.634  1.00  0.00    -0.219 NA
HETATM    9  C   UNL     1      23.350  46.980  48.867  1.00  0.00     0.157 C 
ENDROOT
BRANCH   4  10
HETATM   10  C   UNL     1      19.186  47.100  45.606  1.00  0.00     0.156 C 
BRANCH  10  11
HETATM   11  C   UNL     1      17.767  47.052  46.123  1.00  0.00     0.223 C 
HETATM   12  N   UNL     1      16.815  47.264  45.158  1.00  0.00    -0.359 N 
HETATM   13  H   UNL     1      17.129  47.539  44.227  1.00  0.00     0.162 HD
HETATM   14  O   UNL     1      17.491  46.792  47.291  1.00  0.00    -0.273 OA
BRANCH  12  15
HETATM   15  C   UNL     1      15.389  47.476  45.418  1.00  0.00     0.150 C 
BRANCH  15  16
HETATM   16  C   UNL     1      14.433  47.126  44.258  1.00  0.00     0.253 C 
BRANCH  16  17
HETATM   17  N   UNL     1      13.576  45.911  44.555  1.00  0.00    -0.077 N 
HETATM   18  H   UNL     1      13.867  45.551  45.484  1.00  0.00     0.279 HD
HETATM   19  C   UNL     1      12.106  46.227  44.660  1.00  0.00     0.269 C 
HETATM   20  C   UNL     1      13.804  44.809  43.553  1.00  0.00     0.269 C 
ENDBRANCH  16  17
ENDBRANCH  15  16
ENDBRANCH  12  15
ENDBRANCH  10  11
ENDBRANCH   4  10
BRANCH   2  21
HETATM   21  C   UNL     1      20.316  48.752  48.235  1.00  0.00    -0.024 A 
HETATM   22  C   UNL     1      19.606  49.827  47.647  1.00  0.00    -0.053 A 
HETATM   23  C   UNL     1      19.997  50.499  46.357  1.00  0.00     0.049 C 
HETATM   24  C   UNL     1      18.509  50.379  48.332  1.00  0.00     0.008 A 
HETATM   25  C   UNL     1      18.098  49.878  49.565  1.00  0.00     0.007 A 
HETATM   26  C   UNL     1      18.790  48.829  50.163  1.00  0.00    -0.061 A 
HETATM   27  C   UNL     1      18.385  48.330  51.521  1.00  0.00     0.048 C 
HETATM   28  C   UNL     1      19.907  48.293  49.512  1.00  0.00     0.017 A 
ENDBRANCH   2  21
BRANCH   1  29
HETATM   29  C   UNL     1      23.366  49.416  48.444  1.00  0.00     0.294 C 
HETATM   30  O   UNL     1      23.886  49.924  47.464  1.00  0.00    -0.259 OA
BRANCH  29  31
HETATM   31  O   UNL     1      23.203  49.941  49.670  1.00  0.00    -0.318 OA
BRANCH  31  32
HETATM   32  C   UNL     1      22.513  51.203  49.732  1.00  0.00     0.174 C 
HETATM   33  C   UNL     1      21.480  51.193  50.841  1.00  0.00     0.034 C 
ENDBRANCH  31  32
ENDBRANCH  29  31
ENDBRANCH   1  29
BRANCH   9  34
HETATM   34  C   UNL     1      24.691  47.037  49.631  1.00  0.00     0.435 C 
HETATM   35  F   UNL     1      24.515  47.445  50.911  1.00  0.00    -0.165 F 
HETATM   36  F   UNL     1      25.283  45.819  49.694  1.00  0.00    -0.165 F 
HETATM   37  F   UNL     1      25.555  47.896  49.045  1.00  0.00    -0.165 F 
ENDBRANCH   9  34
TORSDOF 10
ENDMDL
MODEL 8
REMARK VINA RESULT:      -5.9      3.875      7.339
REMARK  10 active torsions:
REMARK  status: ('A' for Active; 'I' for Inactive)
REMARK    1  A    between atoms: C_2  and  O_3 
REMARK    2  A    between atoms: O_3  and  C_4 
REMARK    3  A    between atoms: C_4  and  C_5 
REMARK    4  A    between atoms: C_6  and  C_7 
REMARK    5  A    between atoms: C_16  and  C_17 
REMARK    6  A    between atoms: C_17  and  C_18 
REMARK       I    between atoms: C_18  and  N_19 
REMARK    7  A    between atoms: N_19  and  C_20 
REMARK    8  A    between atoms: C_20  and  C_21 
REMARK    9  A    between atoms: C_21  and  N_22 
REMARK   10  A    between atoms: C_31  and  C_32 
ROOT
HETATM    1  C   UNL     1      17.241  50.397  45.784  1.00  0.00     0.078 C 
HETATM    2  C   UNL     1      17.557  49.028  46.316  1.00  0.00     0.167 C 
HETATM    3  N   UNL     1      18.022  48.092  45.261  1.00  0.00    -0.318 N 
HETATM    4  C   UNL     1      18.287  46.824  45.240  1.00  0.00     0.011 C 
HETATM    5  C   UNL     1      18.350  48.764  43.906  1.00  0.00     0.170 C 
HETATM    6  S   UNL     1      19.017  47.643  42.769  1.00  0.00    -0.086 SA
HETATM    7  C   UNL     1      18.733  46.266  43.905  1.00  0.00     0.135 C 
HETATM    8  N   UNL     1      18.170  50.002  43.620  1.00  0.00    -0.219 NA
HETATM    9  C   UNL     1      17.539  50.829  44.537  1.00  0.00     0.157 C 
ENDROOT
BRANCH   4  10
HETATM   10  C   UNL     1      18.197  45.941  46.452  1.00  0.00     0.156 C 
BRANCH  10  11
HETATM   11  C   UNL     1      19.503  45.396  46.981  1.00  0.00     0.223 C 
HETATM   12  N   UNL     1      20.564  46.253  46.834  1.00  0.00    -0.359 N 
HETATM   13  H   UNL     1      20.420  47.108  46.298  1.00  0.00     0.162 HD
HETATM   14  O   UNL     1      19.592  44.307  47.543  1.00  0.00    -0.273 OA
BRANCH  12  15
HETATM   15  C   UNL     1      21.966  45.898  47.067  1.00  0.00     0.150 C 
BRANCH  15  16
HETATM   16  C   UNL     1      22.594  46.449  48.366  1.00  0.00     0.253 C 
BRANCH  16  17
HETATM   17  N   UNL     1      22.928  45.356  49.362  1.00  0.00    -0.077 N 
HETATM   18  H   UNL     1      22.260  45.448  50.151  1.00  0.00     0.279 HD
HETATM   19  C   UNL     1      22.748  43.967  48.808  1.00  0.00     0.269 C 
HETATM   20  C   UNL     1      24.316  45.519  49.925  1.00  0.00     0.269 C 
ENDBRANCH  16  17
ENDBRANCH  15  16
ENDBRANCH  12  15
ENDBRANCH  10  11
ENDBRANCH   4  10
BRANCH   2  21
HETATM   21  C   UNL     1      18.566  49.064  47.467  1.00  0.00    -0.024 A 
HETATM   22  C   UNL     1      18.308  48.464  48.723  1.00  0.00    -0.053 A 
HETATM   23  C   UNL     1      16.988  47.855  49.118  1.00  0.00     0.049 C 
HETATM   24  C   UNL     1      19.303  48.498  49.715  1.00  0.00     0.008 A 
HETATM   25  C   UNL     1      20.540  49.094  49.480  1.00  0.00     0.007 A 
HETATM   26  C   UNL     1      20.808  49.698  48.255  1.00  0.00    -0.061 A 
HETATM   27  C   UNL     1      22.119  50.394  48.024  1.00  0.00     0.048 C 
HETATM   28  C   UNL     1      19.814  49.705  47.270  1.00  0.00     0.017 A 
ENDBRANCH   2  21
BRANCH   1  29
HETATM   29  C   UNL     1      16.409  51.197  46.705  1.00  0.00     0.294 C 
HETATM   30  O   UNL     1      15.199  51.039  46.753  1.00  0.00    -0.259 OA
BRANCH  29  31
HETATM   31  O   UNL     1      17.175  52.006  47.456  1.00  0.00    -0.318 OA
BRANCH  31  32
HETATM   32  C   UNL     1      16.904  52.003  48.870  1.00  0.00     0.174 C 
HETATM   33  C   UNL     1      18.186  52.173  49.660  1.00  0.00     0.034 C 
ENDBRANCH  31  32
ENDBRANCH  29  31
ENDBRANCH   1  29
BRANCH   9  34
HETATM   34  C   UNL     1      17.109  52.212  44.003  1.00  0.00     0.435 C 
HETATM   35  F   UNL     1      17.506  53.209  44.831  1.00  0.00    -0.165 F 
HETATM   36  F   UNL     1      17.661  52.475  42.793  1.00  0.00    -0.165 F 
HETATM   37  F   UNL     1      15.765  52.296  43.880  1.00  0.00    -0.165 F 
ENDBRANCH   9  34
TORSDOF 10
ENDMDL
MODEL 9
REMARK VINA RESULT:      -5.8     24.342     27.503
REMARK  10 active torsions:
REMARK  status: ('A' for Active; 'I' for Inactive)
REMARK    1  A    between atoms: C_2  and  O_3 
REMARK    2  A    between atoms: O_3  and  C_4 
REMARK    3  A    between atoms: C_4  and  C_5 
REMARK    4  A    between atoms: C_6  and  C_7 
REMARK    5  A    between atoms: C_16  and  C_17 
REMARK    6  A    between atoms: C_17  and  C_18 
REMARK       I    between atoms: C_18  and  N_19 
REMARK    7  A    between atoms: N_19  and  C_20 
REMARK    8  A    between atoms: C_20  and  C_21 
REMARK    9  A    between atoms: C_21  and  N_22 
REMARK   10  A    between atoms: C_31  and  C_32 
ROOT
HETATM    1  C   UNL     1      36.390  44.007  66.555  1.00  0.00     0.078 C 
HETATM    2  C   UNL     1      37.821  44.432  66.389  1.00  0.00     0.167 C 
HETATM    3  N   UNL     1      38.546  43.635  65.368  1.00  0.00    -0.318 N 
HETATM    4  C   UNL     1      39.783  43.576  64.987  1.00  0.00     0.011 C 
HETATM    5  C   UNL     1      37.640  42.734  64.496  1.00  0.00     0.170 C 
HETATM    6  S   UNL     1      38.526  41.942  63.238  1.00  0.00    -0.086 SA
HETATM    7  C   UNL     1      40.087  42.582  63.886  1.00  0.00     0.135 C 
HETATM    8  N   UNL     1      36.376  42.569  64.649  1.00  0.00    -0.219 NA
HETATM    9  C   UNL     1      35.740  43.151  65.735  1.00  0.00     0.157 C 
ENDROOT
BRANCH   4  10
HETATM   10  C   UNL     1      40.866  44.445  65.560  1.00  0.00     0.156 C 
BRANCH  10  11
HETATM   11  C   UNL     1      41.566  45.368  64.590  1.00  0.00     0.223 C 
HETATM   12  N   UNL     1      42.899  45.090  64.419  1.00  0.00    -0.359 N 
HETATM   13  H   UNL     1      43.322  44.385  65.021  1.00  0.00     0.162 HD
HETATM   14  O   UNL     1      40.980  46.251  63.969  1.00  0.00    -0.273 OA
BRANCH  12  15
HETATM   15  C   UNL     1      43.849  45.947  63.707  1.00  0.00     0.150 C 
BRANCH  15  16
HETATM   16  C   UNL     1      45.202  46.186  64.412  1.00  0.00     0.253 C 
BRANCH  16  17
HETATM   17  N   UNL     1      45.269  47.533  65.104  1.00  0.00    -0.077 N 
HETATM   18  H   UNL     1      44.862  48.232  64.453  1.00  0.00     0.279 HD
HETATM   19  C   UNL     1      44.451  47.598  66.368  1.00  0.00     0.269 C 
HETATM   20  C   UNL     1      46.690  47.949  65.380  1.00  0.00     0.269 C 
ENDBRANCH  16  17
ENDBRANCH  15  16
ENDBRANCH  12  15
ENDBRANCH  10  11
ENDBRANCH   4  10
BRANCH   2  21
HETATM   21  C   UNL     1      37.960  45.926  66.083  1.00  0.00    -0.024 A 
HETATM   22  C   UNL     1      38.730  46.799  66.889  1.00  0.00    -0.053 A 
HETATM   23  C   UNL     1      39.377  46.405  68.191  1.00  0.00     0.049 C 
HETATM   24  C   UNL     1      38.846  48.150  66.516  1.00  0.00     0.008 A 
HETATM   25  C   UNL     1      38.234  48.639  65.365  1.00  0.00     0.007 A 
HETATM   26  C   UNL     1      37.464  47.798  64.567  1.00  0.00    -0.061 A 
HETATM   27  C   UNL     1      36.754  48.340  63.359  1.00  0.00     0.048 C 
HETATM   28  C   UNL     1      37.308  46.459  64.944  1.00  0.00     0.017 A 
ENDBRANCH   2  21
BRANCH   1  29
HETATM   29  C   UNL     1      35.787  44.488  67.814  1.00  0.00     0.294 C 
HETATM   30  O   UNL     1      36.022  43.929  68.874  1.00  0.00    -0.259 OA
BRANCH  29  31
HETATM   31  O   UNL     1      35.054  45.594  67.598  1.00  0.00    -0.318 OA
BRANCH  31  32
HETATM   32  C   UNL     1      35.304  46.702  68.482  1.00  0.00     0.174 C 
HETATM   33  C   UNL     1      35.299  48.009  67.714  1.00  0.00     0.034 C 
ENDBRANCH  31  32
ENDBRANCH  29  31
ENDBRANCH   1  29
BRANCH   9  34
HETATM   34  C   UNL     1      34.297  42.669  66.000  1.00  0.00     0.435 C 
HETATM   35  F   UNL     1      34.062  41.466  65.420  1.00  0.00    -0.165 F 
HETATM   36  F   UNL     1      34.058  42.509  67.325  1.00  0.00    -0.165 F 
HETATM   37  F   UNL     1      33.388  43.542  65.509  1.00  0.00    -0.165 F 
ENDBRANCH   9  34
TORSDOF 10
ENDMDL
MODEL 10
REMARK VINA RESULT:      -5.8     12.029     14.605
REMARK  10 active torsions:
REMARK  status: ('A' for Active; 'I' for Inactive)
REMARK    1  A    between atoms: C_2  and  O_3 
REMARK    2  A    between atoms: O_3  and  C_4 
REMARK    3  A    between atoms: C_4  and  C_5 
REMARK    4  A    between atoms: C_6  and  C_7 
REMARK    5  A    between atoms: C_16  and  C_17 
REMARK    6  A    between atoms: C_17  and  C_18 
REMARK       I    between atoms: C_18  and  N_19 
REMARK    7  A    between atoms: N_19  and  C_20 
REMARK    8  A    between atoms: C_20  and  C_21 
REMARK    9  A    between atoms: C_21  and  N_22 
REMARK   10  A    between atoms: C_31  and  C_32 
ROOT
HETATM    1  C   UNL     1      28.709  48.064  40.232  1.00  0.00     0.078 C 
HETATM    2  C   UNL     1      29.315  49.303  40.827  1.00  0.00     0.167 C 
HETATM    3  N   UNL     1      30.701  49.090  41.316  1.00  0.00    -0.318 N 
HETATM    4  C   UNL     1      31.540  49.819  41.981  1.00  0.00     0.011 C 
HETATM    5  C   UNL     1      31.336  47.748  40.878  1.00  0.00     0.170 C 
HETATM    6  S   UNL     1      32.994  47.625  41.360  1.00  0.00    -0.086 SA
HETATM    7  C   UNL     1      32.878  49.177  42.280  1.00  0.00     0.135 C 
HETATM    8  N   UNL     1      30.743  46.815  40.227  1.00  0.00    -0.219 NA
HETATM    9  C   UNL     1      29.388  46.928  39.957  1.00  0.00     0.157 C 
ENDROOT
BRANCH   4  10
HETATM   10  C   UNL     1      31.247  51.226  42.417  1.00  0.00     0.156 C 
BRANCH  10  11
HETATM   11  C   UNL     1      31.693  52.323  41.479  1.00  0.00     0.223 C 
HETATM   12  N   UNL     1      32.610  51.918  40.543  1.00  0.00    -0.359 N 
HETATM   13  H   UNL     1      32.991  50.976  40.622  1.00  0.00     0.162 HD
HETATM   14  O   UNL     1      31.230  53.461  41.516  1.00  0.00    -0.273 OA
BRANCH  12  15
HETATM   15  C   UNL     1      33.356  52.815  39.656  1.00  0.00     0.150 C 
BRANCH  15  16
HETATM   16  C   UNL     1      34.885  52.608  39.619  1.00  0.00     0.253 C 
BRANCH  16  17
HETATM   17  N   UNL     1      35.653  53.851  40.023  1.00  0.00    -0.077 N 
HETATM   18  H   UNL     1      35.279  54.156  40.942  1.00  0.00     0.279 HD
HETATM   19  C   UNL     1      37.127  53.607  40.221  1.00  0.00     0.269 C 
HETATM   20  C   UNL     1      35.436  54.981  39.051  1.00  0.00     0.269 C 
ENDBRANCH  16  17
ENDBRANCH  15  16
ENDBRANCH  12  15
ENDBRANCH  10  11
ENDBRANCH   4  10
BRANCH   2  21
HETATM   21  C   UNL     1      29.275  50.496  39.868  1.00  0.00    -0.024 A 
HETATM   22  C   UNL     1      28.435  51.615  40.082  1.00  0.00    -0.053 A 
HETATM   23  C   UNL     1      27.402  51.706  41.174  1.00  0.00     0.049 C 
HETATM   24  C   UNL     1      28.489  52.693  39.180  1.00  0.00     0.008 A 
HETATM   25  C   UNL     1      29.363  52.687  38.095  1.00  0.00     0.007 A 
HETATM   26  C   UNL     1      30.189  51.591  37.864  1.00  0.00    -0.061 A 
HETATM   27  C   UNL     1      31.085  51.559  36.659  1.00  0.00     0.048 C 
HETATM   28  C   UNL     1      30.120  50.494  38.730  1.00  0.00     0.017 A 
ENDBRANCH   2  21
BRANCH   1  29
HETATM   29  C   UNL     1      27.237  48.136  40.123  1.00  0.00     0.294 C 
HETATM   30  O   UNL     1      26.534  48.113  41.121  1.00  0.00    -0.259 OA
BRANCH  29  31
HETATM   31  O   UNL     1      26.863  48.287  38.841  1.00  0.00    -0.318 OA
BRANCH  31  32
HETATM   32  C   UNL     1      25.724  49.136  38.610  1.00  0.00     0.174 C 
HETATM   33  C   UNL     1      26.121  50.350  37.793  1.00  0.00     0.034 C 
ENDBRANCH  31  32
ENDBRANCH  29  31
ENDBRANCH   1  29
BRANCH   9  34
HETATM   34  C   UNL     1      28.703  45.646  39.434  1.00  0.00     0.435 C 
HETATM   35  F   UNL     1      29.585  44.624  39.319  1.00  0.00    -0.165 F 
HETATM   36  F   UNL     1      27.729  45.220  40.277  1.00  0.00    -0.165 F 
HETATM   37  F   UNL     1      28.149  45.845  38.217  1.00  0.00    -0.165 F 
ENDBRANCH   9  34
TORSDOF 10
ENDMDL
