MODEL 1
REMARK VINA RESULT:      -8.2      0.000      0.000
REMARK  6 active torsions:
REMARK  status: ('A' for Active; 'I' for Inactive)
REMARK    1  A    between atoms: C_2  and  C_3 
REMARK    2  A    between atoms: C_3  and  N_4 
REMARK    3  A    between atoms: C_3  and  C_17 
REMARK    4  A    between atoms: N_4  and  C_5 
REMARK    5  A    between atoms: C_5  and  C_6 
REMARK       I    between atoms: C_6  and  N_7 
REMARK    6  A    between atoms: N_7  and  C_8 
ROOT
HETATM    1  N   UNL     1      27.417  42.406  53.607  1.00  0.00     0.101 N 
HETATM    2  H   UNL     1      26.568  42.357  53.042  1.00  0.00     0.317 HD
ENDROOT
BRANCH   1   3
HETATM    3  C   UNL     1      28.157  43.631  53.236  1.00  0.00     0.256 C 
BRANCH   3   4
HETATM    4  C   UNL     1      27.342  44.582  52.320  1.00  0.00     0.036 C 
HETATM    5  C   UNL     1      27.415  44.275  50.826  1.00  0.00     0.007 C 
ENDBRANCH   3   4
BRANCH   3   6
HETATM    6  C   UNL     1      28.682  44.372  54.462  1.00  0.00     0.013 A 
HETATM    7  C   UNL     1      29.939  44.015  54.982  1.00  0.00     0.127 A 
HETATM    8  F   UNL     1      30.638  43.026  54.406  1.00  0.00    -0.205 F 
HETATM    9  C   UNL     1      30.493  44.662  56.080  1.00  0.00     0.085 A 
HETATM   10  C   UNL     1      29.779  45.684  56.684  1.00  0.00     0.119 A 
HETATM   11  F   UNL     1      30.299  46.318  57.743  1.00  0.00    -0.206 F 
HETATM   12  C   UNL     1      28.531  46.066  56.204  1.00  0.00     0.043 A 
HETATM   13  C   UNL     1      27.983  45.415  55.095  1.00  0.00     0.015 A 
ENDBRANCH   3   6
ENDBRANCH   1   3
BRANCH   1  14
HETATM   14  C   UNL     1      28.209  41.183  53.337  1.00  0.00     0.372 C 
BRANCH  14  15
HETATM   15  C   UNL     1      27.871  40.617  51.949  1.00  0.00     0.250 C 
HETATM   16  N   UNL     1      28.920  39.907  51.406  1.00  0.00    -0.322 N 
HETATM   17  H   UNL     1      29.769  39.917  51.963  1.00  0.00     0.169 HD
HETATM   18  O   UNL     1      26.786  40.850  51.429  1.00  0.00    -0.271 OA
BRANCH  16  19
HETATM   19  C   UNL     1      28.944  39.200  50.219  1.00  0.00     0.085 A 
HETATM   20  C   UNL     1      28.627  39.527  48.867  1.00  0.00     0.079 A 
HETATM   21  C   UNL     1      28.126  40.790  48.270  1.00  0.00     0.075 C 
HETATM   22  N   UNL     1      28.801  38.471  48.056  1.00  0.00    -0.177 NA
HETATM   23  N   UNL     1      29.219  37.496  48.866  1.00  0.00    -0.280 N 
HETATM   24  H   UNL     1      29.420  36.591  48.455  1.00  0.00     0.189 HD
HETATM   25  C   UNL     1      29.314  37.868  50.176  1.00  0.00     0.052 A 
HETATM   26  C   UNL     1      29.753  36.918  51.225  1.00  0.00     0.072 C 
ENDBRANCH  16  19
ENDBRANCH  14  15
ENDBRANCH   1  14
TORSDOF 6
ENDMDL
MODEL 2
REMARK VINA RESULT:      -8.0      4.650      7.048
REMARK  6 active torsions:
REMARK  status: ('A' for Active; 'I' for Inactive)
REMARK    1  A    between atoms: C_2  and  C_3 
REMARK    2  A    between atoms: C_3  and  N_4 
REMARK    3  A    between atoms: C_3  and  C_17 
REMARK    4  A    between atoms: N_4  and  C_5 
REMARK    5  A    between atoms: C_5  and  C_6 
REMARK       I    between atoms: C_6  and  N_7 
REMARK    6  A    between atoms: N_7  and  C_8 
ROOT
HETATM    1  N   UNL     1      27.423  45.138  52.533  1.00  0.00     0.101 N 
HETATM    2  H   UNL     1      27.994  44.394  52.128  1.00  0.00     0.317 HD
ENDROOT
BRANCH   1   3
HETATM    3  C   UNL     1      27.243  44.858  53.974  1.00  0.00     0.256 C 
BRANCH   3   4
HETATM    4  C   UNL     1      26.214  43.731  54.252  1.00  0.00     0.036 C 
HETATM    5  C   UNL     1      24.994  44.143  55.072  1.00  0.00     0.007 C 
ENDBRANCH   3   4
BRANCH   3   6
HETATM    6  C   UNL     1      28.571  44.570  54.668  1.00  0.00     0.013 A 
HETATM    7  C   UNL     1      29.045  45.483  55.627  1.00  0.00     0.127 A 
HETATM    8  F   UNL     1      28.337  46.589  55.898  1.00  0.00    -0.205 F 
HETATM    9  C   UNL     1      30.233  45.274  56.318  1.00  0.00     0.085 A 
HETATM   10  C   UNL     1      30.973  44.136  56.045  1.00  0.00     0.119 A 
HETATM   11  F   UNL     1      32.121  43.920  56.702  1.00  0.00    -0.206 F 
HETATM   12  C   UNL     1      30.543  43.210  55.102  1.00  0.00     0.043 A 
HETATM   13  C   UNL     1      29.343  43.423  54.415  1.00  0.00     0.015 A 
ENDBRANCH   3   6
ENDBRANCH   1   3
BRANCH   1  14
HETATM   14  C   UNL     1      26.129  45.157  51.810  1.00  0.00     0.372 C 
BRANCH  14  15
HETATM   15  C   UNL     1      25.716  46.600  51.483  1.00  0.00     0.250 C 
HETATM   16  N   UNL     1      25.839  46.886  50.140  1.00  0.00    -0.322 N 
HETATM   17  H   UNL     1      26.239  46.135  49.584  1.00  0.00     0.169 HD
HETATM   18  O   UNL     1      25.369  47.367  52.374  1.00  0.00    -0.271 OA
BRANCH  16  19
HETATM   19  C   UNL     1      25.486  48.048  49.481  1.00  0.00     0.085 A 
HETATM   20  C   UNL     1      24.243  48.612  49.069  1.00  0.00     0.079 A 
HETATM   21  C   UNL     1      22.856  48.098  49.203  1.00  0.00     0.075 C 
HETATM   22  N   UNL     1      24.423  49.781  48.434  1.00  0.00    -0.177 NA
HETATM   23  N   UNL     1      25.746  49.961  48.442  1.00  0.00    -0.280 N 
HETATM   24  H   UNL     1      26.114  50.803  48.010  1.00  0.00     0.189 HD
HETATM   25  C   UNL     1      26.439  48.951  49.046  1.00  0.00     0.052 A 
HETATM   26  C   UNL     1      27.916  48.971  49.143  1.00  0.00     0.072 C 
ENDBRANCH  16  19
ENDBRANCH  14  15
ENDBRANCH   1  14
TORSDOF 6
ENDMDL
MODEL 3
REMARK VINA RESULT:      -7.9      2.604      3.600
REMARK  6 active torsions:
REMARK  status: ('A' for Active; 'I' for Inactive)
REMARK    1  A    between atoms: C_2  and  C_3 
REMARK    2  A    between atoms: C_3  and  N_4 
REMARK    3  A    between atoms: C_3  and  C_17 
REMARK    4  A    between atoms: N_4  and  C_5 
REMARK    5  A    between atoms: C_5  and  C_6 
REMARK       I    between atoms: C_6  and  N_7 
REMARK    6  A    between atoms: N_7  and  C_8 
ROOT
HETATM    1  N   UNL     1      26.856  45.353  54.563  1.00  0.00     0.101 N 
HETATM    2  H   UNL     1      26.059  45.640  55.134  1.00  0.00     0.317 HD
ENDROOT
BRANCH   1   3
HETATM    3  C   UNL     1      28.006  46.222  54.893  1.00  0.00     0.256 C 
BRANCH   3   4
HETATM    4  C   UNL     1      27.603  47.493  55.685  1.00  0.00     0.036 C 
HETATM    5  C   UNL     1      26.383  48.239  55.153  1.00  0.00     0.007 C 
ENDBRANCH   3   4
BRANCH   3   6
HETATM    6  C   UNL     1      29.110  45.455  55.614  1.00  0.00     0.013 A 
HETATM    7  C   UNL     1      29.727  44.376  54.956  1.00  0.00     0.127 A 
HETATM    8  F   UNL     1      29.325  44.034  53.723  1.00  0.00    -0.205 F 
HETATM    9  C   UNL     1      30.757  43.648  55.540  1.00  0.00     0.085 A 
HETATM   10  C   UNL     1      31.180  43.992  56.813  1.00  0.00     0.119 A 
HETATM   11  F   UNL     1      32.171  43.300  57.390  1.00  0.00    -0.206 F 
HETATM   12  C   UNL     1      30.595  45.049  57.501  1.00  0.00     0.043 A 
HETATM   13  C   UNL     1      29.563  45.781  56.904  1.00  0.00     0.015 A 
ENDBRANCH   3   6
ENDBRANCH   1   3
BRANCH   1  14
HETATM   14  C   UNL     1      26.460  45.481  53.140  1.00  0.00     0.372 C 
BRANCH  14  15
HETATM   15  C   UNL     1      25.884  44.155  52.621  1.00  0.00     0.250 C 
HETATM   16  N   UNL     1      26.812  43.426  51.909  1.00  0.00    -0.322 N 
HETATM   17  H   UNL     1      27.705  43.893  51.778  1.00  0.00     0.169 HD
HETATM   18  O   UNL     1      24.709  43.866  52.819  1.00  0.00    -0.271 OA
BRANCH  16  19
HETATM   19  C   UNL     1      26.668  42.163  51.368  1.00  0.00     0.085 A 
HETATM   20  C   UNL     1      25.766  41.588  50.425  1.00  0.00     0.079 A 
HETATM   21  C   UNL     1      24.619  42.187  49.696  1.00  0.00     0.075 C 
HETATM   22  N   UNL     1      26.027  40.286  50.229  1.00  0.00    -0.177 NA
HETATM   23  N   UNL     1      27.069  40.034  51.025  1.00  0.00    -0.280 N 
HETATM   24  H   UNL     1      27.443  39.091  51.033  1.00  0.00     0.189 HD
HETATM   25  C   UNL     1      27.493  41.116  51.741  1.00  0.00     0.052 A 
HETATM   26  C   UNL     1      28.631  41.028  52.684  1.00  0.00     0.072 C 
ENDBRANCH  16  19
ENDBRANCH  14  15
ENDBRANCH   1  14
TORSDOF 6
ENDMDL
MODEL 4
REMARK VINA RESULT:      -7.9      3.657      5.605
REMARK  6 active torsions:
REMARK  status: ('A' for Active; 'I' for Inactive)
REMARK    1  A    between atoms: C_2  and  C_3 
REMARK    2  A    between atoms: C_3  and  N_4 
REMARK    3  A    between atoms: C_3  and  C_17 
REMARK    4  A    between atoms: N_4  and  C_5 
REMARK    5  A    between atoms: C_5  and  C_6 
REMARK       I    between atoms: C_6  and  N_7 
REMARK    6  A    between atoms: N_7  and  C_8 
ROOT
HETATM    1  N   UNL     1      28.681  43.627  52.392  1.00  0.00     0.101 N 
HETATM    2  H   UNL     1      29.328  42.869  52.617  1.00  0.00     0.317 HD
ENDROOT
BRANCH   1   3
HETATM    3  C   UNL     1      28.138  44.171  53.655  1.00  0.00     0.256 C 
BRANCH   3   4
HETATM    4  C   UNL     1      26.850  43.447  54.126  1.00  0.00     0.036 C 
HETATM    5  C   UNL     1      25.651  44.352  54.399  1.00  0.00     0.007 C 
ENDBRANCH   3   4
BRANCH   3   6
HETATM    6  C   UNL     1      29.188  44.195  54.762  1.00  0.00     0.013 A 
HETATM    7  C   UNL     1      29.226  45.296  55.635  1.00  0.00     0.127 A 
HETATM    8  F   UNL     1      28.357  46.304  55.470  1.00  0.00    -0.205 F 
HETATM    9  C   UNL     1      30.137  45.375  56.682  1.00  0.00     0.085 A 
HETATM   10  C   UNL     1      31.039  44.340  56.862  1.00  0.00     0.119 A 
HETATM   11  F   UNL     1      31.924  44.400  57.866  1.00  0.00    -0.206 F 
HETATM   12  C   UNL     1      31.039  43.234  56.018  1.00  0.00     0.043 A 
HETATM   13  C   UNL     1      30.115  43.159  54.971  1.00  0.00     0.015 A 
ENDBRANCH   3   6
ENDBRANCH   1   3
BRANCH   1  14
HETATM   14  C   UNL     1      27.613  43.066  51.530  1.00  0.00     0.372 C 
BRANCH  14  15
HETATM   15  C   UNL     1      27.005  44.164  50.643  1.00  0.00     0.250 C 
HETATM   16  N   UNL     1      25.634  44.231  50.763  1.00  0.00    -0.322 N 
HETATM   17  H   UNL     1      25.227  43.515  51.358  1.00  0.00     0.169 HD
HETATM   18  O   UNL     1      27.718  44.835  49.906  1.00  0.00    -0.271 OA
BRANCH  16  19
HETATM   19  C   UNL     1      24.772  45.139  50.179  1.00  0.00     0.085 A 
HETATM   20  C   UNL     1      23.907  45.095  49.046  1.00  0.00     0.079 A 
HETATM   21  C   UNL     1      23.653  44.008  48.067  1.00  0.00     0.075 C 
HETATM   22  N   UNL     1      23.270  46.264  48.871  1.00  0.00    -0.177 NA
HETATM   23  N   UNL     1      23.715  47.035  49.866  1.00  0.00    -0.280 N 
HETATM   24  H   UNL     1      23.355  47.981  49.930  1.00  0.00     0.189 HD
HETATM   25  C   UNL     1      24.626  46.422  50.677  1.00  0.00     0.052 A 
HETATM   26  C   UNL     1      25.237  47.123  51.830  1.00  0.00     0.072 C 
ENDBRANCH  16  19
ENDBRANCH  14  15
ENDBRANCH   1  14
TORSDOF 6
ENDMDL
MODEL 5
REMARK VINA RESULT:      -7.9      4.775      7.442
REMARK  6 active torsions:
REMARK  status: ('A' for Active; 'I' for Inactive)
REMARK    1  A    between atoms: C_2  and  C_3 
REMARK    2  A    between atoms: C_3  and  N_4 
REMARK    3  A    between atoms: C_3  and  C_17 
REMARK    4  A    between atoms: N_4  and  C_5 
REMARK    5  A    between atoms: C_5  and  C_6 
REMARK       I    between atoms: C_6  and  N_7 
REMARK    6  A    between atoms: N_7  and  C_8 
ROOT
HETATM    1  N   UNL     1      26.804  46.179  52.519  1.00  0.00     0.101 N 
HETATM    2  H   UNL     1      27.685  45.879  52.099  1.00  0.00     0.317 HD
ENDROOT
BRANCH   1   3
HETATM    3  C   UNL     1      26.649  45.495  53.821  1.00  0.00     0.256 C 
BRANCH   3   4
HETATM    4  C   UNL     1      25.487  44.467  53.836  1.00  0.00     0.036 C 
HETATM    5  C   UNL     1      25.273  43.738  55.159  1.00  0.00     0.007 C 
ENDBRANCH   3   4
BRANCH   3   6
HETATM    6  C   UNL     1      27.953  44.853  54.285  1.00  0.00     0.013 A 
HETATM    7  C   UNL     1      28.651  45.436  55.358  1.00  0.00     0.127 A 
HETATM    8  F   UNL     1      28.170  46.546  55.937  1.00  0.00    -0.205 F 
HETATM    9  C   UNL     1      29.831  44.892  55.851  1.00  0.00     0.085 A 
HETATM   10  C   UNL     1      30.337  43.746  55.261  1.00  0.00     0.119 A 
HETATM   11  F   UNL     1      31.473  43.210  55.725  1.00  0.00    -0.206 F 
HETATM   12  C   UNL     1      29.681  43.140  54.195  1.00  0.00     0.043 A 
HETATM   13  C   UNL     1      28.490  43.689  53.708  1.00  0.00     0.015 A 
ENDBRANCH   3   6
ENDBRANCH   1   3
BRANCH   1  14
HETATM   14  C   UNL     1      25.713  45.826  51.579  1.00  0.00     0.372 C 
BRANCH  14  15
HETATM   15  C   UNL     1      25.885  46.575  50.249  1.00  0.00     0.250 C 
HETATM   16  N   UNL     1      25.132  47.728  50.198  1.00  0.00    -0.322 N 
HETATM   17  H   UNL     1      24.533  47.876  51.006  1.00  0.00     0.169 HD
HETATM   18  O   UNL     1      26.596  46.115  49.363  1.00  0.00    -0.271 OA
BRANCH  16  19
HETATM   19  C   UNL     1      25.100  48.680  49.198  1.00  0.00     0.085 A 
HETATM   20  C   UNL     1      26.093  49.492  48.574  1.00  0.00     0.079 A 
HETATM   21  C   UNL     1      27.553  49.594  48.822  1.00  0.00     0.075 C 
HETATM   22  N   UNL     1      25.554  50.293  47.641  1.00  0.00    -0.177 NA
HETATM   23  N   UNL     1      24.251  50.001  47.666  1.00  0.00    -0.280 N 
HETATM   24  H   UNL     1      23.641  50.496  47.025  1.00  0.00     0.189 HD
HETATM   25  C   UNL     1      23.915  49.049  48.586  1.00  0.00     0.052 A 
HETATM   26  C   UNL     1      22.515  48.601  48.766  1.00  0.00     0.072 C 
ENDBRANCH  16  19
ENDBRANCH  14  15
ENDBRANCH   1  14
TORSDOF 6
ENDMDL
MODEL 6
REMARK VINA RESULT:      -7.9      4.184      5.282
REMARK  6 active torsions:
REMARK  status: ('A' for Active; 'I' for Inactive)
REMARK    1  A    between atoms: C_2  and  C_3 
REMARK    2  A    between atoms: C_3  and  N_4 
REMARK    3  A    between atoms: C_3  and  C_17 
REMARK    4  A    between atoms: N_4  and  C_5 
REMARK    5  A    between atoms: C_5  and  C_6 
REMARK       I    between atoms: C_6  and  N_7 
REMARK    6  A    between atoms: N_7  and  C_8 
ROOT
HETATM    1  N   UNL     1      27.013  44.359  54.490  1.00  0.00     0.101 N 
HETATM    2  H   UNL     1      26.118  44.841  54.387  1.00  0.00     0.317 HD
ENDROOT
BRANCH   1   3
HETATM    3  C   UNL     1      28.095  45.365  54.450  1.00  0.00     0.256 C 
BRANCH   3   4
HETATM    4  C   UNL     1      27.571  46.821  54.341  1.00  0.00     0.036 C 
HETATM    5  C   UNL     1      26.057  46.983  54.452  1.00  0.00     0.007 C 
ENDBRANCH   3   4
BRANCH   3   6
HETATM    6  C   UNL     1      29.055  45.216  55.627  1.00  0.00     0.013 A 
HETATM    7  C   UNL     1      30.121  44.306  55.521  1.00  0.00     0.127 A 
HETATM    8  F   UNL     1      30.263  43.579  54.403  1.00  0.00    -0.205 F 
HETATM    9  C   UNL     1      31.049  44.136  56.541  1.00  0.00     0.085 A 
HETATM   10  C   UNL     1      30.911  44.881  57.701  1.00  0.00     0.119 A 
HETATM   11  F   UNL     1      31.797  44.729  58.694  1.00  0.00    -0.206 F 
HETATM   12  C   UNL     1      29.869  45.789  57.849  1.00  0.00     0.043 A 
HETATM   13  C   UNL     1      28.942  45.960  56.815  1.00  0.00     0.015 A 
ENDBRANCH   3   6
ENDBRANCH   1   3
BRANCH   1  14
HETATM   14  C   UNL     1      27.128  43.382  53.382  1.00  0.00     0.372 C 
BRANCH  14  15
HETATM   15  C   UNL     1      26.716  44.027  52.050  1.00  0.00     0.250 C 
HETATM   16  N   UNL     1      25.370  44.321  52.007  1.00  0.00    -0.322 N 
HETATM   17  H   UNL     1      24.845  44.013  52.821  1.00  0.00     0.169 HD
HETATM   18  O   UNL     1      27.539  44.192  51.156  1.00  0.00    -0.271 OA
BRANCH  16  19
HETATM   19  C   UNL     1      24.673  44.971  51.007  1.00  0.00     0.085 A 
HETATM   20  C   UNL     1      24.718  46.291  50.468  1.00  0.00     0.079 A 
HETATM   21  C   UNL     1      25.559  47.457  50.837  1.00  0.00     0.075 C 
HETATM   22  N   UNL     1      23.808  46.452  49.494  1.00  0.00    -0.177 NA
HETATM   23  N   UNL     1      23.198  45.267  49.411  1.00  0.00    -0.280 N 
HETATM   24  H   UNL     1      22.462  45.159  48.722  1.00  0.00     0.189 HD
HETATM   25  C   UNL     1      23.664  44.341  50.300  1.00  0.00     0.052 A 
HETATM   26  C   UNL     1      23.103  42.972  50.364  1.00  0.00     0.072 C 
ENDBRANCH  16  19
ENDBRANCH  14  15
ENDBRANCH   1  14
TORSDOF 6
ENDMDL
MODEL 7
REMARK VINA RESULT:      -7.7      1.599      2.047
REMARK  6 active torsions:
REMARK  status: ('A' for Active; 'I' for Inactive)
REMARK    1  A    between atoms: C_2  and  C_3 
REMARK    2  A    between atoms: C_3  and  N_4 
REMARK    3  A    between atoms: C_3  and  C_17 
REMARK    4  A    between atoms: N_4  and  C_5 
REMARK    5  A    between atoms: C_5  and  C_6 
REMARK       I    between atoms: C_6  and  N_7 
REMARK    6  A    between atoms: N_7  and  C_8 
ROOT
HETATM    1  N   UNL     1      28.503  43.250  52.480  1.00  0.00     0.101 N 
HETATM    2  H   UNL     1      29.478  42.981  52.621  1.00  0.00     0.317 HD
ENDROOT
BRANCH   1   3
HETATM    3  C   UNL     1      28.080  44.089  53.622  1.00  0.00     0.256 C 
BRANCH   3   4
HETATM    4  C   UNL     1      26.703  43.677  54.205  1.00  0.00     0.036 C 
HETATM    5  C   UNL     1      25.610  44.738  54.120  1.00  0.00     0.007 C 
ENDBRANCH   3   4
BRANCH   3   6
HETATM    6  C   UNL     1      29.143  44.142  54.715  1.00  0.00     0.013 A 
HETATM    7  C   UNL     1      29.202  45.273  55.547  1.00  0.00     0.127 A 
HETATM    8  F   UNL     1      28.342  46.284  55.356  1.00  0.00    -0.205 F 
HETATM    9  C   UNL     1      30.127  45.380  56.580  1.00  0.00     0.085 A 
HETATM   10  C   UNL     1      31.021  44.342  56.787  1.00  0.00     0.119 A 
HETATM   11  F   UNL     1      31.918  44.430  57.777  1.00  0.00    -0.206 F 
HETATM   12  C   UNL     1      30.999  43.207  55.983  1.00  0.00     0.043 A 
HETATM   13  C   UNL     1      30.062  43.104  54.951  1.00  0.00     0.015 A 
ENDBRANCH   3   6
ENDBRANCH   1   3
BRANCH   1  14
HETATM   14  C   UNL     1      27.702  42.006  52.385  1.00  0.00     0.372 C 
BRANCH  14  15
HETATM   15  C   UNL     1      27.855  41.371  50.995  1.00  0.00     0.250 C 
HETATM   16  N   UNL     1      28.048  40.008  51.062  1.00  0.00    -0.322 N 
HETATM   17  H   UNL     1      28.126  39.640  52.006  1.00  0.00     0.169 HD
HETATM   18  O   UNL     1      27.839  42.068  49.987  1.00  0.00    -0.271 OA
BRANCH  16  19
HETATM   19  C   UNL     1      28.145  39.110  50.017  1.00  0.00     0.085 A 
HETATM   20  C   UNL     1      27.374  38.876  48.840  1.00  0.00     0.079 A 
HETATM   21  C   UNL     1      26.145  39.544  48.341  1.00  0.00     0.075 C 
HETATM   22  N   UNL     1      27.872  37.855  48.125  1.00  0.00    -0.177 NA
HETATM   23  N   UNL     1      28.934  37.447  48.824  1.00  0.00    -0.280 N 
HETATM   24  H   UNL     1      29.475  36.672  48.457  1.00  0.00     0.189 HD
HETATM   25  C   UNL     1      29.143  38.153  49.974  1.00  0.00     0.052 A 
HETATM   26  C   UNL     1      30.268  37.840  50.885  1.00  0.00     0.072 C 
ENDBRANCH  16  19
ENDBRANCH  14  15
ENDBRANCH   1  14
TORSDOF 6
ENDMDL
MODEL 8
REMARK VINA RESULT:      -7.4      9.008     11.455
REMARK  6 active torsions:
REMARK  status: ('A' for Active; 'I' for Inactive)
REMARK    1  A    between atoms: C_2  and  C_3 
REMARK    2  A    between atoms: C_3  and  N_4 
REMARK    3  A    between atoms: C_3  and  C_17 
REMARK    4  A    between atoms: N_4  and  C_5 
REMARK    5  A    between atoms: C_5  and  C_6 
REMARK       I    between atoms: C_6  and  N_7 
REMARK    6  A    between atoms: N_7  and  C_8 
ROOT
HETATM    1  N   UNL     1      22.061  50.175  49.732  1.00  0.00     0.101 N 
HETATM    2  H   UNL     1      22.178  49.165  49.643  1.00  0.00     0.317 HD
ENDROOT
BRANCH   1   3
HETATM    3  C   UNL     1      20.635  50.503  49.514  1.00  0.00     0.256 C 
BRANCH   3   4
HETATM    4  C   UNL     1      20.422  51.649  48.491  1.00  0.00     0.036 C 
HETATM    5  C   UNL     1      19.079  52.368  48.582  1.00  0.00     0.007 C 
ENDBRANCH   3   4
BRANCH   3   6
HETATM    6  C   UNL     1      19.820  49.271  49.133  1.00  0.00     0.013 A 
HETATM    7  C   UNL     1      18.671  48.961  49.881  1.00  0.00     0.127 A 
HETATM    8  F   UNL     1      18.325  49.739  50.918  1.00  0.00    -0.205 F 
HETATM    9  C   UNL     1      17.865  47.870  49.577  1.00  0.00     0.085 A 
HETATM   10  C   UNL     1      18.213  47.060  48.509  1.00  0.00     0.119 A 
HETATM   11  F   UNL     1      17.447  46.004  48.203  1.00  0.00    -0.206 F 
HETATM   12  C   UNL     1      19.344  47.327  47.746  1.00  0.00     0.043 A 
HETATM   13  C   UNL     1      20.146  48.431  48.054  1.00  0.00     0.015 A 
ENDBRANCH   3   6
ENDBRANCH   1   3
BRANCH   1  14
HETATM   14  C   UNL     1      22.933  50.821  48.722  1.00  0.00     0.372 C 
BRANCH  14  15
HETATM   15  C   UNL     1      24.155  49.939  48.423  1.00  0.00     0.250 C 
HETATM   16  N   UNL     1      24.380  49.007  49.413  1.00  0.00    -0.322 N 
HETATM   17  H   UNL     1      23.757  49.082  50.213  1.00  0.00     0.169 HD
HETATM   18  O   UNL     1      24.831  50.129  47.418  1.00  0.00    -0.271 OA
BRANCH  16  19
HETATM   19  C   UNL     1      25.334  48.007  49.440  1.00  0.00     0.085 A 
HETATM   20  C   UNL     1      26.757  47.995  49.342  1.00  0.00     0.079 A 
HETATM   21  C   UNL     1      27.721  49.107  49.151  1.00  0.00     0.075 C 
HETATM   22  N   UNL     1      27.241  46.745  49.408  1.00  0.00    -0.177 NA
HETATM   23  N   UNL     1      26.157  45.977  49.547  1.00  0.00    -0.280 N 
HETATM   24  H   UNL     1      26.292  44.975  49.622  1.00  0.00     0.189 HD
HETATM   25  C   UNL     1      24.983  46.675  49.562  1.00  0.00     0.052 A 
HETATM   26  C   UNL     1      23.675  45.993  49.698  1.00  0.00     0.072 C 
ENDBRANCH  16  19
ENDBRANCH  14  15
ENDBRANCH   1  14
TORSDOF 6
ENDMDL
MODEL 9
REMARK VINA RESULT:      -7.4      1.442      2.284
REMARK  6 active torsions:
REMARK  status: ('A' for Active; 'I' for Inactive)
REMARK    1  A    between atoms: C_2  and  C_3 
REMARK    2  A    between atoms: C_3  and  N_4 
REMARK    3  A    between atoms: C_3  and  C_17 
REMARK    4  A    between atoms: N_4  and  C_5 
REMARK    5  A    between atoms: C_5  and  C_6 
REMARK       I    between atoms: C_6  and  N_7 
REMARK    6  A    between atoms: N_7  and  C_8 
ROOT
HETATM    1  N   UNL     1      28.432  43.143  53.810  1.00  0.00     0.101 N 
HETATM    2  H   UNL     1      27.417  43.063  53.734  1.00  0.00     0.317 HD
ENDROOT
BRANCH   1   3
HETATM    3  C   UNL     1      28.773  44.555  54.083  1.00  0.00     0.256 C 
BRANCH   3   4
HETATM    4  C   UNL     1      27.551  45.507  53.984  1.00  0.00     0.036 C 
HETATM    5  C   UNL     1      26.186  44.841  54.131  1.00  0.00     0.007 C 
ENDBRANCH   3   4
BRANCH   3   6
HETATM    6  C   UNL     1      29.488  44.721  55.420  1.00  0.00     0.013 A 
HETATM    7  C   UNL     1      30.600  43.907  55.699  1.00  0.00     0.127 A 
HETATM    8  F   UNL     1      30.997  42.995  54.799  1.00  0.00    -0.205 F 
HETATM    9  C   UNL     1      31.316  44.018  56.885  1.00  0.00     0.085 A 
HETATM   10  C   UNL     1      30.915  44.955  57.822  1.00  0.00     0.119 A 
HETATM   11  F   UNL     1      31.594  45.075  58.971  1.00  0.00    -0.206 F 
HETATM   12  C   UNL     1      29.817  45.777  57.589  1.00  0.00     0.043 A 
HETATM   13  C   UNL     1      29.106  45.664  56.390  1.00  0.00     0.015 A 
ENDBRANCH   3   6
ENDBRANCH   1   3
BRANCH   1  14
HETATM   14  C   UNL     1      29.019  42.672  52.533  1.00  0.00     0.372 C 
BRANCH  14  15
HETATM   15  C   UNL     1      28.595  41.223  52.247  1.00  0.00     0.250 C 
HETATM   16  N   UNL     1      28.490  40.968  50.896  1.00  0.00    -0.322 N 
HETATM   17  H   UNL     1      28.641  41.778  50.301  1.00  0.00     0.169 HD
HETATM   18  O   UNL     1      28.352  40.451  53.167  1.00  0.00    -0.271 OA
BRANCH  16  19
HETATM   19  C   UNL     1      28.210  39.765  50.277  1.00  0.00     0.085 A 
HETATM   20  C   UNL     1      28.901  38.522  50.175  1.00  0.00     0.079 A 
HETATM   21  C   UNL     1      30.219  38.101  50.713  1.00  0.00     0.075 C 
HETATM   22  N   UNL     1      28.211  37.639  49.435  1.00  0.00    -0.177 NA
HETATM   23  N   UNL     1      27.109  38.299  49.074  1.00  0.00    -0.280 N 
HETATM   24  H   UNL     1      26.429  37.811  48.501  1.00  0.00     0.189 HD
HETATM   25  C   UNL     1      27.055  39.582  49.538  1.00  0.00     0.052 A 
HETATM   26  C   UNL     1      25.912  40.473  49.233  1.00  0.00     0.072 C 
ENDBRANCH  16  19
ENDBRANCH  14  15
ENDBRANCH   1  14
TORSDOF 6
ENDMDL
MODEL 10
REMARK VINA RESULT:      -7.3      6.218      8.129
REMARK  6 active torsions:
REMARK  status: ('A' for Active; 'I' for Inactive)
REMARK    1  A    between atoms: C_2  and  C_3 
REMARK    2  A    between atoms: C_3  and  N_4 
REMARK    3  A    between atoms: C_3  and  C_17 
REMARK    4  A    between atoms: N_4  and  C_5 
REMARK    5  A    between atoms: C_5  and  C_6 
REMARK       I    between atoms: C_6  and  N_7 
REMARK    6  A    between atoms: N_7  and  C_8 
ROOT
HETATM    1  N   UNL     1      22.311  47.595  49.321  1.00  0.00     0.101 N 
HETATM    2  H   UNL     1      21.350  47.772  49.619  1.00  0.00     0.317 HD
ENDROOT
BRANCH   1   3
HETATM    3  C   UNL     1      22.898  48.869  48.853  1.00  0.00     0.256 C 
BRANCH   3   4
HETATM    4  C   UNL     1      22.280  50.114  49.541  1.00  0.00     0.036 C 
HETATM    5  C   UNL     1      21.476  51.036  48.628  1.00  0.00     0.007 C 
ENDBRANCH   3   4
BRANCH   3   6
HETATM    6  C   UNL     1      24.419  48.874  48.977  1.00  0.00     0.013 A 
HETATM    7  C   UNL     1      25.155  49.820  48.244  1.00  0.00     0.127 A 
HETATM    8  F   UNL     1      24.514  50.683  47.442  1.00  0.00    -0.205 F 
HETATM    9  C   UNL     1      26.540  49.901  48.326  1.00  0.00     0.085 A 
HETATM   10  C   UNL     1      27.214  49.015  49.151  1.00  0.00     0.119 A 
HETATM   11  F   UNL     1      28.549  49.080  49.241  1.00  0.00    -0.206 F 
HETATM   12  C   UNL     1      26.525  48.060  49.890  1.00  0.00     0.043 A 
HETATM   13  C   UNL     1      25.130  47.989  49.807  1.00  0.00     0.015 A 
ENDBRANCH   3   6
ENDBRANCH   1   3
BRANCH   1  14
HETATM   14  C   UNL     1      22.268  46.580  48.242  1.00  0.00     0.372 C 
BRANCH  14  15
HETATM   15  C   UNL     1      22.473  45.171  48.820  1.00  0.00     0.250 C 
HETATM   16  N   UNL     1      23.796  44.912  49.107  1.00  0.00    -0.322 N 
HETATM   17  H   UNL     1      24.439  45.652  48.838  1.00  0.00     0.169 HD
HETATM   18  O   UNL     1      21.525  44.404  48.942  1.00  0.00    -0.271 OA
BRANCH  16  19
HETATM   19  C   UNL     1      24.333  43.788  49.704  1.00  0.00     0.085 A 
HETATM   20  C   UNL     1      24.555  42.448  49.270  1.00  0.00     0.079 A 
HETATM   21  C   UNL     1      24.249  41.789  47.976  1.00  0.00     0.075 C 
HETATM   22  N   UNL     1      25.104  41.703  50.243  1.00  0.00    -0.177 NA
HETATM   23  N   UNL     1      25.230  42.545  51.272  1.00  0.00    -0.280 N 
HETATM   24  H   UNL     1      25.636  42.187  52.131  1.00  0.00     0.189 HD
HETATM   25  C   UNL     1      24.776  43.806  51.015  1.00  0.00     0.052 A 
HETATM   26  C   UNL     1      24.826  44.875  52.039  1.00  0.00     0.072 C 
ENDBRANCH  16  19
ENDBRANCH  14  15
ENDBRANCH   1  14
TORSDOF 6
ENDMDL
