MODEL 1
REMARK VINA RESULT:      -8.3      0.000      0.000
REMARK  8 active torsions:
REMARK  status: ('A' for Active; 'I' for Inactive)
REMARK    1  A    between atoms: C_2  and  O_3 
REMARK    2  A    between atoms: O_3  and  C_4 
REMARK    3  A    between atoms: C_4  and  C_5 
REMARK    4  A    between atoms: C_6  and  C_8 
REMARK    5  A    between atoms: C_6  and  O_7 
REMARK    6  A    between atoms: C_16  and  C_17 
REMARK    7  A    between atoms: C_18  and  C_19 
REMARK    8  A    between atoms: N_26  and  C_27 
ROOT
HETATM    1  C   UNL     1      18.253  48.877  48.158  1.00  0.00     0.177 C 
HETATM    2  C   UNL     1      18.379  50.234  48.870  1.00  0.00     0.250 C 
HETATM    3  N   UNL     1      18.199  50.106  50.300  1.00  0.00    -0.303 N 
HETATM    4  C   UNL     1      18.651  49.049  51.011  1.00  0.00     0.319 C 
HETATM    5  O   UNL     1      18.748  49.094  52.229  1.00  0.00    -0.247 OA
HETATM    6  N   UNL     1      18.936  47.923  50.321  1.00  0.00    -0.333 N 
HETATM    7  C   UNL     1      19.041  47.784  48.878  1.00  0.00     0.142 C 
HETATM    8  H   UNL     1      18.114  50.957  50.847  1.00  0.00     0.167 HD
HETATM    9  H   UNL     1      19.261  47.159  50.903  1.00  0.00     0.165 HD
ENDROOT
BRANCH   7  10
HETATM   10  C   UNL     1      20.500  47.668  48.511  1.00  0.00     0.015 A 
HETATM   11  C   UNL     1      21.110  46.925  47.451  1.00  0.00     0.097 A 
HETATM   12  N   UNL     1      22.432  47.137  47.408  1.00  0.00    -0.167 NA
HETATM   13  N   UNL     1      22.710  47.982  48.424  1.00  0.00    -0.244 N 
HETATM   14  C   UNL     1      21.578  48.264  49.149  1.00  0.00     0.130 A 
BRANCH  11  15
HETATM   15  C   UNL     1      20.488  46.057  46.454  1.00  0.00    -0.005 A 
HETATM   16  C   UNL     1      19.936  44.830  46.851  1.00  0.00     0.014 A 
HETATM   17  C   UNL     1      19.350  43.977  45.912  1.00  0.00     0.001 A 
HETATM   18  C   UNL     1      19.310  44.344  44.570  1.00  0.00     0.000 A 
HETATM   19  C   UNL     1      19.845  45.566  44.165  1.00  0.00     0.001 A 
HETATM   20  C   UNL     1      20.427  46.424  45.104  1.00  0.00     0.014 A 
ENDBRANCH  11  15
BRANCH  13  21
HETATM   21  C   UNL     1      24.026  48.483  48.629  1.00  0.00     0.058 A 
HETATM   22  C   UNL     1      24.918  47.766  49.441  1.00  0.00     0.031 A 
HETATM   23  C   UNL     1      26.223  48.228  49.631  1.00  0.00     0.002 A 
HETATM   24  C   UNL     1      26.644  49.407  49.020  1.00  0.00     0.000 A 
HETATM   25  C   UNL     1      25.763  50.127  48.216  1.00  0.00     0.002 A 
HETATM   26  C   UNL     1      24.457  49.670  48.017  1.00  0.00     0.031 A 
ENDBRANCH  13  21
ENDBRANCH   7  10
BRANCH   1  27
HETATM   27  C   UNL     1      16.833  48.358  48.026  1.00  0.00     0.270 C 
HETATM   28  O   UNL     1      16.283  47.712  48.910  1.00  0.00    -0.265 OA
BRANCH  27  29
HETATM   29  O   UNL     1      16.222  48.760  46.880  1.00  0.00    -0.321 OA
BRANCH  29  30
HETATM   30  C   UNL     1      16.800  48.314  45.641  1.00  0.00     0.174 C 
HETATM   31  C   UNL     1      16.647  46.810  45.529  1.00  0.00     0.034 C 
ENDBRANCH  29  30
ENDBRANCH  27  29
ENDBRANCH   1  27
BRANCH   2  32
HETATM   32  C   UNL     1      19.739  50.940  48.514  1.00  0.00     0.439 C 
HETATM   33  F   UNL     1      20.276  50.456  47.371  1.00  0.00    -0.166 F 
HETATM   34  F   UNL     1      19.552  52.275  48.339  1.00  0.00    -0.166 F 
HETATM   35  F   UNL     1      20.663  50.819  49.489  1.00  0.00    -0.166 F 
ENDBRANCH   2  32
BRANCH   2  36
HETATM   36  O   UNL     1      17.305  51.095  48.463  1.00  0.00    -0.363 OA
HETATM   37  H   UNL     1      17.740  51.920  48.174  1.00  0.00     0.213 HD
ENDBRANCH   2  36
TORSDOF 8
ENDMDL
MODEL 2
REMARK VINA RESULT:      -7.7      3.571      7.444
REMARK  8 active torsions:
REMARK  status: ('A' for Active; 'I' for Inactive)
REMARK    1  A    between atoms: C_2  and  O_3 
REMARK    2  A    between atoms: O_3  and  C_4 
REMARK    3  A    between atoms: C_4  and  C_5 
REMARK    4  A    between atoms: C_6  and  C_8 
REMARK    5  A    between atoms: C_6  and  O_7 
REMARK    6  A    between atoms: C_16  and  C_17 
REMARK    7  A    between atoms: C_18  and  C_19 
REMARK    8  A    between atoms: N_26  and  C_27 
ROOT
HETATM    1  C   UNL     1      18.140  49.160  46.829  1.00  0.00     0.177 C 
HETATM    2  C   UNL     1      17.328  49.467  45.559  1.00  0.00     0.250 C 
HETATM    3  N   UNL     1      16.095  48.710  45.518  1.00  0.00    -0.303 N 
HETATM    4  C   UNL     1      15.353  48.446  46.615  1.00  0.00     0.319 C 
HETATM    5  O   UNL     1      14.193  48.069  46.525  1.00  0.00    -0.247 OA
HETATM    6  N   UNL     1      15.965  48.562  47.813  1.00  0.00    -0.333 N 
HETATM    7  C   UNL     1      17.261  49.166  48.078  1.00  0.00     0.142 C 
HETATM    8  H   UNL     1      15.558  48.723  44.657  1.00  0.00     0.167 HD
HETATM    9  H   UNL     1      15.367  48.343  48.601  1.00  0.00     0.165 HD
ENDROOT
BRANCH   7  10
HETATM   10  C   UNL     1      17.041  50.510  48.727  1.00  0.00     0.015 A 
HETATM   11  C   UNL     1      18.002  51.419  49.274  1.00  0.00     0.097 A 
HETATM   12  N   UNL     1      17.418  52.548  49.695  1.00  0.00    -0.167 NA
HETATM   13  N   UNL     1      16.097  52.397  49.461  1.00  0.00    -0.244 N 
HETATM   14  C   UNL     1      15.831  51.153  48.944  1.00  0.00     0.130 A 
BRANCH  11  15
HETATM   15  C   UNL     1      19.454  51.280  49.374  1.00  0.00    -0.005 A 
HETATM   16  C   UNL     1      20.247  51.451  48.230  1.00  0.00     0.014 A 
HETATM   17  C   UNL     1      21.634  51.307  48.299  1.00  0.00     0.001 A 
HETATM   18  C   UNL     1      22.241  50.994  49.512  1.00  0.00     0.000 A 
HETATM   19  C   UNL     1      21.463  50.833  50.659  1.00  0.00     0.001 A 
HETATM   20  C   UNL     1      20.075  50.981  50.593  1.00  0.00     0.014 A 
ENDBRANCH  11  15
BRANCH  13  21
HETATM   21  C   UNL     1      15.174  53.449  49.724  1.00  0.00     0.058 A 
HETATM   22  C   UNL     1      14.483  54.041  48.656  1.00  0.00     0.031 A 
HETATM   23  C   UNL     1      13.554  55.057  48.896  1.00  0.00     0.002 A 
HETATM   24  C   UNL     1      13.312  55.490  50.198  1.00  0.00     0.000 A 
HETATM   25  C   UNL     1      13.999  54.911  51.262  1.00  0.00     0.002 A 
HETATM   26  C   UNL     1      14.928  53.892  51.032  1.00  0.00     0.031 A 
ENDBRANCH  13  21
ENDBRANCH   7  10
BRANCH   1  27
HETATM   27  C   UNL     1      18.853  47.821  46.819  1.00  0.00     0.270 C 
HETATM   28  O   UNL     1      18.297  46.780  46.490  1.00  0.00    -0.265 OA
BRANCH  27  29
HETATM   29  O   UNL     1      20.175  47.918  47.124  1.00  0.00    -0.321 OA
BRANCH  29  30
HETATM   30  C   UNL     1      20.555  47.637  48.481  1.00  0.00     0.174 C 
HETATM   31  C   UNL     1      22.056  47.442  48.551  1.00  0.00     0.034 C 
ENDBRANCH  29  30
ENDBRANCH  27  29
ENDBRANCH   1  27
BRANCH   2  32
HETATM   32  C   UNL     1      17.071  51.011  45.406  1.00  0.00     0.439 C 
HETATM   33  F   UNL     1      18.022  51.745  46.025  1.00  0.00    -0.166 F 
HETATM   34  F   UNL     1      17.074  51.367  44.094  1.00  0.00    -0.166 F 
HETATM   35  F   UNL     1      15.872  51.392  45.892  1.00  0.00    -0.166 F 
ENDBRANCH   2  32
BRANCH   2  36
HETATM   36  O   UNL     1      18.049  49.014  44.404  1.00  0.00    -0.363 OA
HETATM   37  H   UNL     1      17.370  48.623  43.821  1.00  0.00     0.213 HD
ENDBRANCH   2  36
TORSDOF 8
ENDMDL
MODEL 3
REMARK VINA RESULT:      -7.7     23.519     25.872
REMARK  8 active torsions:
REMARK  status: ('A' for Active; 'I' for Inactive)
REMARK    1  A    between atoms: C_2  and  O_3 
REMARK    2  A    between atoms: O_3  and  C_4 
REMARK    3  A    between atoms: C_4  and  C_5 
REMARK    4  A    between atoms: C_6  and  C_8 
REMARK    5  A    between atoms: C_6  and  O_7 
REMARK    6  A    between atoms: C_16  and  C_17 
REMARK    7  A    between atoms: C_18  and  C_19 
REMARK    8  A    between atoms: N_26  and  C_27 
ROOT
HETATM    1  C   UNL     1      37.146  43.509  65.193  1.00  0.00     0.177 C 
HETATM    2  C   UNL     1      36.631  44.939  64.961  1.00  0.00     0.250 C 
HETATM    3  N   UNL     1      36.333  45.608  66.209  1.00  0.00    -0.303 N 
HETATM    4  C   UNL     1      37.070  45.446  67.329  1.00  0.00     0.319 C 
HETATM    5  O   UNL     1      36.983  46.225  68.268  1.00  0.00    -0.247 OA
HETATM    6  N   UNL     1      37.864  44.355  67.389  1.00  0.00    -0.333 N 
HETATM    7  C   UNL     1      38.202  43.458  66.296  1.00  0.00     0.142 C 
HETATM    8  H   UNL     1      35.848  46.499  66.166  1.00  0.00     0.167 HD
HETATM    9  H   UNL     1      38.386  44.277  68.254  1.00  0.00     0.165 HD
ENDROOT
BRANCH   7  10
HETATM   10  C   UNL     1      39.622  43.736  65.867  1.00  0.00     0.015 A 
HETATM   11  C   UNL     1      40.458  42.994  64.975  1.00  0.00     0.097 A 
HETATM   12  N   UNL     1      41.636  43.607  64.790  1.00  0.00    -0.167 NA
HETATM   13  N   UNL     1      41.603  44.719  65.555  1.00  0.00    -0.244 N 
HETATM   14  C   UNL     1      40.432  44.788  66.268  1.00  0.00     0.130 A 
BRANCH  11  15
HETATM   15  C   UNL     1      40.174  41.752  64.258  1.00  0.00    -0.005 A 
HETATM   16  C   UNL     1      39.413  41.791  63.080  1.00  0.00     0.014 A 
HETATM   17  C   UNL     1      39.116  40.615  62.387  1.00  0.00     0.001 A 
HETATM   18  C   UNL     1      39.579  39.392  62.864  1.00  0.00     0.000 A 
HETATM   19  C   UNL     1      40.346  39.342  64.027  1.00  0.00     0.001 A 
HETATM   20  C   UNL     1      40.650  40.519  64.719  1.00  0.00     0.014 A 
ENDBRANCH  11  15
BRANCH  13  21
HETATM   21  C   UNL     1      42.675  45.655  65.542  1.00  0.00     0.058 A 
HETATM   22  C   UNL     1      42.784  46.591  66.582  1.00  0.00     0.031 A 
HETATM   23  C   UNL     1      43.845  47.500  66.602  1.00  0.00     0.002 A 
HETATM   24  C   UNL     1      44.798  47.485  65.586  1.00  0.00     0.000 A 
HETATM   25  C   UNL     1      44.694  46.563  64.548  1.00  0.00     0.002 A 
HETATM   26  C   UNL     1      43.637  45.647  64.521  1.00  0.00     0.031 A 
ENDBRANCH  13  21
ENDBRANCH   7  10
BRANCH   1  27
HETATM   27  C   UNL     1      36.077  42.504  65.584  1.00  0.00     0.270 C 
HETATM   28  O   UNL     1      36.134  41.323  65.262  1.00  0.00    -0.265 OA
BRANCH  27  29
HETATM   29  O   UNL     1      35.118  43.032  66.390  1.00  0.00    -0.321 OA
BRANCH  29  30
HETATM   30  C   UNL     1      33.782  42.526  66.234  1.00  0.00     0.174 C 
HETATM   31  C   UNL     1      33.089  42.514  67.582  1.00  0.00     0.034 C 
ENDBRANCH  29  30
ENDBRANCH  27  29
ENDBRANCH   1  27
BRANCH   2  32
HETATM   32  C   UNL     1      37.634  45.769  64.078  1.00  0.00     0.439 C 
HETATM   33  F   UNL     1      38.392  44.973  63.290  1.00  0.00    -0.166 F 
HETATM   34  F   UNL     1      36.959  46.622  63.263  1.00  0.00    -0.166 F 
HETATM   35  F   UNL     1      38.465  46.536  64.812  1.00  0.00    -0.166 F 
ENDBRANCH   2  32
BRANCH   2  36
HETATM   36  O   UNL     1      35.367  44.894  64.283  1.00  0.00    -0.363 OA
HETATM   37  H   UNL     1      35.105  45.828  64.178  1.00  0.00     0.213 HD
ENDBRANCH   2  36
TORSDOF 8
ENDMDL
MODEL 4
REMARK VINA RESULT:      -7.7      2.529      4.967
REMARK  8 active torsions:
REMARK  status: ('A' for Active; 'I' for Inactive)
REMARK    1  A    between atoms: C_2  and  O_3 
REMARK    2  A    between atoms: O_3  and  C_4 
REMARK    3  A    between atoms: C_4  and  C_5 
REMARK    4  A    between atoms: C_6  and  C_8 
REMARK    5  A    between atoms: C_6  and  O_7 
REMARK    6  A    between atoms: C_16  and  C_17 
REMARK    7  A    between atoms: C_18  and  C_19 
REMARK    8  A    between atoms: N_26  and  C_27 
ROOT
HETATM    1  C   UNL     1      18.904  46.906  47.873  1.00  0.00     0.177 C 
HETATM    2  C   UNL     1      19.528  45.502  47.920  1.00  0.00     0.250 C 
HETATM    3  N   UNL     1      19.859  45.021  46.596  1.00  0.00    -0.303 N 
HETATM    4  C   UNL     1      20.335  45.820  45.616  1.00  0.00     0.319 C 
HETATM    5  O   UNL     1      20.875  45.357  44.621  1.00  0.00    -0.247 OA
HETATM    6  N   UNL     1      20.138  47.148  45.758  1.00  0.00    -0.333 N 
HETATM    7  C   UNL     1      19.684  47.843  46.952  1.00  0.00     0.142 C 
HETATM    8  H   UNL     1      20.137  44.049  46.498  1.00  0.00     0.167 HD
HETATM    9  H   UNL     1      20.505  47.700  44.991  1.00  0.00     0.165 HD
ENDROOT
BRANCH   7  10
HETATM   10  C   UNL     1      20.863  48.553  47.572  1.00  0.00     0.015 A 
HETATM   11  C   UNL     1      20.883  49.734  48.379  1.00  0.00     0.097 A 
HETATM   12  N   UNL     1      22.124  50.010  48.803  1.00  0.00    -0.167 NA
HETATM   13  N   UNL     1      22.921  49.056  48.277  1.00  0.00    -0.244 N 
HETATM   14  C   UNL     1      22.201  48.205  47.474  1.00  0.00     0.130 A 
BRANCH  11  15
HETATM   15  C   UNL     1      19.774  50.587  48.801  1.00  0.00    -0.005 A 
HETATM   16  C   UNL     1      19.650  51.878  48.266  1.00  0.00     0.014 A 
HETATM   17  C   UNL     1      18.606  52.715  48.666  1.00  0.00     0.001 A 
HETATM   18  C   UNL     1      17.677  52.269  49.602  1.00  0.00     0.000 A 
HETATM   19  C   UNL     1      17.783  50.984  50.131  1.00  0.00     0.001 A 
HETATM   20  C   UNL     1      18.823  50.141  49.728  1.00  0.00     0.014 A 
ENDBRANCH  11  15
BRANCH  13  21
HETATM   21  C   UNL     1      24.310  49.000  48.586  1.00  0.00     0.058 A 
HETATM   22  C   UNL     1      25.184  49.930  48.002  1.00  0.00     0.031 A 
HETATM   23  C   UNL     1      26.545  49.907  48.315  1.00  0.00     0.002 A 
HETATM   24  C   UNL     1      27.043  48.959  49.205  1.00  0.00     0.000 A 
HETATM   25  C   UNL     1      26.183  48.029  49.784  1.00  0.00     0.002 A 
HETATM   26  C   UNL     1      24.818  48.046  49.480  1.00  0.00     0.031 A 
ENDBRANCH  13  21
ENDBRANCH   7  10
BRANCH   1  27
HETATM   27  C   UNL     1      17.464  46.947  47.397  1.00  0.00     0.270 C 
HETATM   28  O   UNL     1      17.079  46.334  46.408  1.00  0.00    -0.265 OA
BRANCH  27  29
HETATM   29  O   UNL     1      16.648  47.652  48.225  1.00  0.00    -0.321 OA
BRANCH  29  30
HETATM   30  C   UNL     1      15.680  48.517  47.608  1.00  0.00     0.174 C 
HETATM   31  C   UNL     1      16.393  49.692  46.969  1.00  0.00     0.034 C 
ENDBRANCH  29  30
ENDBRANCH  27  29
ENDBRANCH   1  27
BRANCH   2  32
HETATM   32  C   UNL     1      20.771  45.462  48.883  1.00  0.00     0.439 C 
HETATM   33  F   UNL     1      21.935  45.363  48.202  1.00  0.00    -0.166 F 
HETATM   34  F   UNL     1      20.833  46.597  49.629  1.00  0.00    -0.166 F 
HETATM   35  F   UNL     1      20.718  44.441  49.763  1.00  0.00    -0.166 F 
ENDBRANCH   2  32
BRANCH   2  36
HETATM   36  O   UNL     1      18.558  44.558  48.397  1.00  0.00    -0.363 OA
HETATM   37  H   UNL     1      18.513  44.709  49.360  1.00  0.00     0.213 HD
ENDBRANCH   2  36
TORSDOF 8
ENDMDL
MODEL 5
REMARK VINA RESULT:      -7.6      6.894      9.821
REMARK  8 active torsions:
REMARK  status: ('A' for Active; 'I' for Inactive)
REMARK    1  A    between atoms: C_2  and  O_3 
REMARK    2  A    between atoms: O_3  and  C_4 
REMARK    3  A    between atoms: C_4  and  C_5 
REMARK    4  A    between atoms: C_6  and  C_8 
REMARK    5  A    between atoms: C_6  and  O_7 
REMARK    6  A    between atoms: C_16  and  C_17 
REMARK    7  A    between atoms: C_18  and  C_19 
REMARK    8  A    between atoms: N_26  and  C_27 
ROOT
HETATM    1  C   UNL     1      27.038  43.138  53.187  1.00  0.00     0.177 C 
HETATM    2  C   UNL     1      26.327  43.815  54.369  1.00  0.00     0.250 C 
HETATM    3  N   UNL     1      27.192  44.758  55.045  1.00  0.00    -0.303 N 
HETATM    4  C   UNL     1      28.084  45.539  54.397  1.00  0.00     0.319 C 
HETATM    5  O   UNL     1      28.586  46.515  54.935  1.00  0.00    -0.247 OA
HETATM    6  N   UNL     1      28.437  45.162  53.149  1.00  0.00    -0.333 N 
HETATM    7  C   UNL     1      27.797  44.148  52.327  1.00  0.00     0.142 C 
HETATM    8  H   UNL     1      26.874  45.148  55.926  1.00  0.00     0.167 HD
HETATM    9  H   UNL     1      29.115  45.777  52.713  1.00  0.00     0.165 HD
ENDROOT
BRANCH   7  10
HETATM   10  C   UNL     1      26.994  44.838  51.251  1.00  0.00     0.015 A 
HETATM   11  C   UNL     1      26.298  44.268  50.138  1.00  0.00     0.097 A 
HETATM   12  N   UNL     1      25.638  45.207  49.447  1.00  0.00    -0.167 NA
HETATM   13  N   UNL     1      25.900  46.380  50.063  1.00  0.00    -0.244 N 
HETATM   14  C   UNL     1      26.769  46.198  51.111  1.00  0.00     0.130 A 
BRANCH  11  15
HETATM   15  C   UNL     1      26.199  42.870  49.726  1.00  0.00    -0.005 A 
HETATM   16  C   UNL     1      27.361  42.088  49.641  1.00  0.00     0.014 A 
HETATM   17  C   UNL     1      27.291  40.753  49.235  1.00  0.00     0.001 A 
HETATM   18  C   UNL     1      26.060  40.188  48.912  1.00  0.00     0.000 A 
HETATM   19  C   UNL     1      24.898  40.953  49.004  1.00  0.00     0.001 A 
HETATM   20  C   UNL     1      24.964  42.287  49.416  1.00  0.00     0.014 A 
ENDBRANCH  11  15
BRANCH  13  21
HETATM   21  C   UNL     1      25.292  47.593  49.632  1.00  0.00     0.058 A 
HETATM   22  C   UNL     1      26.093  48.613  49.099  1.00  0.00     0.031 A 
HETATM   23  C   UNL     1      25.512  49.800  48.645  1.00  0.00     0.002 A 
HETATM   24  C   UNL     1      24.132  49.978  48.725  1.00  0.00     0.000 A 
HETATM   25  C   UNL     1      23.331  48.971  49.258  1.00  0.00     0.002 A 
HETATM   26  C   UNL     1      23.904  47.779  49.711  1.00  0.00     0.031 A 
ENDBRANCH  13  21
ENDBRANCH   7  10
BRANCH   1  27
HETATM   27  C   UNL     1      28.047  42.073  53.577  1.00  0.00     0.270 C 
HETATM   28  O   UNL     1      28.198  41.041  52.934  1.00  0.00    -0.265 OA
BRANCH  27  29
HETATM   29  O   UNL     1      28.809  42.427  54.647  1.00  0.00    -0.321 OA
BRANCH  29  30
HETATM   30  C   UNL     1      30.221  42.572  54.423  1.00  0.00     0.174 C 
HETATM   31  C   UNL     1      30.840  43.314  55.591  1.00  0.00     0.034 C 
ENDBRANCH  29  30
ENDBRANCH  27  29
ENDBRANCH   1  27
BRANCH   2  32
HETATM   32  C   UNL     1      24.977  44.484  53.915  1.00  0.00     0.439 C 
HETATM   33  F   UNL     1      24.477  43.906  52.799  1.00  0.00    -0.166 F 
HETATM   34  F   UNL     1      24.036  44.368  54.888  1.00  0.00    -0.166 F 
HETATM   35  F   UNL     1      25.103  45.806  53.675  1.00  0.00    -0.166 F 
ENDBRANCH   2  32
BRANCH   2  36
HETATM   36  O   UNL     1      26.027  42.839  55.377  1.00  0.00    -0.363 OA
HETATM   37  H   UNL     1      26.371  43.220  56.207  1.00  0.00     0.213 HD
ENDBRANCH   2  36
TORSDOF 8
ENDMDL
MODEL 6
REMARK VINA RESULT:      -7.4     24.330     26.988
REMARK  8 active torsions:
REMARK  status: ('A' for Active; 'I' for Inactive)
REMARK    1  A    between atoms: C_2  and  O_3 
REMARK    2  A    between atoms: O_3  and  C_4 
REMARK    3  A    between atoms: C_4  and  C_5 
REMARK    4  A    between atoms: C_6  and  C_8 
REMARK    5  A    between atoms: C_6  and  O_7 
REMARK    6  A    between atoms: C_16  and  C_17 
REMARK    7  A    between atoms: C_18  and  C_19 
REMARK    8  A    between atoms: N_26  and  C_27 
ROOT
HETATM    1  C   UNL     1      38.309  45.371  65.192  1.00  0.00     0.177 C 
HETATM    2  C   UNL     1      38.429  43.932  65.722  1.00  0.00     0.250 C 
HETATM    3  N   UNL     1      38.475  42.968  64.644  1.00  0.00    -0.303 N 
HETATM    4  C   UNL     1      39.112  43.196  63.474  1.00  0.00     0.319 C 
HETATM    5  O   UNL     1      39.386  42.283  62.708  1.00  0.00    -0.247 OA
HETATM    6  N   UNL     1      39.382  44.483  63.163  1.00  0.00    -0.333 N 
HETATM    7  C   UNL     1      39.282  45.635  64.044  1.00  0.00     0.142 C 
HETATM    8  H   UNL     1      38.403  41.984  64.882  1.00  0.00     0.167 HD
HETATM    9  H   UNL     1      39.851  44.598  62.272  1.00  0.00     0.165 HD
ENDROOT
BRANCH   7  10
HETATM   10  C   UNL     1      40.675  46.059  64.441  1.00  0.00     0.015 A 
HETATM   11  C   UNL     1      41.096  47.228  65.151  1.00  0.00     0.097 A 
HETATM   12  N   UNL     1      42.417  47.210  65.376  1.00  0.00    -0.167 NA
HETATM   13  N   UNL     1      42.877  46.072  64.813  1.00  0.00    -0.244 N 
HETATM   14  C   UNL     1      41.863  45.394  64.182  1.00  0.00     0.130 A 
BRANCH  11  15
HETATM   15  C   UNL     1      40.295  48.339  65.662  1.00  0.00    -0.005 A 
HETATM   16  C   UNL     1      40.357  48.669  67.024  1.00  0.00     0.014 A 
HETATM   17  C   UNL     1      39.589  49.716  67.537  1.00  0.00     0.001 A 
HETATM   18  C   UNL     1      38.755  50.445  66.693  1.00  0.00     0.000 A 
HETATM   19  C   UNL     1      38.695  50.134  65.335  1.00  0.00     0.001 A 
HETATM   20  C   UNL     1      39.467  49.089  64.818  1.00  0.00     0.014 A 
ENDBRANCH  11  15
BRANCH  13  21
HETATM   21  C   UNL     1      44.244  45.692  64.928  1.00  0.00     0.058 A 
HETATM   22  C   UNL     1      45.238  46.524  64.392  1.00  0.00     0.031 A 
HETATM   23  C   UNL     1      46.587  46.181  64.519  1.00  0.00     0.002 A 
HETATM   24  C   UNL     1      46.951  45.007  65.175  1.00  0.00     0.000 A 
HETATM   25  C   UNL     1      45.970  44.174  65.705  1.00  0.00     0.002 A 
HETATM   26  C   UNL     1      44.618  44.510  65.586  1.00  0.00     0.031 A 
ENDBRANCH  13  21
ENDBRANCH   7  10
BRANCH   1  27
HETATM   27  C   UNL     1      36.932  45.745  64.675  1.00  0.00     0.270 C 
HETATM   28  O   UNL     1      36.606  45.597  63.503  1.00  0.00    -0.265 OA
BRANCH  27  29
HETATM   29  O   UNL     1      36.091  46.169  65.655  1.00  0.00    -0.321 OA
BRANCH  29  30
HETATM   30  C   UNL     1      35.954  47.589  65.829  1.00  0.00     0.174 C 
HETATM   31  C   UNL     1      36.212  47.944  67.280  1.00  0.00     0.034 C 
ENDBRANCH  29  30
ENDBRANCH  27  29
ENDBRANCH   1  27
BRANCH   2  32
HETATM   32  C   UNL     1      39.659  43.783  66.692  1.00  0.00     0.439 C 
HETATM   33  F   UNL     1      40.049  44.973  67.200  1.00  0.00    -0.166 F 
HETATM   34  F   UNL     1      39.344  42.978  67.741  1.00  0.00    -0.166 F 
HETATM   35  F   UNL     1      40.728  43.216  66.097  1.00  0.00    -0.166 F 
ENDBRANCH   2  32
BRANCH   2  36
HETATM   36  O   UNL     1      37.240  43.583  66.446  1.00  0.00    -0.363 OA
HETATM   37  H   UNL     1      36.646  43.190  65.778  1.00  0.00     0.213 HD
ENDBRANCH   2  36
TORSDOF 8
ENDMDL
MODEL 7
REMARK VINA RESULT:      -7.4      2.697      4.995
REMARK  8 active torsions:
REMARK  status: ('A' for Active; 'I' for Inactive)
REMARK    1  A    between atoms: C_2  and  O_3 
REMARK    2  A    between atoms: O_3  and  C_4 
REMARK    3  A    between atoms: C_4  and  C_5 
REMARK    4  A    between atoms: C_6  and  C_8 
REMARK    5  A    between atoms: C_6  and  O_7 
REMARK    6  A    between atoms: C_16  and  C_17 
REMARK    7  A    between atoms: C_18  and  C_19 
REMARK    8  A    between atoms: N_26  and  C_27 
ROOT
HETATM    1  C   UNL     1      18.056  48.218  46.494  1.00  0.00     0.177 C 
HETATM    2  C   UNL     1      17.456  46.831  46.777  1.00  0.00     0.250 C 
HETATM    3  N   UNL     1      17.787  45.882  45.736  1.00  0.00    -0.303 N 
HETATM    4  C   UNL     1      18.981  45.865  45.104  1.00  0.00     0.319 C 
HETATM    5  O   UNL     1      19.343  44.897  44.450  1.00  0.00    -0.247 OA
HETATM    6  N   UNL     1      19.732  46.985  45.179  1.00  0.00    -0.333 N 
HETATM    7  C   UNL     1      19.517  48.125  46.056  1.00  0.00     0.142 C 
HETATM    8  H   UNL     1      17.320  44.981  45.747  1.00  0.00     0.167 HD
HETATM    9  H   UNL     1      20.612  46.922  44.680  1.00  0.00     0.165 HD
ENDROOT
BRANCH   7  10
HETATM   10  C   UNL     1      20.539  48.078  47.165  1.00  0.00     0.015 A 
HETATM   11  C   UNL     1      20.689  48.946  48.293  1.00  0.00     0.097 A 
HETATM   12  N   UNL     1      21.677  48.529  49.097  1.00  0.00    -0.167 NA
HETATM   13  N   UNL     1      22.193  47.425  48.516  1.00  0.00    -0.244 N 
HETATM   14  C   UNL     1      21.575  47.169  47.317  1.00  0.00     0.130 A 
BRANCH  11  15
HETATM   15  C   UNL     1      19.911  50.127  48.662  1.00  0.00    -0.005 A 
HETATM   16  C   UNL     1      19.064  50.077  49.780  1.00  0.00     0.014 A 
HETATM   17  C   UNL     1      18.300  51.188  50.142  1.00  0.00     0.001 A 
HETATM   18  C   UNL     1      18.376  52.358  49.392  1.00  0.00     0.000 A 
HETATM   19  C   UNL     1      19.223  52.423  48.286  1.00  0.00     0.001 A 
HETATM   20  C   UNL     1      19.994  51.314  47.925  1.00  0.00     0.014 A 
ENDBRANCH  11  15
BRANCH  13  21
HETATM   21  C   UNL     1      23.224  46.673  49.146  1.00  0.00     0.058 A 
HETATM   22  C   UNL     1      24.155  47.330  49.965  1.00  0.00     0.031 A 
HETATM   23  C   UNL     1      25.157  46.605  50.614  1.00  0.00     0.002 A 
HETATM   24  C   UNL     1      25.241  45.224  50.447  1.00  0.00     0.000 A 
HETATM   25  C   UNL     1      24.324  44.565  49.632  1.00  0.00     0.002 A 
HETATM   26  C   UNL     1      23.316  45.283  48.981  1.00  0.00     0.031 A 
ENDBRANCH  13  21
ENDBRANCH   7  10
BRANCH   1  27
HETATM   27  C   UNL     1      17.341  49.011  45.415  1.00  0.00     0.270 C 
HETATM   28  O   UNL     1      16.963  48.505  44.365  1.00  0.00    -0.265 OA
BRANCH  27  29
HETATM   29  O   UNL     1      17.091  50.298  45.777  1.00  0.00    -0.321 OA
BRANCH  29  30
HETATM   30  C   UNL     1      15.745  50.619  46.164  1.00  0.00     0.174 C 
HETATM   31  C   UNL     1      15.621  50.524  47.672  1.00  0.00     0.034 C 
ENDBRANCH  29  30
ENDBRANCH  27  29
ENDBRANCH   1  27
BRANCH   2  32
HETATM   32  C   UNL     1      17.878  46.307  48.199  1.00  0.00     0.439 C 
HETATM   33  F   UNL     1      18.073  47.320  49.073  1.00  0.00    -0.166 F 
HETATM   34  F   UNL     1      16.912  45.504  48.719  1.00  0.00    -0.166 F 
HETATM   35  F   UNL     1      19.003  45.564  48.170  1.00  0.00    -0.166 F 
ENDBRANCH   2  32
BRANCH   2  36
HETATM   36  O   UNL     1      16.023  46.905  46.733  1.00  0.00    -0.363 OA
HETATM   37  H   UNL     1      15.805  47.780  47.108  1.00  0.00     0.213 HD
ENDBRANCH   2  36
TORSDOF 8
ENDMDL
MODEL 8
REMARK VINA RESULT:      -7.3     11.029     12.393
REMARK  8 active torsions:
REMARK  status: ('A' for Active; 'I' for Inactive)
REMARK    1  A    between atoms: C_2  and  O_3 
REMARK    2  A    between atoms: O_3  and  C_4 
REMARK    3  A    between atoms: C_4  and  C_5 
REMARK    4  A    between atoms: C_6  and  C_8 
REMARK    5  A    between atoms: C_6  and  O_7 
REMARK    6  A    between atoms: C_16  and  C_17 
REMARK    7  A    between atoms: C_18  and  C_19 
REMARK    8  A    between atoms: N_26  and  C_27 
ROOT
HETATM    1  C   UNL     1      27.501  49.595  39.362  1.00  0.00     0.177 C 
HETATM    2  C   UNL     1      27.712  51.000  38.776  1.00  0.00     0.250 C 
HETATM    3  N   UNL     1      27.288  52.032  39.698  1.00  0.00    -0.303 N 
HETATM    4  C   UNL     1      27.458  51.945  41.035  1.00  0.00     0.319 C 
HETATM    5  O   UNL     1      27.365  52.928  41.756  1.00  0.00    -0.247 OA
HETATM    6  N   UNL     1      27.679  50.714  41.546  1.00  0.00    -0.333 N 
HETATM    7  C   UNL     1      27.992  49.502  40.806  1.00  0.00     0.142 C 
HETATM    8  H   UNL     1      27.244  52.987  39.355  1.00  0.00     0.167 HD
HETATM    9  H   UNL     1      27.790  50.704  42.554  1.00  0.00     0.165 HD
ENDROOT
BRANCH   7  10
HETATM   10  C   UNL     1      29.458  49.193  40.988  1.00  0.00     0.015 A 
HETATM   11  C   UNL     1      30.197  48.041  40.570  1.00  0.00     0.097 A 
HETATM   12  N   UNL     1      31.500  48.172  40.853  1.00  0.00    -0.167 NA
HETATM   13  N   UNL     1      31.632  49.367  41.467  1.00  0.00    -0.244 N 
HETATM   14  C   UNL     1      30.410  49.973  41.625  1.00  0.00     0.130 A 
BRANCH  11  15
HETATM   15  C   UNL     1      29.729  46.843  39.876  1.00  0.00    -0.005 A 
HETATM   16  C   UNL     1      28.682  46.088  40.425  1.00  0.00     0.014 A 
HETATM   17  C   UNL     1      28.229  44.932  39.788  1.00  0.00     0.001 A 
HETATM   18  C   UNL     1      28.817  44.520  38.594  1.00  0.00     0.000 A 
HETATM   19  C   UNL     1      29.850  45.269  38.033  1.00  0.00     0.001 A 
HETATM   20  C   UNL     1      30.302  46.431  38.666  1.00  0.00     0.014 A 
ENDBRANCH  11  15
BRANCH  13  21
HETATM   21  C   UNL     1      32.911  49.866  41.844  1.00  0.00     0.058 A 
HETATM   22  C   UNL     1      34.064  49.317  41.263  1.00  0.00     0.031 A 
HETATM   23  C   UNL     1      35.326  49.812  41.600  1.00  0.00     0.002 A 
HETATM   24  C   UNL     1      35.447  50.852  42.520  1.00  0.00     0.000 A 
HETATM   25  C   UNL     1      34.307  51.398  43.105  1.00  0.00     0.002 A 
HETATM   26  C   UNL     1      33.040  50.911  42.772  1.00  0.00     0.031 A 
ENDBRANCH  13  21
ENDBRANCH   7  10
BRANCH   1  27
HETATM   27  C   UNL     1      26.059  49.121  39.375  1.00  0.00     0.270 C 
HETATM   28  O   UNL     1      25.117  49.883  39.561  1.00  0.00    -0.265 OA
BRANCH  27  29
HETATM   29  O   UNL     1      25.928  47.802  39.072  1.00  0.00    -0.321 OA
BRANCH  29  30
HETATM   30  C   UNL     1      25.450  47.477  37.757  1.00  0.00     0.174 C 
HETATM   31  C   UNL     1      26.584  46.887  36.942  1.00  0.00     0.034 C 
ENDBRANCH  29  30
ENDBRANCH  27  29
ENDBRANCH   1  27
BRANCH   2  32
HETATM   32  C   UNL     1      29.201  51.207  38.313  1.00  0.00     0.439 C 
HETATM   33  F   UNL     1      29.811  50.033  38.032  1.00  0.00    -0.166 F 
HETATM   34  F   UNL     1      29.249  51.967  37.187  1.00  0.00    -0.166 F 
HETATM   35  F   UNL     1      29.950  51.853  39.229  1.00  0.00    -0.166 F 
ENDBRANCH   2  32
BRANCH   2  36
HETATM   36  O   UNL     1      26.857  51.183  37.638  1.00  0.00    -0.363 OA
HETATM   37  H   UNL     1      25.959  50.986  37.964  1.00  0.00     0.213 HD
ENDBRANCH   2  36
TORSDOF 8
ENDMDL
MODEL 9
REMARK VINA RESULT:      -7.2     24.560     27.466
REMARK  8 active torsions:
REMARK  status: ('A' for Active; 'I' for Inactive)
REMARK    1  A    between atoms: C_2  and  O_3 
REMARK    2  A    between atoms: O_3  and  C_4 
REMARK    3  A    between atoms: C_4  and  C_5 
REMARK    4  A    between atoms: C_6  and  C_8 
REMARK    5  A    between atoms: C_6  and  O_7 
REMARK    6  A    between atoms: C_16  and  C_17 
REMARK    7  A    between atoms: C_18  and  C_19 
REMARK    8  A    between atoms: N_26  and  C_27 
ROOT
HETATM    1  C   UNL     1      41.430  46.594  66.306  1.00  0.00     0.177 C 
HETATM    2  C   UNL     1      42.815  46.296  65.709  1.00  0.00     0.250 C 
HETATM    3  N   UNL     1      43.674  45.625  66.661  1.00  0.00    -0.303 N 
HETATM    4  C   UNL     1      43.225  44.703  67.539  1.00  0.00     0.319 C 
HETATM    5  O   UNL     1      43.993  43.949  68.121  1.00  0.00    -0.247 OA
HETATM    6  N   UNL     1      41.898  44.687  67.788  1.00  0.00    -0.333 N 
HETATM    7  C   UNL     1      40.860  45.386  67.048  1.00  0.00     0.142 C 
HETATM    8  H   UNL     1      44.654  45.516  66.422  1.00  0.00     0.167 HD
HETATM    9  H   UNL     1      41.616  43.983  68.461  1.00  0.00     0.165 HD
ENDROOT
BRANCH   7  10
HETATM   10  C   UNL     1      40.112  44.383  66.205  1.00  0.00     0.015 A 
HETATM   11  C   UNL     1      38.857  44.525  65.531  1.00  0.00     0.097 A 
HETATM   12  N   UNL     1      38.561  43.428  64.820  1.00  0.00    -0.167 NA
HETATM   13  N   UNL     1      39.576  42.563  65.027  1.00  0.00    -0.244 N 
HETATM   14  C   UNL     1      40.490  43.082  65.911  1.00  0.00     0.130 A 
BRANCH  11  15
HETATM   15  C   UNL     1      37.949  45.670  65.499  1.00  0.00    -0.005 A 
HETATM   16  C   UNL     1      37.536  46.192  64.264  1.00  0.00     0.014 A 
HETATM   17  C   UNL     1      36.681  47.295  64.209  1.00  0.00     0.001 A 
HETATM   18  C   UNL     1      36.230  47.884  65.387  1.00  0.00     0.000 A 
HETATM   19  C   UNL     1      36.624  47.366  66.620  1.00  0.00     0.001 A 
HETATM   20  C   UNL     1      37.475  46.258  66.677  1.00  0.00     0.014 A 
ENDBRANCH  11  15
BRANCH  13  21
HETATM   21  C   UNL     1      39.625  41.308  64.356  1.00  0.00     0.058 A 
HETATM   22  C   UNL     1      39.277  41.238  62.999  1.00  0.00     0.031 A 
HETATM   23  C   UNL     1      39.345  40.021  62.317  1.00  0.00     0.002 A 
HETATM   24  C   UNL     1      39.753  38.868  62.982  1.00  0.00     0.000 A 
HETATM   25  C   UNL     1      40.095  38.928  64.332  1.00  0.00     0.002 A 
HETATM   26  C   UNL     1      40.033  40.142  65.022  1.00  0.00     0.031 A 
ENDBRANCH  13  21
ENDBRANCH   7  10
BRANCH   1  27
HETATM   27  C   UNL     1      41.397  47.749  67.290  1.00  0.00     0.270 C 
HETATM   28  O   UNL     1      42.203  47.857  68.206  1.00  0.00    -0.265 OA
BRANCH  27  29
HETATM   29  O   UNL     1      40.449  48.677  66.992  1.00  0.00    -0.321 OA
BRANCH  29  30
HETATM   30  C   UNL     1      40.040  48.776  65.618  1.00  0.00     0.174 C 
HETATM   31  C   UNL     1      39.248  50.054  65.420  1.00  0.00     0.034 C 
ENDBRANCH  29  30
ENDBRANCH  27  29
ENDBRANCH   1  27
BRANCH   2  32
HETATM   32  C   UNL     1      42.694  45.491  64.363  1.00  0.00     0.439 C 
HETATM   33  F   UNL     1      41.471  45.625  63.802  1.00  0.00    -0.166 F 
HETATM   34  F   UNL     1      43.606  45.934  63.458  1.00  0.00    -0.166 F 
HETATM   35  F   UNL     1      42.935  44.173  64.518  1.00  0.00    -0.166 F 
ENDBRANCH   2  32
BRANCH   2  36
HETATM   36  O   UNL     1      43.499  47.528  65.436  1.00  0.00    -0.363 OA
HETATM   37  H   UNL     1      44.415  47.379  65.737  1.00  0.00     0.213 HD
ENDBRANCH   2  36
TORSDOF 8
ENDMDL
MODEL 10
REMARK VINA RESULT:      -7.1     24.006     25.945
REMARK  8 active torsions:
REMARK  status: ('A' for Active; 'I' for Inactive)
REMARK    1  A    between atoms: C_2  and  O_3 
REMARK    2  A    between atoms: O_3  and  C_4 
REMARK    3  A    between atoms: C_4  and  C_5 
REMARK    4  A    between atoms: C_6  and  C_8 
REMARK    5  A    between atoms: C_6  and  O_7 
REMARK    6  A    between atoms: C_16  and  C_17 
REMARK    7  A    between atoms: C_18  and  C_19 
REMARK    8  A    between atoms: N_26  and  C_27 
ROOT
HETATM    1  C   UNL     1      39.643  45.047  65.282  1.00  0.00     0.177 C 
HETATM    2  C   UNL     1      39.586  46.136  66.366  1.00  0.00     0.250 C 
HETATM    3  N   UNL     1      39.044  47.375  65.850  1.00  0.00    -0.303 N 
HETATM    4  C   UNL     1      38.042  47.423  64.946  1.00  0.00     0.319 C 
HETATM    5  O   UNL     1      37.411  48.452  64.747  1.00  0.00    -0.247 OA
HETATM    6  N   UNL     1      37.805  46.301  64.231  1.00  0.00    -0.333 N 
HETATM    7  C   UNL     1      38.342  44.974  64.483  1.00  0.00     0.142 C 
HETATM    8  H   UNL     1      39.101  48.200  66.438  1.00  0.00     0.167 HD
HETATM    9  H   UNL     1      37.050  46.395  63.561  1.00  0.00     0.165 HD
ENDROOT
BRANCH   7  10
HETATM   10  C   UNL     1      37.249  44.117  65.073  1.00  0.00     0.015 A 
HETATM   11  C   UNL     1      37.083  42.697  65.015  1.00  0.00     0.097 A 
HETATM   12  N   UNL     1      36.020  42.303  65.729  1.00  0.00    -0.167 NA
HETATM   13  N   UNL     1      35.471  43.427  66.235  1.00  0.00    -0.244 N 
HETATM   14  C   UNL     1      36.147  44.541  65.801  1.00  0.00     0.130 A 
BRANCH  11  15
HETATM   15  C   UNL     1      37.912  41.695  64.347  1.00  0.00    -0.005 A 
HETATM   16  C   UNL     1      38.264  40.521  65.029  1.00  0.00     0.014 A 
HETATM   17  C   UNL     1      39.068  39.557  64.417  1.00  0.00     0.001 A 
HETATM   18  C   UNL     1      39.526  39.758  63.117  1.00  0.00     0.000 A 
HETATM   19  C   UNL     1      39.173  40.916  62.426  1.00  0.00     0.001 A 
HETATM   20  C   UNL     1      38.363  41.879  63.035  1.00  0.00     0.014 A 
ENDBRANCH  11  15
BRANCH  13  21
HETATM   21  C   UNL     1      34.354  43.372  67.116  1.00  0.00     0.058 A 
HETATM   22  C   UNL     1      33.147  42.816  66.663  1.00  0.00     0.031 A 
HETATM   23  C   UNL     1      32.048  42.728  67.521  1.00  0.00     0.002 A 
HETATM   24  C   UNL     1      32.142  43.196  68.830  1.00  0.00     0.000 A 
HETATM   25  C   UNL     1      33.335  43.754  69.284  1.00  0.00     0.002 A 
HETATM   26  C   UNL     1      34.441  43.844  68.434  1.00  0.00     0.031 A 
ENDBRANCH  13  21
ENDBRANCH   7  10
BRANCH   1  27
HETATM   27  C   UNL     1      40.755  45.219  64.265  1.00  0.00     0.270 C 
HETATM   28  O   UNL     1      41.042  46.307  63.779  1.00  0.00    -0.265 OA
BRANCH  27  29
HETATM   29  O   UNL     1      41.442  44.070  64.025  1.00  0.00    -0.321 OA
BRANCH  29  30
HETATM   30  C   UNL     1      42.158  43.494  65.130  1.00  0.00     0.174 C 
HETATM   31  C   UNL     1      41.636  42.095  65.392  1.00  0.00     0.034 C 
ENDBRANCH  29  30
ENDBRANCH  27  29
ENDBRANCH   1  27
BRANCH   2  32
HETATM   32  C   UNL     1      38.802  45.638  67.635  1.00  0.00     0.439 C 
HETATM   33  F   UNL     1      39.402  46.022  68.783  1.00  0.00    -0.166 F 
HETATM   34  F   UNL     1      37.541  46.148  67.647  1.00  0.00    -0.166 F 
HETATM   35  F   UNL     1      38.660  44.297  67.669  1.00  0.00    -0.166 F 
ENDBRANCH   2  32
BRANCH   2  36
HETATM   36  O   UNL     1      40.919  46.485  66.769  1.00  0.00    -0.363 OA
HETATM   37  H   UNL     1      41.047  46.038  67.628  1.00  0.00     0.213 HD
ENDBRANCH   2  36
TORSDOF 8
ENDMDL
