MODEL 1
REMARK VINA RESULT:      -9.6      0.000      0.000
REMARK  7 active torsions:
REMARK  status: ('A' for Active; 'I' for Inactive)
REMARK    1  A    between atoms: O_2  and  C_3 
REMARK    2  A    between atoms: C_6  and  C_7 
REMARK    3  A    between atoms: C_11  and  C_12 
REMARK       I    between atoms: C_12  and  N_13 
REMARK    4  A    between atoms: N_13  and  N_14 
REMARK       I    between atoms: N_14  and  C_15 
REMARK    5  A    between atoms: C_15  and  C_16 
REMARK    6  A    between atoms: C_16  and  C_17 
REMARK    7  A    between atoms: C_17  and  C_18 
ROOT
HETATM    1  C   UNL     1      25.195  48.274  49.605  1.00  0.00     0.288 C 
HETATM    2  N   UNL     1      24.757  47.436  50.609  1.00  0.00    -0.262 N 
HETATM    3  O   UNL     1      26.380  48.327  49.281  1.00  0.00    -0.264 OA
HETATM    4  H   UNL     1      23.782  47.333  50.882  1.00  0.00     0.190 HD
ENDROOT
BRANCH   1   5
HETATM    5  C   UNL     1      24.179  49.057  48.962  1.00  0.00     0.121 A 
HETATM    6  N   UNL     1      24.434  49.764  47.821  1.00  0.00    -0.272 N 
HETATM    7  N   UNL     1      23.369  50.406  47.321  1.00  0.00    -0.174 NA
HETATM    8  H   UNL     1      25.321  49.830  47.329  1.00  0.00     0.189 HD
HETATM    9  C   UNL     1      22.372  50.131  48.177  1.00  0.00     0.089 A 
HETATM   10  C   UNL     1      22.845  49.295  49.228  1.00  0.00     0.071 A 
BRANCH   9  11
HETATM   11  C   UNL     1      21.011  50.631  47.962  1.00  0.00    -0.005 A 
HETATM   12  C   UNL     1      20.521  51.700  48.727  1.00  0.00     0.016 A 
HETATM   13  C   UNL     1      19.239  52.219  48.505  1.00  0.00     0.037 A 
HETATM   14  C   UNL     1      18.426  51.673  47.515  1.00  0.00     0.068 A 
HETATM   15  C   UNL     1      18.896  50.592  46.767  1.00  0.00     0.037 A 
HETATM   16  C   UNL     1      20.179  50.075  46.983  1.00  0.00     0.016 A 
BRANCH  14  17
HETATM   17  O   UNL     1      17.166  52.092  47.188  1.00  0.00    -0.356 OA
HETATM   18  C   UNL     1      16.179  51.081  47.029  1.00  0.00     0.210 C 
ENDBRANCH  14  17
ENDBRANCH   9  11
ENDBRANCH   1   5
BRANCH   2  19
HETATM   19  N   UNL     1      25.675  46.584  51.228  1.00  0.00    -0.267 N 
HETATM   20  C   UNL     1      25.935  46.773  52.568  1.00  0.00     0.236 C 
HETATM   21  O   UNL     1      25.469  47.713  53.209  1.00  0.00    -0.272 OA
HETATM   22  H   UNL     1      25.929  45.739  50.717  1.00  0.00     0.190 HD
BRANCH  20  23
HETATM   23  C   UNL     1      26.841  45.732  53.177  1.00  0.00     0.109 C 
BRANCH  23  24
HETATM   24  C   UNL     1      27.033  45.982  54.669  1.00  0.00     0.048 C 
BRANCH  24  25
HETATM   25  C   UNL     1      28.300  45.343  55.186  1.00  0.00    -0.058 A 
HETATM   26  C   UNL     1      29.028  45.940  56.224  1.00  0.00     0.009 A 
HETATM   27  C   UNL     1      30.205  45.350  56.693  1.00  0.00     0.024 A 
HETATM   28  C   UNL     1      30.658  44.163  56.125  1.00  0.00     0.034 A 
HETATM   29 CL   UNL     1      32.107  43.438  56.702  1.00  0.00    -0.084 Cl
HETATM   30  C   UNL     1      29.946  43.559  55.091  1.00  0.00     0.024 A 
HETATM   31  C   UNL     1      28.769  44.147  54.624  1.00  0.00     0.009 A 
ENDBRANCH  24  25
ENDBRANCH  23  24
ENDBRANCH  20  23
ENDBRANCH   2  19
TORSDOF 7
ENDMDL
MODEL 2
REMARK VINA RESULT:      -9.6      4.262     11.838
REMARK  7 active torsions:
REMARK  status: ('A' for Active; 'I' for Inactive)
REMARK    1  A    between atoms: O_2  and  C_3 
REMARK    2  A    between atoms: C_6  and  C_7 
REMARK    3  A    between atoms: C_11  and  C_12 
REMARK       I    between atoms: C_12  and  N_13 
REMARK    4  A    between atoms: N_13  and  N_14 
REMARK       I    between atoms: N_14  and  C_15 
REMARK    5  A    between atoms: C_15  and  C_16 
REMARK    6  A    between atoms: C_16  and  C_17 
REMARK    7  A    between atoms: C_17  and  C_18 
ROOT
HETATM    1  C   UNL     1      24.238  44.789  51.036  1.00  0.00     0.288 C 
HETATM    2  N   UNL     1      24.336  46.073  50.543  1.00  0.00    -0.262 N 
HETATM    3  O   UNL     1      23.279  44.066  50.769  1.00  0.00    -0.264 OA
HETATM    4  H   UNL     1      25.129  46.689  50.707  1.00  0.00     0.190 HD
ENDROOT
BRANCH   1   5
HETATM    5  C   UNL     1      25.329  44.354  51.861  1.00  0.00     0.121 A 
HETATM    6  N   UNL     1      25.766  43.060  51.849  1.00  0.00    -0.272 N 
HETATM    7  N   UNL     1      26.822  42.828  52.641  1.00  0.00    -0.174 NA
HETATM    8  H   UNL     1      25.386  42.293  51.303  1.00  0.00     0.189 HD
HETATM    9  C   UNL     1      27.083  44.012  53.218  1.00  0.00     0.089 A 
HETATM   10  C   UNL     1      26.159  44.994  52.761  1.00  0.00     0.071 A 
BRANCH   9  11
HETATM   11  C   UNL     1      28.204  44.188  54.145  1.00  0.00    -0.005 A 
HETATM   12  C   UNL     1      28.339  45.379  54.874  1.00  0.00     0.016 A 
HETATM   13  C   UNL     1      29.379  45.547  55.798  1.00  0.00     0.037 A 
HETATM   14  C   UNL     1      30.303  44.524  56.004  1.00  0.00     0.068 A 
HETATM   15  C   UNL     1      30.191  43.346  55.263  1.00  0.00     0.037 A 
HETATM   16  C   UNL     1      29.149  43.174  54.343  1.00  0.00     0.016 A 
BRANCH  14  17
HETATM   17  O   UNL     1      31.352  44.553  56.880  1.00  0.00    -0.356 OA
HETATM   18  C   UNL     1      31.999  43.314  57.141  1.00  0.00     0.210 C 
ENDBRANCH  14  17
ENDBRANCH   9  11
ENDBRANCH   1   5
BRANCH   2  19
HETATM   19  N   UNL     1      23.351  46.538  49.668  1.00  0.00    -0.267 N 
HETATM   20  C   UNL     1      23.371  47.870  49.317  1.00  0.00     0.236 C 
HETATM   21  O   UNL     1      24.154  48.677  49.815  1.00  0.00    -0.272 OA
HETATM   22  H   UNL     1      22.815  45.830  49.166  1.00  0.00     0.190 HD
BRANCH  20  23
HETATM   23  C   UNL     1      22.349  48.253  48.276  1.00  0.00     0.109 C 
BRANCH  23  24
HETATM   24  C   UNL     1      22.416  49.746  47.969  1.00  0.00     0.048 C 
BRANCH  24  25
HETATM   25  C   UNL     1      21.168  50.468  48.417  1.00  0.00    -0.058 A 
HETATM   26  C   UNL     1      20.174  50.816  47.493  1.00  0.00     0.009 A 
HETATM   27  C   UNL     1      19.024  51.491  47.911  1.00  0.00     0.024 A 
HETATM   28  C   UNL     1      18.867  51.824  49.254  1.00  0.00     0.034 A 
HETATM   29 CL   UNL     1      17.452  52.656  49.768  1.00  0.00    -0.084 Cl
HETATM   30  C   UNL     1      19.847  51.486  50.184  1.00  0.00     0.024 A 
HETATM   31  C   UNL     1      20.995  50.809  49.766  1.00  0.00     0.009 A 
ENDBRANCH  24  25
ENDBRANCH  23  24
ENDBRANCH  20  23
ENDBRANCH   2  19
TORSDOF 7
ENDMDL
MODEL 3
REMARK VINA RESULT:      -9.6      4.300     11.797
REMARK  7 active torsions:
REMARK  status: ('A' for Active; 'I' for Inactive)
REMARK    1  A    between atoms: O_2  and  C_3 
REMARK    2  A    between atoms: C_6  and  C_7 
REMARK    3  A    between atoms: C_11  and  C_12 
REMARK       I    between atoms: C_12  and  N_13 
REMARK    4  A    between atoms: N_13  and  N_14 
REMARK       I    between atoms: N_14  and  C_15 
REMARK    5  A    between atoms: C_15  and  C_16 
REMARK    6  A    between atoms: C_16  and  C_17 
REMARK    7  A    between atoms: C_17  and  C_18 
ROOT
HETATM    1  C   UNL     1      24.525  45.695  50.645  1.00  0.00     0.288 C 
HETATM    2  N   UNL     1      24.379  47.065  50.639  1.00  0.00    -0.262 N 
HETATM    3  O   UNL     1      23.726  44.958  50.069  1.00  0.00    -0.264 OA
HETATM    4  H   UNL     1      25.036  47.712  51.068  1.00  0.00     0.190 HD
ENDROOT
BRANCH   1   5
HETATM    5  C   UNL     1      25.672  45.195  51.347  1.00  0.00     0.121 A 
HETATM    6  N   UNL     1      26.564  44.347  50.754  1.00  0.00    -0.272 N 
HETATM    7  N   UNL     1      27.602  44.009  51.530  1.00  0.00    -0.174 NA
HETATM    8  H   UNL     1      26.518  43.977  49.809  1.00  0.00     0.189 HD
HETATM    9  C   UNL     1      27.380  44.642  52.693  1.00  0.00     0.089 A 
HETATM   10  C   UNL     1      26.170  45.388  52.621  1.00  0.00     0.071 A 
BRANCH   9  11
HETATM   11  C   UNL     1      28.322  44.552  53.812  1.00  0.00    -0.005 A 
HETATM   12  C   UNL     1      29.144  43.424  53.957  1.00  0.00     0.016 A 
HETATM   13  C   UNL     1      30.080  43.341  54.995  1.00  0.00     0.037 A 
HETATM   14  C   UNL     1      30.207  44.386  55.908  1.00  0.00     0.068 A 
HETATM   15  C   UNL     1      29.375  45.500  55.786  1.00  0.00     0.037 A 
HETATM   16  C   UNL     1      28.442  45.588  54.746  1.00  0.00     0.016 A 
BRANCH  14  17
HETATM   17  O   UNL     1      31.086  44.437  56.954  1.00  0.00    -0.356 OA
HETATM   18  C   UNL     1      31.892  43.286  57.166  1.00  0.00     0.210 C 
ENDBRANCH  14  17
ENDBRANCH   9  11
ENDBRANCH   1   5
BRANCH   2  19
HETATM   19  N   UNL     1      23.330  47.630  49.908  1.00  0.00    -0.267 N 
HETATM   20  C   UNL     1      23.581  48.785  49.200  1.00  0.00     0.236 C 
HETATM   21  O   UNL     1      24.652  49.385  49.264  1.00  0.00    -0.272 OA
HETATM   22  H   UNL     1      22.511  47.043  49.757  1.00  0.00     0.190 HD
BRANCH  20  23
HETATM   23  C   UNL     1      22.429  49.251  48.345  1.00  0.00     0.109 C 
BRANCH  23  24
HETATM   24  C   UNL     1      22.218  50.756  48.487  1.00  0.00     0.048 C 
BRANCH  24  25
HETATM   25  C   UNL     1      20.800  51.088  48.885  1.00  0.00    -0.058 A 
HETATM   26  C   UNL     1      20.169  50.389  49.924  1.00  0.00     0.009 A 
HETATM   27  C   UNL     1      18.854  50.694  50.284  1.00  0.00     0.024 A 
HETATM   28  C   UNL     1      18.164  51.694  49.605  1.00  0.00     0.034 A 
HETATM   29 CL   UNL     1      16.544  52.067  50.048  1.00  0.00    -0.084 Cl
HETATM   30  C   UNL     1      18.777  52.395  48.569  1.00  0.00     0.024 A 
HETATM   31  C   UNL     1      20.092  52.093  48.211  1.00  0.00     0.009 A 
ENDBRANCH  24  25
ENDBRANCH  23  24
ENDBRANCH  20  23
ENDBRANCH   2  19
TORSDOF 7
ENDMDL
MODEL 4
REMARK VINA RESULT:      -8.9      4.450     11.705
REMARK  7 active torsions:
REMARK  status: ('A' for Active; 'I' for Inactive)
REMARK    1  A    between atoms: O_2  and  C_3 
REMARK    2  A    between atoms: C_6  and  C_7 
REMARK    3  A    between atoms: C_11  and  C_12 
REMARK       I    between atoms: C_12  and  N_13 
REMARK    4  A    between atoms: N_13  and  N_14 
REMARK       I    between atoms: N_14  and  C_15 
REMARK    5  A    between atoms: C_15  and  C_16 
REMARK    6  A    between atoms: C_16  and  C_17 
REMARK    7  A    between atoms: C_17  and  C_18 
ROOT
HETATM    1  C   UNL     1      23.903  48.165  49.550  1.00  0.00     0.288 C 
HETATM    2  N   UNL     1      22.542  48.310  49.720  1.00  0.00    -0.262 N 
HETATM    3  O   UNL     1      24.518  48.803  48.697  1.00  0.00    -0.264 OA
HETATM    4  H   UNL     1      22.002  47.832  50.437  1.00  0.00     0.190 HD
ENDROOT
BRANCH   1   5
HETATM    5  C   UNL     1      24.546  47.241  50.441  1.00  0.00     0.121 A 
HETATM    6  N   UNL     1      24.114  45.952  50.572  1.00  0.00    -0.272 N 
HETATM    7  N   UNL     1      24.849  45.207  51.409  1.00  0.00    -0.174 NA
HETATM    8  H   UNL     1      23.325  45.522  50.098  1.00  0.00     0.189 HD
HETATM    9  C   UNL     1      25.796  46.042  51.867  1.00  0.00     0.089 A 
HETATM   10  C   UNL     1      25.631  47.333  51.290  1.00  0.00     0.071 A 
BRANCH   9  11
HETATM   11  C   UNL     1      26.835  45.594  52.798  1.00  0.00    -0.005 A 
HETATM   12  C   UNL     1      27.134  46.349  53.942  1.00  0.00     0.016 A 
HETATM   13  C   UNL     1      28.092  45.913  54.866  1.00  0.00     0.037 A 
HETATM   14  C   UNL     1      28.770  44.714  54.656  1.00  0.00     0.068 A 
HETATM   15  C   UNL     1      28.498  43.970  53.507  1.00  0.00     0.037 A 
HETATM   16  C   UNL     1      27.536  44.401  52.585  1.00  0.00     0.016 A 
BRANCH  14  17
HETATM   17  O   UNL     1      29.715  44.170  55.481  1.00  0.00    -0.356 OA
HETATM   18  C   UNL     1      30.322  45.048  56.421  1.00  0.00     0.210 C 
ENDBRANCH  14  17
ENDBRANCH   9  11
ENDBRANCH   1   5
BRANCH   2  19
HETATM   19  N   UNL     1      21.860  49.250  48.943  1.00  0.00    -0.267 N 
HETATM   20  C   UNL     1      21.671  50.510  49.467  1.00  0.00     0.236 C 
HETATM   21  O   UNL     1      21.988  50.806  50.617  1.00  0.00    -0.272 OA
HETATM   22  H   UNL     1      21.741  49.025  47.955  1.00  0.00     0.190 HD
BRANCH  20  23
HETATM   23  C   UNL     1      21.037  51.490  48.511  1.00  0.00     0.109 C 
BRANCH  23  24
HETATM   24  C   UNL     1      19.851  50.858  47.789  1.00  0.00     0.048 C 
BRANCH  24  25
HETATM   25  C   UNL     1      18.535  51.286  48.393  1.00  0.00    -0.058 A 
HETATM   26  C   UNL     1      17.346  50.628  48.051  1.00  0.00     0.009 A 
HETATM   27  C   UNL     1      16.129  51.032  48.605  1.00  0.00     0.024 A 
HETATM   28  C   UNL     1      16.096  52.097  49.502  1.00  0.00     0.034 A 
HETATM   29 CL   UNL     1      14.597  52.595  50.184  1.00  0.00    -0.084 Cl
HETATM   30  C   UNL     1      17.270  52.762  49.849  1.00  0.00     0.024 A 
HETATM   31  C   UNL     1      18.486  52.356  49.297  1.00  0.00     0.009 A 
ENDBRANCH  24  25
ENDBRANCH  23  24
ENDBRANCH  20  23
ENDBRANCH   2  19
TORSDOF 7
ENDMDL
MODEL 5
REMARK VINA RESULT:      -8.5      4.317     11.682
REMARK  7 active torsions:
REMARK  status: ('A' for Active; 'I' for Inactive)
REMARK    1  A    between atoms: O_2  and  C_3 
REMARK    2  A    between atoms: C_6  and  C_7 
REMARK    3  A    between atoms: C_11  and  C_12 
REMARK       I    between atoms: C_12  and  N_13 
REMARK    4  A    between atoms: N_13  and  N_14 
REMARK       I    between atoms: N_14  and  C_15 
REMARK    5  A    between atoms: C_15  and  C_16 
REMARK    6  A    between atoms: C_16  and  C_17 
REMARK    7  A    between atoms: C_17  and  C_18 
ROOT
HETATM    1  C   UNL     1      24.325  47.395  50.286  1.00  0.00     0.288 C 
HETATM    2  N   UNL     1      23.142  46.856  49.827  1.00  0.00    -0.262 N 
HETATM    3  O   UNL     1      24.712  48.505  49.922  1.00  0.00    -0.264 OA
HETATM    4  H   UNL     1      22.767  45.960  50.131  1.00  0.00     0.190 HD
ENDROOT
BRANCH   1   5
HETATM    5  C   UNL     1      25.056  46.588  51.221  1.00  0.00     0.121 A 
HETATM    6  N   UNL     1      24.791  45.257  51.379  1.00  0.00    -0.272 N 
HETATM    7  N   UNL     1      25.591  44.637  52.258  1.00  0.00    -0.174 NA
HETATM    8  H   UNL     1      24.079  44.714  50.899  1.00  0.00     0.189 HD
HETATM    9  C   UNL     1      26.407  45.601  52.715  1.00  0.00     0.089 A 
HETATM   10  C   UNL     1      26.093  46.843  52.095  1.00  0.00     0.071 A 
BRANCH   9  11
HETATM   11  C   UNL     1      27.467  45.317  53.687  1.00  0.00    -0.005 A 
HETATM   12  C   UNL     1      28.215  44.134  53.593  1.00  0.00     0.016 A 
HETATM   13  C   UNL     1      29.261  43.867  54.486  1.00  0.00     0.037 A 
HETATM   14  C   UNL     1      29.573  44.781  55.490  1.00  0.00     0.068 A 
HETATM   15  C   UNL     1      28.816  45.949  55.606  1.00  0.00     0.037 A 
HETATM   16  C   UNL     1      27.774  46.220  54.712  1.00  0.00     0.016 A 
BRANCH  14  17
HETATM   17  O   UNL     1      30.572  44.651  56.414  1.00  0.00    -0.356 OA
HETATM   18  C   UNL     1      31.190  43.373  56.508  1.00  0.00     0.210 C 
ENDBRANCH  14  17
ENDBRANCH   9  11
ENDBRANCH   1   5
BRANCH   2  19
HETATM   19  N   UNL     1      22.337  47.617  48.975  1.00  0.00    -0.267 N 
HETATM   20  C   UNL     1      21.253  47.004  48.387  1.00  0.00     0.236 C 
HETATM   21  O   UNL     1      21.026  45.801  48.503  1.00  0.00    -0.272 OA
HETATM   22  H   UNL     1      22.462  48.628  49.013  1.00  0.00     0.190 HD
BRANCH  20  23
HETATM   23  C   UNL     1      20.374  47.932  47.586  1.00  0.00     0.109 C 
BRANCH  23  24
HETATM   24  C   UNL     1      20.903  49.363  47.638  1.00  0.00     0.048 C 
BRANCH  24  25
HETATM   25  C   UNL     1      19.853  50.331  48.128  1.00  0.00    -0.058 A 
HETATM   26  C   UNL     1      19.995  50.969  49.367  1.00  0.00     0.009 A 
HETATM   27  C   UNL     1      19.017  51.858  49.822  1.00  0.00     0.024 A 
HETATM   28  C   UNL     1      17.892  52.108  49.041  1.00  0.00     0.034 A 
HETATM   29 CL   UNL     1      16.687  53.200  49.602  1.00  0.00    -0.084 Cl
HETATM   30  C   UNL     1      17.735  51.478  47.808  1.00  0.00     0.024 A 
HETATM   31  C   UNL     1      18.714  50.592  47.353  1.00  0.00     0.009 A 
ENDBRANCH  24  25
ENDBRANCH  23  24
ENDBRANCH  20  23
ENDBRANCH   2  19
TORSDOF 7
ENDMDL
MODEL 6
REMARK VINA RESULT:      -8.1      4.773     12.033
REMARK  7 active torsions:
REMARK  status: ('A' for Active; 'I' for Inactive)
REMARK    1  A    between atoms: O_2  and  C_3 
REMARK    2  A    between atoms: C_6  and  C_7 
REMARK    3  A    between atoms: C_11  and  C_12 
REMARK       I    between atoms: C_12  and  N_13 
REMARK    4  A    between atoms: N_13  and  N_14 
REMARK       I    between atoms: N_14  and  C_15 
REMARK    5  A    between atoms: C_15  and  C_16 
REMARK    6  A    between atoms: C_16  and  C_17 
REMARK    7  A    between atoms: C_17  and  C_18 
ROOT
HETATM    1  C   UNL     1      24.287  44.398  50.829  1.00  0.00     0.288 C 
HETATM    2  N   UNL     1      24.172  45.399  49.888  1.00  0.00    -0.262 N 
HETATM    3  O   UNL     1      23.340  43.665  51.111  1.00  0.00    -0.264 OA
HETATM    4  H   UNL     1      24.939  46.000  49.597  1.00  0.00     0.190 HD
ENDROOT
BRANCH   1   5
HETATM    5  C   UNL     1      25.580  44.261  51.437  1.00  0.00     0.121 A 
HETATM    6  N   UNL     1      26.677  43.885  50.714  1.00  0.00    -0.272 N 
HETATM    7  N   UNL     1      27.815  43.848  51.420  1.00  0.00    -0.174 NA
HETATM    8  H   UNL     1      26.706  43.654  49.725  1.00  0.00     0.189 HD
HETATM    9  C   UNL     1      27.456  44.195  52.666  1.00  0.00     0.089 A 
HETATM   10  C   UNL     1      26.057  44.451  52.719  1.00  0.00     0.071 A 
BRANCH   9  11
HETATM   11  C   UNL     1      28.437  44.306  53.749  1.00  0.00    -0.005 A 
HETATM   12  C   UNL     1      28.337  45.340  54.692  1.00  0.00     0.016 A 
HETATM   13  C   UNL     1      29.239  45.435  55.759  1.00  0.00     0.037 A 
HETATM   14  C   UNL     1      30.261  44.497  55.897  1.00  0.00     0.068 A 
HETATM   15  C   UNL     1      30.383  43.481  54.947  1.00  0.00     0.037 A 
HETATM   16  C   UNL     1      29.479  43.380  53.883  1.00  0.00     0.016 A 
BRANCH  14  17
HETATM   17  O   UNL     1      31.195  44.467  56.894  1.00  0.00    -0.356 OA
HETATM   18  C   UNL     1      31.763  43.200  57.197  1.00  0.00     0.210 C 
ENDBRANCH  14  17
ENDBRANCH   9  11
ENDBRANCH   1   5
BRANCH   2  19
HETATM   19  N   UNL     1      22.966  45.541  49.197  1.00  0.00    -0.267 N 
HETATM   20  C   UNL     1      22.631  46.792  48.727  1.00  0.00     0.236 C 
HETATM   21  O   UNL     1      23.296  47.795  48.975  1.00  0.00    -0.272 OA
HETATM   22  H   UNL     1      22.515  44.681  48.884  1.00  0.00     0.190 HD
BRANCH  20  23
HETATM   23  C   UNL     1      21.377  46.824  47.888  1.00  0.00     0.109 C 
BRANCH  23  24
HETATM   24  C   UNL     1      20.165  46.385  48.703  1.00  0.00     0.048 C 
BRANCH  24  25
HETATM   25  C   UNL     1      19.025  47.369  48.588  1.00  0.00    -0.058 A 
HETATM   26  C   UNL     1      19.265  48.748  48.653  1.00  0.00     0.009 A 
HETATM   27  C   UNL     1      18.207  49.656  48.555  1.00  0.00     0.024 A 
HETATM   28  C   UNL     1      16.906  49.187  48.394  1.00  0.00     0.034 A 
HETATM   29 CL   UNL     1      15.604  50.305  48.274  1.00  0.00    -0.084 Cl
HETATM   30  C   UNL     1      16.652  47.819  48.331  1.00  0.00     0.024 A 
HETATM   31  C   UNL     1      17.710  46.912  48.426  1.00  0.00     0.009 A 
ENDBRANCH  24  25
ENDBRANCH  23  24
ENDBRANCH  20  23
ENDBRANCH   2  19
TORSDOF 7
ENDMDL
MODEL 7
REMARK VINA RESULT:      -8.0      2.627      3.850
REMARK  7 active torsions:
REMARK  status: ('A' for Active; 'I' for Inactive)
REMARK    1  A    between atoms: O_2  and  C_3 
REMARK    2  A    between atoms: C_6  and  C_7 
REMARK    3  A    between atoms: C_11  and  C_12 
REMARK       I    between atoms: C_12  and  N_13 
REMARK    4  A    between atoms: N_13  and  N_14 
REMARK       I    between atoms: N_14  and  C_15 
REMARK    5  A    between atoms: C_15  and  C_16 
REMARK    6  A    between atoms: C_16  and  C_17 
REMARK    7  A    between atoms: C_17  and  C_18 
ROOT
HETATM    1  C   UNL     1      21.455  47.732  48.819  1.00  0.00     0.288 C 
HETATM    2  N   UNL     1      22.484  48.260  49.569  1.00  0.00    -0.262 N 
HETATM    3  O   UNL     1      21.471  46.563  48.434  1.00  0.00    -0.264 OA
HETATM    4  H   UNL     1      22.493  49.207  49.940  1.00  0.00     0.190 HD
ENDROOT
BRANCH   1   5
HETATM    5  C   UNL     1      20.367  48.625  48.539  1.00  0.00     0.121 A 
HETATM    6  N   UNL     1      19.776  48.671  47.309  1.00  0.00    -0.272 N 
HETATM    7  N   UNL     1      18.747  49.526  47.225  1.00  0.00    -0.174 NA
HETATM    8  H   UNL     1      20.027  48.126  46.490  1.00  0.00     0.189 HD
HETATM    9  C   UNL     1      18.665  50.083  48.443  1.00  0.00     0.089 A 
HETATM   10  C   UNL     1      19.675  49.551  49.294  1.00  0.00     0.071 A 
BRANCH   9  11
HETATM   11  C   UNL     1      17.628  51.065  48.775  1.00  0.00    -0.005 A 
HETATM   12  C   UNL     1      17.927  52.158  49.601  1.00  0.00     0.016 A 
HETATM   13  C   UNL     1      16.961  53.130  49.893  1.00  0.00     0.037 A 
HETATM   14  C   UNL     1      15.677  53.020  49.362  1.00  0.00     0.068 A 
HETATM   15  C   UNL     1      15.364  51.921  48.560  1.00  0.00     0.037 A 
HETATM   16  C   UNL     1      16.330  50.952  48.263  1.00  0.00     0.016 A 
BRANCH  14  17
HETATM   17  O   UNL     1      14.650  53.901  49.555  1.00  0.00    -0.356 OA
HETATM   18  C   UNL     1      15.007  55.220  49.949  1.00  0.00     0.210 C 
ENDBRANCH  14  17
ENDBRANCH   9  11
ENDBRANCH   1   5
BRANCH   2  19
HETATM   19  N   UNL     1      23.541  47.427  49.948  1.00  0.00    -0.267 N 
HETATM   20  C   UNL     1      24.824  47.918  49.844  1.00  0.00     0.236 C 
HETATM   21  O   UNL     1      25.078  49.011  49.343  1.00  0.00    -0.272 OA
HETATM   22  H   UNL     1      23.296  46.597  50.487  1.00  0.00     0.190 HD
BRANCH  20  23
HETATM   23  C   UNL     1      25.886  46.998  50.391  1.00  0.00     0.109 C 
BRANCH  23  24
HETATM   24  C   UNL     1      25.336  46.146  51.532  1.00  0.00     0.048 C 
BRANCH  24  25
HETATM   25  C   UNL     1      26.253  46.156  52.731  1.00  0.00    -0.058 A 
HETATM   26  C   UNL     1      26.967  45.005  53.092  1.00  0.00     0.009 A 
HETATM   27  C   UNL     1      27.809  45.016  54.207  1.00  0.00     0.024 A 
HETATM   28  C   UNL     1      27.935  46.175  54.968  1.00  0.00     0.034 A 
HETATM   29 CL   UNL     1      28.970  46.186  56.342  1.00  0.00    -0.084 Cl
HETATM   30  C   UNL     1      27.230  47.325  54.623  1.00  0.00     0.024 A 
HETATM   31  C   UNL     1      26.391  47.316  53.507  1.00  0.00     0.009 A 
ENDBRANCH  24  25
ENDBRANCH  23  24
ENDBRANCH  20  23
ENDBRANCH   2  19
TORSDOF 7
ENDMDL
MODEL 8
REMARK VINA RESULT:      -8.0      2.648      3.234
REMARK  7 active torsions:
REMARK  status: ('A' for Active; 'I' for Inactive)
REMARK    1  A    between atoms: O_2  and  C_3 
REMARK    2  A    between atoms: C_6  and  C_7 
REMARK    3  A    between atoms: C_11  and  C_12 
REMARK       I    between atoms: C_12  and  N_13 
REMARK    4  A    between atoms: N_13  and  N_14 
REMARK       I    between atoms: N_14  and  C_15 
REMARK    5  A    between atoms: C_15  and  C_16 
REMARK    6  A    between atoms: C_16  and  C_17 
REMARK    7  A    between atoms: C_17  and  C_18 
ROOT
HETATM    1  C   UNL     1      25.049  46.235  49.796  1.00  0.00     0.288 C 
HETATM    2  N   UNL     1      24.538  45.044  49.326  1.00  0.00    -0.262 N 
HETATM    3  O   UNL     1      26.099  46.280  50.435  1.00  0.00    -0.264 OA
HETATM    4  H   UNL     1      23.695  44.967  48.762  1.00  0.00     0.190 HD
ENDROOT
BRANCH   1   5
HETATM    5  C   UNL     1      24.286  47.408  49.476  1.00  0.00     0.121 A 
HETATM    6  N   UNL     1      24.867  48.643  49.402  1.00  0.00    -0.272 N 
HETATM    7  N   UNL     1      24.027  49.625  49.049  1.00  0.00    -0.174 NA
HETATM    8  H   UNL     1      25.842  48.869  49.570  1.00  0.00     0.189 HD
HETATM    9  C   UNL     1      22.837  49.022  48.902  1.00  0.00     0.089 A 
HETATM   10  C   UNL     1      22.957  47.629  49.174  1.00  0.00     0.071 A 
BRANCH   9  11
HETATM   11  C   UNL     1      21.643  49.761  48.482  1.00  0.00    -0.005 A 
HETATM   12  C   UNL     1      20.739  49.189  47.574  1.00  0.00     0.016 A 
HETATM   13  C   UNL     1      19.571  49.863  47.196  1.00  0.00     0.037 A 
HETATM   14  C   UNL     1      19.290  51.123  47.720  1.00  0.00     0.068 A 
HETATM   15  C   UNL     1      20.198  51.710  48.604  1.00  0.00     0.037 A 
HETATM   16  C   UNL     1      21.363  51.037  48.987  1.00  0.00     0.016 A 
BRANCH  14  17
HETATM   17  O   UNL     1      18.185  51.880  47.446  1.00  0.00    -0.356 OA
HETATM   18  C   UNL     1      17.395  52.280  48.558  1.00  0.00     0.210 C 
ENDBRANCH  14  17
ENDBRANCH   9  11
ENDBRANCH   1   5
BRANCH   2  19
HETATM   19  N   UNL     1      25.266  43.869  49.530  1.00  0.00    -0.267 N 
HETATM   20  C   UNL     1      24.801  42.971  50.467  1.00  0.00     0.236 C 
HETATM   21  O   UNL     1      23.836  43.207  51.191  1.00  0.00    -0.272 OA
HETATM   22  H   UNL     1      25.965  43.637  48.826  1.00  0.00     0.190 HD
BRANCH  20  23
HETATM   23  C   UNL     1      25.579  41.681  50.529  1.00  0.00     0.109 C 
BRANCH  23  24
HETATM   24  C   UNL     1      27.057  41.921  50.237  1.00  0.00     0.048 C 
BRANCH  24  25
HETATM   25  C   UNL     1      27.838  42.211  51.496  1.00  0.00    -0.058 A 
HETATM   26  C   UNL     1      28.125  43.532  51.868  1.00  0.00     0.009 A 
HETATM   27  C   UNL     1      28.855  43.796  53.030  1.00  0.00     0.024 A 
HETATM   28  C   UNL     1      29.303  42.742  53.821  1.00  0.00     0.034 A 
HETATM   29 CL   UNL     1      30.203  43.069  55.251  1.00  0.00    -0.084 Cl
HETATM   30  C   UNL     1      29.027  41.425  53.463  1.00  0.00     0.024 A 
HETATM   31  C   UNL     1      28.295  41.160  52.303  1.00  0.00     0.009 A 
ENDBRANCH  24  25
ENDBRANCH  23  24
ENDBRANCH  20  23
ENDBRANCH   2  19
TORSDOF 7
ENDMDL
MODEL 9
REMARK VINA RESULT:      -8.0      4.726     12.012
REMARK  7 active torsions:
REMARK  status: ('A' for Active; 'I' for Inactive)
REMARK    1  A    between atoms: O_2  and  C_3 
REMARK    2  A    between atoms: C_6  and  C_7 
REMARK    3  A    between atoms: C_11  and  C_12 
REMARK       I    between atoms: C_12  and  N_13 
REMARK    4  A    between atoms: N_13  and  N_14 
REMARK       I    between atoms: N_14  and  C_15 
REMARK    5  A    between atoms: C_15  and  C_16 
REMARK    6  A    between atoms: C_16  and  C_17 
REMARK    7  A    between atoms: C_17  and  C_18 
ROOT
HETATM    1  C   UNL     1      24.492  45.798  50.658  1.00  0.00     0.288 C 
HETATM    2  N   UNL     1      23.468  45.004  50.186  1.00  0.00    -0.262 N 
HETATM    3  O   UNL     1      24.592  46.981  50.336  1.00  0.00    -0.264 OA
HETATM    4  H   UNL     1      23.326  44.034  50.456  1.00  0.00     0.190 HD
ENDROOT
BRANCH   1   5
HETATM    5  C   UNL     1      25.412  45.158  51.554  1.00  0.00     0.121 A 
HETATM    6  N   UNL     1      25.482  43.798  51.660  1.00  0.00    -0.272 N 
HETATM    7  N   UNL     1      26.424  43.359  52.507  1.00  0.00    -0.174 NA
HETATM    8  H   UNL     1      24.917  43.117  51.162  1.00  0.00     0.189 HD
HETATM    9  C   UNL     1      26.988  44.475  52.998  1.00  0.00     0.089 A 
HETATM   10  C   UNL     1      26.371  45.626  52.431  1.00  0.00     0.071 A 
BRANCH   9  11
HETATM   11  C   UNL     1      28.100  44.421  53.950  1.00  0.00    -0.005 A 
HETATM   12  C   UNL     1      28.986  43.334  53.944  1.00  0.00     0.016 A 
HETATM   13  C   UNL     1      30.081  43.288  54.816  1.00  0.00     0.037 A 
HETATM   14  C   UNL     1      30.305  44.331  55.713  1.00  0.00     0.068 A 
HETATM   15  C   UNL     1      29.413  45.404  55.743  1.00  0.00     0.037 A 
HETATM   16  C   UNL     1      28.321  45.455  54.869  1.00  0.00     0.016 A 
BRANCH  14  17
HETATM   17  O   UNL     1      31.337  44.416  56.605  1.00  0.00    -0.356 OA
HETATM   18  C   UNL     1      31.802  43.193  57.161  1.00  0.00     0.210 C 
ENDBRANCH  14  17
ENDBRANCH   9  11
ENDBRANCH   1   5
BRANCH   2  19
HETATM   19  N   UNL     1      22.488  45.578  49.372  1.00  0.00    -0.267 N 
HETATM   20  C   UNL     1      21.703  44.739  48.612  1.00  0.00     0.236 C 
HETATM   21  O   UNL     1      21.894  43.527  48.548  1.00  0.00    -0.272 OA
HETATM   22  H   UNL     1      22.259  46.555  49.553  1.00  0.00     0.190 HD
BRANCH  20  23
HETATM   23  C   UNL     1      20.594  45.437  47.863  1.00  0.00     0.109 C 
BRANCH  23  24
HETATM   24  C   UNL     1      19.744  46.280  48.808  1.00  0.00     0.048 C 
BRANCH  24  25
HETATM   25  C   UNL     1      19.316  47.579  48.167  1.00  0.00    -0.058 A 
HETATM   26  C   UNL     1      17.960  47.847  47.936  1.00  0.00     0.009 A 
HETATM   27  C   UNL     1      17.568  49.046  47.336  1.00  0.00     0.024 A 
HETATM   28  C   UNL     1      18.530  49.979  46.961  1.00  0.00     0.034 A 
HETATM   29 CL   UNL     1      18.047  51.455  46.220  1.00  0.00    -0.084 Cl
HETATM   30  C   UNL     1      19.882  49.726  47.182  1.00  0.00     0.024 A 
HETATM   31  C   UNL     1      20.273  48.529  47.785  1.00  0.00     0.009 A 
ENDBRANCH  24  25
ENDBRANCH  23  24
ENDBRANCH  20  23
ENDBRANCH   2  19
TORSDOF 7
ENDMDL
MODEL 10
REMARK VINA RESULT:      -8.0      9.050     12.339
REMARK  7 active torsions:
REMARK  status: ('A' for Active; 'I' for Inactive)
REMARK    1  A    between atoms: O_2  and  C_3 
REMARK    2  A    between atoms: C_6  and  C_7 
REMARK    3  A    between atoms: C_11  and  C_12 
REMARK       I    between atoms: C_12  and  N_13 
REMARK    4  A    between atoms: N_13  and  N_14 
REMARK       I    between atoms: N_14  and  C_15 
REMARK    5  A    between atoms: C_15  and  C_16 
REMARK    6  A    between atoms: C_16  and  C_17 
REMARK    7  A    between atoms: C_17  and  C_18 
ROOT
HETATM    1  C   UNL     1      27.446  40.822  50.167  1.00  0.00     0.288 C 
HETATM    2  N   UNL     1      26.960  39.649  50.703  1.00  0.00    -0.262 N 
HETATM    3  O   UNL     1      27.533  40.989  48.951  1.00  0.00    -0.264 OA
HETATM    4  H   UNL     1      26.836  39.485  51.699  1.00  0.00     0.190 HD
ENDROOT
BRANCH   1   5
HETATM    5  C   UNL     1      27.822  41.831  51.115  1.00  0.00     0.121 A 
HETATM    6  N   UNL     1      27.323  43.101  51.049  1.00  0.00    -0.272 N 
HETATM    7  N   UNL     1      27.738  43.909  52.034  1.00  0.00    -0.174 NA
HETATM    8  H   UNL     1      26.678  43.467  50.354  1.00  0.00     0.189 HD
HETATM    9  C   UNL     1      28.562  43.150  52.773  1.00  0.00     0.089 A 
HETATM   10  C   UNL     1      28.650  41.840  52.221  1.00  0.00     0.071 A 
BRANCH   9  11
HETATM   11  C   UNL     1      29.208  43.665  53.983  1.00  0.00    -0.005 A 
HETATM   12  C   UNL     1      28.739  44.840  54.590  1.00  0.00     0.016 A 
HETATM   13  C   UNL     1      29.316  45.323  55.772  1.00  0.00     0.037 A 
HETATM   14  C   UNL     1      30.376  44.638  56.363  1.00  0.00     0.068 A 
HETATM   15  C   UNL     1      30.866  43.483  55.750  1.00  0.00     0.037 A 
HETATM   16  C   UNL     1      30.288  42.996  54.573  1.00  0.00     0.016 A 
BRANCH  14  17
HETATM   17  O   UNL     1      31.018  44.993  57.517  1.00  0.00    -0.356 OA
HETATM   18  C   UNL     1      30.522  46.140  58.195  1.00  0.00     0.210 C 
ENDBRANCH  14  17
ENDBRANCH   9  11
ENDBRANCH   1   5
BRANCH   2  19
HETATM   19  N   UNL     1      26.500  38.651  49.840  1.00  0.00    -0.267 N 
HETATM   20  C   UNL     1      27.335  37.587  49.574  1.00  0.00     0.236 C 
HETATM   21  O   UNL     1      28.492  37.532  49.983  1.00  0.00    -0.272 OA
HETATM   22  H   UNL     1      25.501  38.649  49.637  1.00  0.00     0.190 HD
BRANCH  20  23
HETATM   23  C   UNL     1      26.708  36.502  48.735  1.00  0.00     0.109 C 
BRANCH  23  24
HETATM   24  C   UNL     1      26.052  37.087  47.488  1.00  0.00     0.048 C 
BRANCH  24  25
HETATM   25  C   UNL     1      27.068  37.410  46.419  1.00  0.00    -0.058 A 
HETATM   26  C   UNL     1      27.955  36.428  45.958  1.00  0.00     0.009 A 
HETATM   27  C   UNL     1      28.900  36.732  44.975  1.00  0.00     0.024 A 
HETATM   28  C   UNL     1      28.963  38.021  44.452  1.00  0.00     0.034 A 
HETATM   29 CL   UNL     1      30.128  38.396  43.242  1.00  0.00    -0.084 Cl
HETATM   30  C   UNL     1      28.089  39.008  44.901  1.00  0.00     0.024 A 
HETATM   31  C   UNL     1      27.143  38.703  45.882  1.00  0.00     0.009 A 
ENDBRANCH  24  25
ENDBRANCH  23  24
ENDBRANCH  20  23
ENDBRANCH   2  19
TORSDOF 7
ENDMDL
