MODEL 1
REMARK VINA RESULT:     -10.6      0.000      0.000
REMARK  5 active torsions:
REMARK  status: ('A' for Active; 'I' for Inactive)
REMARK    1  A    between atoms: C_7  and  N_8 
REMARK    2  A    between atoms: N_8  and  C_9 
REMARK    3  A    between atoms: C_11  and  C_12 
REMARK       I    between atoms: C_12  and  N_13 
REMARK    4  A    between atoms: N_13  and  C_14 
REMARK    5  A    between atoms: C_14  and  C_15 
ROOT
HETATM    1  C   UNL     1      27.521  43.638  52.234  1.00  0.00     0.142 A 
HETATM    2  N   UNL     1      26.914  44.853  52.124  1.00  0.00    -0.225 NA
HETATM    3  C   UNL     1      25.739  44.984  51.439  1.00  0.00     0.129 A 
HETATM    4  C   UNL     1      25.066  43.960  50.800  1.00  0.00     0.075 A 
HETATM    5  C   UNL     1      25.712  42.745  50.904  1.00  0.00     0.091 A 
HETATM    6  C   UNL     1      26.903  42.541  51.589  1.00  0.00     0.046 A 
HETATM    7  O   UNL     1      25.273  41.581  50.352  1.00  0.00    -0.322 OA
HETATM    8  C   UNL     1      26.174  40.620  50.675  1.00  0.00     0.143 A 
HETATM    9  C   UNL     1      27.191  41.151  51.434  1.00  0.00     0.042 A 
ENDROOT
BRANCH   3  10
HETATM   10  C   UNL     1      25.156  46.364  51.395  1.00  0.00     0.270 C 
HETATM   11  N   UNL     1      24.548  46.692  50.207  1.00  0.00    -0.351 N 
HETATM   12  H   UNL     1      24.602  46.009  49.457  1.00  0.00     0.163 HD
HETATM   13  O   UNL     1      25.227  47.120  52.357  1.00  0.00    -0.266 OA
BRANCH  11  14
HETATM   14  C   UNL     1      24.018  48.007  49.951  1.00  0.00     0.165 C 
BRANCH  14  15
HETATM   15  C   UNL     1      24.994  48.759  49.122  1.00  0.00     0.002 A 
HETATM   16  C   UNL     1      24.746  49.780  48.161  1.00  0.00     0.060 A 
HETATM   17  C   UNL     1      23.447  50.357  47.734  1.00  0.00     0.073 C 
HETATM   18  N   UNL     1      25.879  50.218  47.597  1.00  0.00    -0.180 NA
HETATM   19  N   UNL     1      26.840  49.488  48.177  1.00  0.00    -0.288 N 
HETATM   20  H   UNL     1      27.802  49.645  47.894  1.00  0.00     0.188 HD
HETATM   21  C   UNL     1      26.366  48.602  49.095  1.00  0.00     0.120 A 
ENDBRANCH  14  15
ENDBRANCH  11  14
ENDBRANCH   3  10
BRANCH   1  22
HETATM   22  N   UNL     1      28.722  43.467  52.938  1.00  0.00    -0.340 N 
HETATM   23  H   UNL     1      29.335  42.785  52.515  1.00  0.00     0.167 HD
BRANCH  22  24
HETATM   24  C   UNL     1      29.215  44.006  54.139  1.00  0.00     0.034 A 
HETATM   25  C   UNL     1      28.613  45.167  54.645  1.00  0.00     0.031 A 
HETATM   26  C   UNL     1      29.028  45.734  55.853  1.00  0.00     0.022 A 
HETATM   27  C   UNL     1      30.054  45.140  56.588  1.00  0.00     0.017 A 
HETATM   28  C   UNL     1      30.678  43.980  56.116  1.00  0.00    -0.043 A 
HETATM   29 BR   UNL     1      30.550  45.960  58.227  1.00  0.00    -0.051 Br
HETATM   30  C   UNL     1      31.778  43.289  56.874  1.00  0.00     0.049 C 
HETATM   31  C   UNL     1      30.244  43.431  54.892  1.00  0.00     0.037 A 
ENDBRANCH  22  24
ENDBRANCH   1  22
TORSDOF 5
ENDMDL
MODEL 2
REMARK VINA RESULT:     -10.1      3.877      6.384
REMARK  5 active torsions:
REMARK  status: ('A' for Active; 'I' for Inactive)
REMARK    1  A    between atoms: C_7  and  N_8 
REMARK    2  A    between atoms: N_8  and  C_9 
REMARK    3  A    between atoms: C_11  and  C_12 
REMARK       I    between atoms: C_12  and  N_13 
REMARK    4  A    between atoms: N_13  and  C_14 
REMARK    5  A    between atoms: C_14  and  C_15 
ROOT
HETATM    1  C   UNL     1      24.674  47.483  50.024  1.00  0.00     0.142 A 
HETATM    2  N   UNL     1      23.390  47.802  49.701  1.00  0.00    -0.225 NA
HETATM    3  C   UNL     1      23.121  48.865  48.885  1.00  0.00     0.129 A 
HETATM    4  C   UNL     1      24.065  49.707  48.329  1.00  0.00     0.075 A 
HETATM    5  C   UNL     1      25.356  49.380  48.691  1.00  0.00     0.091 A 
HETATM    6  C   UNL     1      25.699  48.311  49.510  1.00  0.00     0.046 A 
HETATM    7  O   UNL     1      26.470  50.056  48.296  1.00  0.00    -0.322 OA
HETATM    8  C   UNL     1      27.536  49.433  48.855  1.00  0.00     0.143 A 
HETATM    9  C   UNL     1      27.123  48.357  49.605  1.00  0.00     0.042 A 
ENDROOT
BRANCH   3  10
HETATM   10  C   UNL     1      21.673  49.113  48.588  1.00  0.00     0.270 C 
HETATM   11  N   UNL     1      20.797  48.486  49.442  1.00  0.00    -0.351 N 
HETATM   12  H   UNL     1      21.197  47.872  50.144  1.00  0.00     0.163 HD
HETATM   13  O   UNL     1      21.324  49.825  47.654  1.00  0.00    -0.266 OA
BRANCH  11  14
HETATM   14  C   UNL     1      19.370  48.533  49.252  1.00  0.00     0.165 C 
BRANCH  14  15
HETATM   15  C   UNL     1      18.901  47.187  48.837  1.00  0.00     0.002 A 
HETATM   16  C   UNL     1      17.591  46.777  48.458  1.00  0.00     0.060 A 
HETATM   17  C   UNL     1      16.351  47.589  48.381  1.00  0.00     0.073 C 
HETATM   18  N   UNL     1      17.544  45.472  48.160  1.00  0.00    -0.180 NA
HETATM   19  N   UNL     1      18.799  45.045  48.352  1.00  0.00    -0.288 N 
HETATM   20  H   UNL     1      19.004  44.064  48.191  1.00  0.00     0.188 HD
HETATM   21  C   UNL     1      19.649  46.028  48.756  1.00  0.00     0.120 A 
ENDBRANCH  14  15
ENDBRANCH  11  14
ENDBRANCH   3  10
BRANCH   1  22
HETATM   22  N   UNL     1      24.986  46.394  50.851  1.00  0.00    -0.340 N 
HETATM   23  H   UNL     1      24.547  45.534  50.553  1.00  0.00     0.167 HD
BRANCH  22  24
HETATM   24  C   UNL     1      25.730  46.271  52.036  1.00  0.00     0.034 A 
HETATM   25  C   UNL     1      26.561  45.151  52.188  1.00  0.00     0.031 A 
HETATM   26  C   UNL     1      27.358  44.986  53.324  1.00  0.00     0.022 A 
HETATM   27  C   UNL     1      27.346  45.949  54.333  1.00  0.00     0.017 A 
HETATM   28  C   UNL     1      26.530  47.080  54.216  1.00  0.00    -0.043 A 
HETATM   29 BR   UNL     1      28.467  45.660  55.837  1.00  0.00    -0.051 Br
HETATM   30  C   UNL     1      26.489  48.157  55.266  1.00  0.00     0.049 C 
HETATM   31  C   UNL     1      25.732  47.221  53.063  1.00  0.00     0.037 A 
ENDBRANCH  22  24
ENDBRANCH   1  22
TORSDOF 5
ENDMDL
MODEL 3
REMARK VINA RESULT:      -9.9      3.928      9.317
REMARK  5 active torsions:
REMARK  status: ('A' for Active; 'I' for Inactive)
REMARK    1  A    between atoms: C_7  and  N_8 
REMARK    2  A    between atoms: N_8  and  C_9 
REMARK    3  A    between atoms: C_11  and  C_12 
REMARK       I    between atoms: C_12  and  N_13 
REMARK    4  A    between atoms: N_13  and  C_14 
REMARK    5  A    between atoms: C_14  and  C_15 
ROOT
HETATM    1  C   UNL     1      24.134  48.029  49.285  1.00  0.00     0.142 A 
HETATM    2  N   UNL     1      24.054  47.032  50.209  1.00  0.00    -0.225 NA
HETATM    3  C   UNL     1      25.144  46.689  50.959  1.00  0.00     0.129 A 
HETATM    4  C   UNL     1      26.394  47.270  50.867  1.00  0.00     0.075 A 
HETATM    5  C   UNL     1      26.458  48.260  49.907  1.00  0.00     0.091 A 
HETATM    6  C   UNL     1      25.389  48.662  49.117  1.00  0.00     0.046 A 
HETATM    7  O   UNL     1      27.574  48.978  49.604  1.00  0.00    -0.322 OA
HETATM    8  C   UNL     1      27.235  49.845  48.618  1.00  0.00     0.143 A 
HETATM    9  C   UNL     1      25.909  49.697  48.283  1.00  0.00     0.042 A 
ENDROOT
BRANCH   3  10
HETATM   10  C   UNL     1      24.934  45.587  51.953  1.00  0.00     0.270 C 
HETATM   11  N   UNL     1      25.617  45.744  53.135  1.00  0.00    -0.351 N 
HETATM   12  H   UNL     1      26.240  46.542  53.206  1.00  0.00     0.163 HD
HETATM   13  O   UNL     1      24.203  44.634  51.708  1.00  0.00    -0.266 OA
BRANCH  11  14
HETATM   14  C   UNL     1      25.610  44.739  54.168  1.00  0.00     0.165 C 
BRANCH  14  15
HETATM   15  C   UNL     1      26.995  44.236  54.349  1.00  0.00     0.002 A 
HETATM   16  C   UNL     1      28.142  44.937  54.818  1.00  0.00     0.060 A 
HETATM   17  C   UNL     1      28.254  46.353  55.246  1.00  0.00     0.073 C 
HETATM   18  N   UNL     1      29.230  44.155  54.834  1.00  0.00    -0.180 NA
HETATM   19  N   UNL     1      28.795  42.975  54.375  1.00  0.00    -0.288 N 
HETATM   20  H   UNL     1      29.463  42.215  54.291  1.00  0.00     0.188 HD
HETATM   21  C   UNL     1      27.469  42.969  54.072  1.00  0.00     0.120 A 
ENDBRANCH  14  15
ENDBRANCH  11  14
ENDBRANCH   3  10
BRANCH   1  22
HETATM   22  N   UNL     1      23.033  48.413  48.506  1.00  0.00    -0.340 N 
HETATM   23  H   UNL     1      23.075  48.060  47.560  1.00  0.00     0.167 HD
BRANCH  22  24
HETATM   24  C   UNL     1      21.921  49.235  48.756  1.00  0.00     0.034 A 
HETATM   25  C   UNL     1      22.018  50.600  48.448  1.00  0.00     0.031 A 
HETATM   26  C   UNL     1      20.938  51.466  48.636  1.00  0.00     0.022 A 
HETATM   27  C   UNL     1      19.727  50.978  49.130  1.00  0.00     0.017 A 
HETATM   28  C   UNL     1      19.592  49.622  49.448  1.00  0.00    -0.043 A 
HETATM   29 BR   UNL     1      18.302  52.214  49.343  1.00  0.00    -0.051 Br
HETATM   30  C   UNL     1      18.307  49.039  49.968  1.00  0.00     0.049 C 
HETATM   31  C   UNL     1      20.699  48.770  49.254  1.00  0.00     0.037 A 
ENDBRANCH  22  24
ENDBRANCH   1  22
TORSDOF 5
ENDMDL
MODEL 4
REMARK VINA RESULT:      -9.7      3.781      8.838
REMARK  5 active torsions:
REMARK  status: ('A' for Active; 'I' for Inactive)
REMARK    1  A    between atoms: C_7  and  N_8 
REMARK    2  A    between atoms: N_8  and  C_9 
REMARK    3  A    between atoms: C_11  and  C_12 
REMARK       I    between atoms: C_12  and  N_13 
REMARK    4  A    between atoms: N_13  and  C_14 
REMARK    5  A    between atoms: C_14  and  C_15 
ROOT
HETATM    1  C   UNL     1      24.531  47.208  50.368  1.00  0.00     0.142 A 
HETATM    2  N   UNL     1      25.129  47.518  51.552  1.00  0.00    -0.225 NA
HETATM    3  C   UNL     1      25.421  46.539  52.461  1.00  0.00     0.129 A 
HETATM    4  C   UNL     1      25.148  45.194  52.304  1.00  0.00     0.075 A 
HETATM    5  C   UNL     1      24.519  44.908  51.109  1.00  0.00     0.091 A 
HETATM    6  C   UNL     1      24.201  45.852  50.141  1.00  0.00     0.046 A 
HETATM    7  O   UNL     1      24.127  43.666  50.714  1.00  0.00    -0.322 OA
HETATM    8  C   UNL     1      23.553  43.797  49.492  1.00  0.00     0.143 A 
HETATM    9  C   UNL     1      23.574  45.113  49.092  1.00  0.00     0.042 A 
ENDROOT
BRANCH   3  10
HETATM   10  C   UNL     1      26.090  46.995  53.723  1.00  0.00     0.270 C 
HETATM   11  N   UNL     1      27.175  46.240  54.100  1.00  0.00    -0.351 N 
HETATM   12  H   UNL     1      27.384  45.420  53.540  1.00  0.00     0.163 HD
HETATM   13  O   UNL     1      25.685  47.969  54.346  1.00  0.00    -0.266 OA
BRANCH  11  14
HETATM   14  C   UNL     1      27.883  46.473  55.333  1.00  0.00     0.165 C 
BRANCH  14  15
HETATM   15  C   UNL     1      28.947  45.446  55.470  1.00  0.00     0.002 A 
HETATM   16  C   UNL     1      29.889  45.276  56.524  1.00  0.00     0.060 A 
HETATM   17  C   UNL     1      30.055  46.080  57.760  1.00  0.00     0.073 C 
HETATM   18  N   UNL     1      30.711  44.243  56.294  1.00  0.00    -0.180 NA
HETATM   19  N   UNL     1      30.314  43.763  55.110  1.00  0.00    -0.288 N 
HETATM   20  H   UNL     1      30.809  42.966  54.722  1.00  0.00     0.188 HD
HETATM   21  C   UNL     1      29.265  44.444  54.574  1.00  0.00     0.120 A 
ENDBRANCH  14  15
ENDBRANCH  11  14
ENDBRANCH   3  10
BRANCH   1  22
HETATM   22  N   UNL     1      24.227  48.186  49.410  1.00  0.00    -0.340 N 
HETATM   23  H   UNL     1      24.986  48.358  48.766  1.00  0.00     0.167 HD
BRANCH  22  24
HETATM   24  C   UNL     1      23.110  49.013  49.204  1.00  0.00     0.034 A 
HETATM   25  C   UNL     1      23.326  50.381  48.978  1.00  0.00     0.031 A 
HETATM   26  C   UNL     1      22.263  51.253  48.729  1.00  0.00     0.022 A 
HETATM   27  C   UNL     1      20.955  50.768  48.690  1.00  0.00     0.017 A 
HETATM   28  C   UNL     1      20.701  49.410  48.910  1.00  0.00    -0.043 A 
HETATM   29 BR   UNL     1      19.567  52.013  48.330  1.00  0.00    -0.051 Br
HETATM   30  C   UNL     1      19.313  48.831  48.865  1.00  0.00     0.049 C 
HETATM   31  C   UNL     1      21.790  48.552  49.165  1.00  0.00     0.037 A 
ENDBRANCH  22  24
ENDBRANCH   1  22
TORSDOF 5
ENDMDL
MODEL 5
REMARK VINA RESULT:      -9.5      3.568      5.773
REMARK  5 active torsions:
REMARK  status: ('A' for Active; 'I' for Inactive)
REMARK    1  A    between atoms: C_7  and  N_8 
REMARK    2  A    between atoms: N_8  and  C_9 
REMARK    3  A    between atoms: C_11  and  C_12 
REMARK       I    between atoms: C_12  and  N_13 
REMARK    4  A    between atoms: N_13  and  C_14 
REMARK    5  A    between atoms: C_14  and  C_15 
ROOT
HETATM    1  C   UNL     1      24.961  47.160  50.075  1.00  0.00     0.142 A 
HETATM    2  N   UNL     1      23.644  47.303  49.761  1.00  0.00    -0.225 NA
HETATM    3  C   UNL     1      23.226  48.331  48.963  1.00  0.00     0.129 A 
HETATM    4  C   UNL     1      24.042  49.304  48.418  1.00  0.00     0.075 A 
HETATM    5  C   UNL     1      25.368  49.153  48.770  1.00  0.00     0.091 A 
HETATM    6  C   UNL     1      25.860  48.130  49.570  1.00  0.00     0.046 A 
HETATM    7  O   UNL     1      26.375  49.983  48.382  1.00  0.00    -0.322 OA
HETATM    8  C   UNL     1      27.520  49.504  48.927  1.00  0.00     0.143 A 
HETATM    9  C   UNL     1      27.264  48.370  49.662  1.00  0.00     0.042 A 
ENDROOT
BRANCH   3  10
HETATM   10  C   UNL     1      21.756  48.381  48.674  1.00  0.00     0.270 C 
HETATM   11  N   UNL     1      21.001  48.987  49.650  1.00  0.00    -0.351 N 
HETATM   12  H   UNL     1      21.485  49.283  50.491  1.00  0.00     0.163 HD
HETATM   13  O   UNL     1      21.290  47.915  47.641  1.00  0.00    -0.266 OA
BRANCH  11  14
HETATM   14  C   UNL     1      19.562  49.041  49.587  1.00  0.00     0.165 C 
BRANCH  14  15
HETATM   15  C   UNL     1      19.158  50.397  49.135  1.00  0.00     0.002 A 
HETATM   16  C   UNL     1      18.841  50.840  47.820  1.00  0.00     0.060 A 
HETATM   17  C   UNL     1      18.832  50.062  46.556  1.00  0.00     0.073 C 
HETATM   18  N   UNL     1      18.533  52.143  47.794  1.00  0.00    -0.180 NA
HETATM   19  N   UNL     1      18.660  52.536  49.068  1.00  0.00    -0.288 N 
HETATM   20  H   UNL     1      18.480  53.510  49.292  1.00  0.00     0.188 HD
HETATM   21  C   UNL     1      19.030  51.534  49.909  1.00  0.00     0.120 A 
ENDBRANCH  14  15
ENDBRANCH  11  14
ENDBRANCH   3  10
BRANCH   1  22
HETATM   22  N   UNL     1      25.425  46.111  50.883  1.00  0.00    -0.340 N 
HETATM   23  H   UNL     1      25.124  45.202  50.561  1.00  0.00     0.167 HD
BRANCH  22  24
HETATM   24  C   UNL     1      26.167  46.075  52.075  1.00  0.00     0.034 A 
HETATM   25  C   UNL     1      26.054  47.155  52.963  1.00  0.00     0.031 A 
HETATM   26  C   UNL     1      26.733  47.167  54.184  1.00  0.00     0.022 A 
HETATM   27  C   UNL     1      27.537  46.086  54.547  1.00  0.00     0.017 A 
HETATM   28  C   UNL     1      27.673  44.990  53.688  1.00  0.00    -0.043 A 
HETATM   29 BR   UNL     1      28.415  46.170  56.229  1.00  0.00    -0.051 Br
HETATM   30  C   UNL     1      28.514  43.792  54.035  1.00  0.00     0.049 C 
HETATM   31  C   UNL     1      26.982  45.006  52.460  1.00  0.00     0.037 A 
ENDBRANCH  22  24
ENDBRANCH   1  22
TORSDOF 5
ENDMDL
MODEL 6
REMARK VINA RESULT:      -9.3      3.225      5.320
REMARK  5 active torsions:
REMARK  status: ('A' for Active; 'I' for Inactive)
REMARK    1  A    between atoms: C_7  and  N_8 
REMARK    2  A    between atoms: N_8  and  C_9 
REMARK    3  A    between atoms: C_11  and  C_12 
REMARK       I    between atoms: C_12  and  N_13 
REMARK    4  A    between atoms: N_13  and  C_14 
REMARK    5  A    between atoms: C_14  and  C_15 
ROOT
HETATM    1  C   UNL     1      26.968  43.079  52.438  1.00  0.00     0.142 A 
HETATM    2  N   UNL     1      26.255  44.187  52.093  1.00  0.00    -0.225 NA
HETATM    3  C   UNL     1      26.544  45.402  52.649  1.00  0.00     0.129 A 
HETATM    4  C   UNL     1      27.533  45.639  53.585  1.00  0.00     0.075 A 
HETATM    5  C   UNL     1      28.225  44.499  53.937  1.00  0.00     0.091 A 
HETATM    6  C   UNL     1      27.987  43.237  53.407  1.00  0.00     0.046 A 
HETATM    7  O   UNL     1      29.235  44.452  54.848  1.00  0.00    -0.322 OA
HETATM    8  C   UNL     1      29.655  43.164  54.914  1.00  0.00     0.143 A 
HETATM    9  C   UNL     1      28.928  42.378  54.051  1.00  0.00     0.042 A 
ENDROOT
BRANCH   3  10
HETATM   10  C   UNL     1      25.702  46.552  52.185  1.00  0.00     0.270 C 
HETATM   11  N   UNL     1      25.371  46.519  50.852  1.00  0.00    -0.351 N 
HETATM   12  H   UNL     1      25.771  45.769  50.296  1.00  0.00     0.163 HD
HETATM   13  O   UNL     1      25.346  47.436  52.955  1.00  0.00    -0.266 OA
BRANCH  11  14
HETATM   14  C   UNL     1      24.648  47.587  50.211  1.00  0.00     0.165 C 
BRANCH  14  15
HETATM   15  C   UNL     1      25.608  48.409  49.431  1.00  0.00     0.002 A 
HETATM   16  C   UNL     1      25.340  49.492  48.547  1.00  0.00     0.060 A 
HETATM   17  C   UNL     1      24.031  50.083  48.173  1.00  0.00     0.073 C 
HETATM   18  N   UNL     1      26.463  49.984  48.008  1.00  0.00    -0.180 NA
HETATM   19  N   UNL     1      27.437  49.226  48.526  1.00  0.00    -0.288 N 
HETATM   20  H   UNL     1      28.395  49.415  48.248  1.00  0.00     0.188 HD
HETATM   21  C   UNL     1      26.982  48.271  49.382  1.00  0.00     0.120 A 
ENDBRANCH  14  15
ENDBRANCH  11  14
ENDBRANCH   3  10
BRANCH   1  22
HETATM   22  N   UNL     1      26.704  41.820  51.880  1.00  0.00    -0.340 N 
HETATM   23  H   UNL     1      26.247  41.190  52.524  1.00  0.00     0.167 HD
BRANCH  22  24
HETATM   24  C   UNL     1      26.999  41.242  50.634  1.00  0.00     0.034 A 
HETATM   25  C   UNL     1      26.271  41.667  49.513  1.00  0.00     0.031 A 
HETATM   26  C   UNL     1      26.538  41.162  48.238  1.00  0.00     0.022 A 
HETATM   27  C   UNL     1      27.555  40.223  48.057  1.00  0.00     0.017 A 
HETATM   28  C   UNL     1      28.304  39.776  49.151  1.00  0.00    -0.043 A 
HETATM   29 BR   UNL     1      27.868  39.597  46.292  1.00  0.00    -0.051 Br
HETATM   30  C   UNL     1      29.420  38.777  49.011  1.00  0.00     0.049 C 
HETATM   31  C   UNL     1      28.010  40.297  50.427  1.00  0.00     0.037 A 
ENDBRANCH  22  24
ENDBRANCH   1  22
TORSDOF 5
ENDMDL
MODEL 7
REMARK VINA RESULT:      -9.0      2.015      2.776
REMARK  5 active torsions:
REMARK  status: ('A' for Active; 'I' for Inactive)
REMARK    1  A    between atoms: C_7  and  N_8 
REMARK    2  A    between atoms: N_8  and  C_9 
REMARK    3  A    between atoms: C_11  and  C_12 
REMARK       I    between atoms: C_12  and  N_13 
REMARK    4  A    between atoms: N_13  and  C_14 
REMARK    5  A    between atoms: C_14  and  C_15 
ROOT
HETATM    1  C   UNL     1      28.223  41.536  51.170  1.00  0.00     0.142 A 
HETATM    2  N   UNL     1      27.235  42.403  50.815  1.00  0.00    -0.225 NA
HETATM    3  C   UNL     1      26.241  42.014  49.961  1.00  0.00     0.129 A 
HETATM    4  C   UNL     1      26.130  40.766  49.378  1.00  0.00     0.075 A 
HETATM    5  C   UNL     1      27.156  39.914  49.732  1.00  0.00     0.091 A 
HETATM    6  C   UNL     1      28.191  40.243  50.598  1.00  0.00     0.046 A 
HETATM    7  O   UNL     1      27.294  38.635  49.286  1.00  0.00    -0.322 OA
HETATM    8  C   UNL     1      28.416  38.131  49.857  1.00  0.00     0.143 A 
HETATM    9  C   UNL     1      29.003  39.071  50.671  1.00  0.00     0.042 A 
ENDROOT
BRANCH   3  10
HETATM   10  C   UNL     1      25.200  43.047  49.652  1.00  0.00     0.270 C 
HETATM   11  N   UNL     1      25.177  44.114  50.518  1.00  0.00    -0.351 N 
HETATM   12  H   UNL     1      25.810  44.078  51.311  1.00  0.00     0.163 HD
HETATM   13  O   UNL     1      24.445  42.929  48.694  1.00  0.00    -0.266 OA
BRANCH  11  14
HETATM   14  C   UNL     1      24.184  45.155  50.431  1.00  0.00     0.165 C 
BRANCH  14  15
HETATM   15  C   UNL     1      24.872  46.446  50.178  1.00  0.00     0.002 A 
HETATM   16  C   UNL     1      24.333  47.653  49.649  1.00  0.00     0.060 A 
HETATM   17  C   UNL     1      22.943  47.935  49.211  1.00  0.00     0.073 C 
HETATM   18  N   UNL     1      25.263  48.611  49.547  1.00  0.00    -0.180 NA
HETATM   19  N   UNL     1      26.384  48.031  49.994  1.00  0.00    -0.288 N 
HETATM   20  H   UNL     1      27.240  48.577  50.002  1.00  0.00     0.188 HD
HETATM   21  C   UNL     1      26.206  46.739  50.382  1.00  0.00     0.120 A 
ENDBRANCH  14  15
ENDBRANCH  11  14
ENDBRANCH   3  10
BRANCH   1  22
HETATM   22  N   UNL     1      29.252  41.900  52.051  1.00  0.00    -0.340 N 
HETATM   23  H   UNL     1      30.097  41.363  51.916  1.00  0.00     0.167 HD
BRANCH  22  24
HETATM   24  C   UNL     1      29.324  42.813  53.117  1.00  0.00     0.034 A 
HETATM   25  C   UNL     1      28.398  43.866  53.155  1.00  0.00     0.031 A 
HETATM   26  C   UNL     1      28.389  44.788  54.206  1.00  0.00     0.022 A 
HETATM   27  C   UNL     1      29.305  44.666  55.251  1.00  0.00     0.017 A 
HETATM   28  C   UNL     1      30.242  43.627  55.248  1.00  0.00    -0.043 A 
HETATM   29 BR   UNL     1      29.218  45.947  56.650  1.00  0.00    -0.051 Br
HETATM   30  C   UNL     1      31.243  43.440  56.356  1.00  0.00     0.049 C 
HETATM   31  C   UNL     1      30.235  42.715  54.174  1.00  0.00     0.037 A 
ENDBRANCH  22  24
ENDBRANCH   1  22
TORSDOF 5
ENDMDL
MODEL 8
REMARK VINA RESULT:      -8.9      4.146      9.366
REMARK  5 active torsions:
REMARK  status: ('A' for Active; 'I' for Inactive)
REMARK    1  A    between atoms: C_7  and  N_8 
REMARK    2  A    between atoms: N_8  and  C_9 
REMARK    3  A    between atoms: C_11  and  C_12 
REMARK       I    between atoms: C_12  and  N_13 
REMARK    4  A    between atoms: N_13  and  C_14 
REMARK    5  A    between atoms: C_14  and  C_15 
ROOT
HETATM    1  C   UNL     1      24.040  48.064  49.266  1.00  0.00     0.142 A 
HETATM    2  N   UNL     1      24.046  46.943  50.040  1.00  0.00    -0.225 NA
HETATM    3  C   UNL     1      25.203  46.504  50.620  1.00  0.00     0.129 A 
HETATM    4  C   UNL     1      26.441  47.103  50.490  1.00  0.00     0.075 A 
HETATM    5  C   UNL     1      26.416  48.222  49.683  1.00  0.00     0.091 A 
HETATM    6  C   UNL     1      25.276  48.725  49.069  1.00  0.00     0.046 A 
HETATM    7  O   UNL     1      27.500  48.987  49.377  1.00  0.00    -0.322 OA
HETATM    8  C   UNL     1      27.070  49.985  48.567  1.00  0.00     0.143 A 
HETATM    9  C   UNL     1      25.717  49.875  48.347  1.00  0.00     0.042 A 
ENDROOT
BRANCH   3  10
HETATM   10  C   UNL     1      25.087  45.268  51.459  1.00  0.00     0.270 C 
HETATM   11  N   UNL     1      26.277  44.809  51.972  1.00  0.00    -0.351 N 
HETATM   12  H   UNL     1      27.120  45.299  51.690  1.00  0.00     0.163 HD
HETATM   13  O   UNL     1      24.004  44.730  51.661  1.00  0.00    -0.266 OA
BRANCH  11  14
HETATM   14  C   UNL     1      26.370  43.582  52.722  1.00  0.00     0.165 C 
BRANCH  14  15
HETATM   15  C   UNL     1      27.614  43.616  53.533  1.00  0.00     0.002 A 
HETATM   16  C   UNL     1      28.493  42.544  53.860  1.00  0.00     0.060 A 
HETATM   17  C   UNL     1      28.394  41.114  53.477  1.00  0.00     0.073 C 
HETATM   18  N   UNL     1      29.511  42.952  54.628  1.00  0.00    -0.180 NA
HETATM   19  N   UNL     1      29.289  44.261  54.801  1.00  0.00    -0.288 N 
HETATM   20  H   UNL     1      29.943  44.791  55.370  1.00  0.00     0.188 HD
HETATM   21  C   UNL     1      28.170  44.708  54.169  1.00  0.00     0.120 A 
ENDBRANCH  14  15
ENDBRANCH  11  14
ENDBRANCH   3  10
BRANCH   1  22
HETATM   22  N   UNL     1      22.869  48.547  48.664  1.00  0.00    -0.340 N 
HETATM   23  H   UNL     1      23.023  49.379  48.112  1.00  0.00     0.167 HD
BRANCH  22  24
HETATM   24  C   UNL     1      21.524  48.146  48.724  1.00  0.00     0.034 A 
HETATM   25  C   UNL     1      20.578  49.058  49.213  1.00  0.00     0.031 A 
HETATM   26  C   UNL     1      19.218  48.738  49.265  1.00  0.00     0.022 A 
HETATM   27  C   UNL     1      18.775  47.493  48.815  1.00  0.00     0.017 A 
HETATM   28  C   UNL     1      19.690  46.558  48.318  1.00  0.00    -0.043 A 
HETATM   29 BR   UNL     1      16.912  47.140  48.902  1.00  0.00    -0.051 Br
HETATM   30  C   UNL     1      19.267  45.208  47.806  1.00  0.00     0.049 C 
HETATM   31  C   UNL     1      21.056  46.904  48.283  1.00  0.00     0.037 A 
ENDBRANCH  22  24
ENDBRANCH   1  22
TORSDOF 5
ENDMDL
MODEL 9
REMARK VINA RESULT:      -8.9      4.213      9.668
REMARK  5 active torsions:
REMARK  status: ('A' for Active; 'I' for Inactive)
REMARK    1  A    between atoms: C_7  and  N_8 
REMARK    2  A    between atoms: N_8  and  C_9 
REMARK    3  A    between atoms: C_11  and  C_12 
REMARK       I    between atoms: C_12  and  N_13 
REMARK    4  A    between atoms: N_13  and  C_14 
REMARK    5  A    between atoms: C_14  and  C_15 
ROOT
HETATM    1  C   UNL     1      23.996  47.875  49.750  1.00  0.00     0.142 A 
HETATM    2  N   UNL     1      24.477  46.768  50.383  1.00  0.00    -0.225 NA
HETATM    3  C   UNL     1      25.819  46.511  50.411  1.00  0.00     0.129 A 
HETATM    4  C   UNL     1      26.796  47.291  49.824  1.00  0.00     0.075 A 
HETATM    5  C   UNL     1      26.283  48.392  49.168  1.00  0.00     0.091 A 
HETATM    6  C   UNL     1      24.934  48.715  49.106  1.00  0.00     0.046 A 
HETATM    7  O   UNL     1      27.027  49.312  48.494  1.00  0.00    -0.322 OA
HETATM    8  C   UNL     1      26.166  50.232  47.993  1.00  0.00     0.143 A 
HETATM    9  C   UNL     1      24.873  49.918  48.339  1.00  0.00     0.042 A 
ENDROOT
BRANCH   3  10
HETATM   10  C   UNL     1      26.233  45.272  51.146  1.00  0.00     0.270 C 
HETATM   11  N   UNL     1      26.436  45.447  52.494  1.00  0.00    -0.351 N 
HETATM   12  H   UNL     1      26.352  46.392  52.855  1.00  0.00     0.163 HD
HETATM   13  O   UNL     1      26.370  44.200  50.569  1.00  0.00    -0.266 OA
BRANCH  11  14
HETATM   14  C   UNL     1      26.928  44.391  53.342  1.00  0.00     0.165 C 
BRANCH  14  15
HETATM   15  C   UNL     1      27.915  44.966  54.291  1.00  0.00     0.002 A 
HETATM   16  C   UNL     1      29.100  44.371  54.812  1.00  0.00     0.060 A 
HETATM   17  C   UNL     1      29.656  43.022  54.544  1.00  0.00     0.073 C 
HETATM   18  N   UNL     1      29.736  45.190  55.659  1.00  0.00    -0.180 NA
HETATM   19  N   UNL     1      28.972  46.289  55.692  1.00  0.00    -0.288 N 
HETATM   20  H   UNL     1      29.260  47.060  56.288  1.00  0.00     0.188 HD
HETATM   21  C   UNL     1      27.873  46.208  54.894  1.00  0.00     0.120 A 
ENDBRANCH  14  15
ENDBRANCH  11  14
ENDBRANCH   3  10
BRANCH   1  22
HETATM   22  N   UNL     1      22.626  48.173  49.711  1.00  0.00    -0.340 N 
HETATM   23  H   UNL     1      22.246  48.407  50.618  1.00  0.00     0.167 HD
BRANCH  22  24
HETATM   24  C   UNL     1      21.669  48.154  48.682  1.00  0.00     0.034 A 
HETATM   25  C   UNL     1      21.358  46.923  48.085  1.00  0.00     0.031 A 
HETATM   26  C   UNL     1      20.389  46.826  47.083  1.00  0.00     0.022 A 
HETATM   27  C   UNL     1      19.700  47.964  46.664  1.00  0.00     0.017 A 
HETATM   28  C   UNL     1      19.982  49.209  47.237  1.00  0.00    -0.043 A 
HETATM   29 BR   UNL     1      18.387  47.748  45.310  1.00  0.00    -0.051 Br
HETATM   30  C   UNL     1      19.260  50.466  46.834  1.00  0.00     0.049 C 
HETATM   31  C   UNL     1      20.969  49.281  48.242  1.00  0.00     0.037 A 
ENDBRANCH  22  24
ENDBRANCH   1  22
TORSDOF 5
ENDMDL
MODEL 10
REMARK VINA RESULT:      -8.8      3.504      4.946
REMARK  5 active torsions:
REMARK  status: ('A' for Active; 'I' for Inactive)
REMARK    1  A    between atoms: C_7  and  N_8 
REMARK    2  A    between atoms: N_8  and  C_9 
REMARK    3  A    between atoms: C_11  and  C_12 
REMARK       I    between atoms: C_12  and  N_13 
REMARK    4  A    between atoms: N_13  and  C_14 
REMARK    5  A    between atoms: C_14  and  C_15 
ROOT
HETATM    1  C   UNL     1      24.770  45.638  50.015  1.00  0.00     0.142 A 
HETATM    2  N   UNL     1      24.293  46.851  49.618  1.00  0.00    -0.225 NA
HETATM    3  C   UNL     1      23.061  46.956  49.034  1.00  0.00     0.129 A 
HETATM    4  C   UNL     1      22.202  45.904  48.781  1.00  0.00     0.075 A 
HETATM    5  C   UNL     1      22.718  44.684  49.169  1.00  0.00     0.091 A 
HETATM    6  C   UNL     1      23.957  44.507  49.771  1.00  0.00     0.046 A 
HETATM    7  O   UNL     1      22.084  43.488  49.017  1.00  0.00    -0.322 OA
HETATM    8  C   UNL     1      22.907  42.534  49.518  1.00  0.00     0.143 A 
HETATM    9  C   UNL     1      24.065  43.101  49.996  1.00  0.00     0.042 A 
ENDROOT
BRANCH   3  10
HETATM   10  C   UNL     1      22.635  48.341  48.650  1.00  0.00     0.270 C 
HETATM   11  N   UNL     1      22.160  49.104  49.689  1.00  0.00    -0.351 N 
HETATM   12  H   UNL     1      22.081  48.652  50.595  1.00  0.00     0.163 HD
HETATM   13  O   UNL     1      22.718  48.738  47.493  1.00  0.00    -0.266 OA
BRANCH  11  14
HETATM   14  C   UNL     1      21.619  50.424  49.490  1.00  0.00     0.165 C 
BRANCH  14  15
HETATM   15  C   UNL     1      20.150  50.372  49.703  1.00  0.00     0.002 A 
HETATM   16  C   UNL     1      19.149  51.262  49.222  1.00  0.00     0.060 A 
HETATM   17  C   UNL     1      19.311  52.476  48.384  1.00  0.00     0.073 C 
HETATM   18  N   UNL     1      17.925  50.903  49.632  1.00  0.00    -0.180 NA
HETATM   19  N   UNL     1      18.134  49.807  50.372  1.00  0.00    -0.288 N 
HETATM   20  H   UNL     1      17.333  49.355  50.801  1.00  0.00     0.188 HD
HETATM   21  C   UNL     1      19.444  49.446  50.447  1.00  0.00     0.120 A 
ENDBRANCH  14  15
ENDBRANCH  11  14
ENDBRANCH   3  10
BRANCH   1  22
HETATM   22  N   UNL     1      26.025  45.496  50.625  1.00  0.00    -0.340 N 
HETATM   23  H   UNL     1      26.738  45.166  49.990  1.00  0.00     0.167 HD
BRANCH  22  24
HETATM   24  C   UNL     1      26.473  45.660  51.947  1.00  0.00     0.034 A 
HETATM   25  C   UNL     1      27.326  44.686  52.487  1.00  0.00     0.031 A 
HETATM   26  C   UNL     1      27.839  44.807  53.781  1.00  0.00     0.022 A 
HETATM   27  C   UNL     1      27.515  45.917  54.562  1.00  0.00     0.017 A 
HETATM   28  C   UNL     1      26.668  46.909  54.056  1.00  0.00    -0.043 A 
HETATM   29 BR   UNL     1      28.265  46.016  56.303  1.00  0.00    -0.051 Br
HETATM   30  C   UNL     1      26.298  48.134  54.848  1.00  0.00     0.049 C 
HETATM   31  C   UNL     1      26.159  46.761  52.750  1.00  0.00     0.037 A 
ENDBRANCH  22  24
ENDBRANCH   1  22
TORSDOF 5
ENDMDL
