MODEL 1
REMARK VINA RESULT:      -7.7      0.000      0.000
REMARK  2 active torsions:
REMARK  status: ('A' for Active; 'I' for Inactive)
REMARK    1  A    between atoms: C_2  and  C_3 
REMARK       I    between atoms: C_3  and  N_4 
REMARK    2  A    between atoms: N_4  and  C_5 
ROOT
HETATM    1  C   UNL     1      24.752  46.897  50.726  1.00  0.00     0.174 A 
HETATM    2  S   UNL     1      25.465  45.550  49.975  1.00  0.00    -0.050 SA
HETATM    3  C   UNL     1      26.380  45.231  51.399  1.00  0.00     0.040 A 
HETATM    4  C   UNL     1      26.055  46.197  52.364  1.00  0.00     0.079 A 
HETATM    5  N   UNL     1      25.121  47.137  51.960  1.00  0.00    -0.223 NA
HETATM    6  C   UNL     1      27.313  44.204  51.637  1.00  0.00     0.061 A 
HETATM    7  C   UNL     1      27.900  44.206  52.888  1.00  0.00     0.106 A 
HETATM    8  C   UNL     1      27.596  45.140  53.846  1.00  0.00     0.107 A 
HETATM    9  O   UNL     1      28.295  44.948  54.999  1.00  0.00    -0.323 OA
HETATM   10  C   UNL     1      29.080  43.789  54.653  1.00  0.00     0.352 A 
HETATM   11  O   UNL     1      28.828  43.308  53.317  1.00  0.00    -0.323 OA
HETATM   12  C   UNL     1      26.680  46.152  53.631  1.00  0.00     0.073 A 
ENDROOT
BRANCH   1  13
HETATM   13  N   UNL     1      23.845  47.713  50.102  1.00  0.00    -0.301 N 
HETATM   14  C   UNL     1      24.090  48.853  49.370  1.00  0.00     0.264 C 
HETATM   15  O   UNL     1      25.203  49.312  49.132  1.00  0.00    -0.267 OA
HETATM   16  H   UNL     1      22.887  47.420  50.231  1.00  0.00     0.171 HD
BRANCH  14  17
HETATM   17  C   UNL     1      22.886  49.521  48.872  1.00  0.00     0.074 A 
HETATM   18  C   UNL     1      22.512  50.835  49.114  1.00  0.00     0.026 A 
HETATM   19  C   UNL     1      21.276  51.181  48.491  1.00  0.00     0.028 A 
HETATM   20  C   UNL     1      20.760  50.118  47.798  1.00  0.00     0.052 A 
HETATM   21  S   UNL     1      21.725  48.730  47.882  1.00  0.00    -0.077 SA
HETATM   22 BR   UNL     1      19.146  50.185  46.849  1.00  0.00    -0.043 Br
ENDBRANCH  14  17
ENDBRANCH   1  13
TORSDOF 2
ENDMDL
MODEL 2
REMARK VINA RESULT:      -7.7      1.111      1.301
REMARK  2 active torsions:
REMARK  status: ('A' for Active; 'I' for Inactive)
REMARK    1  A    between atoms: C_2  and  C_3 
REMARK       I    between atoms: C_3  and  N_4 
REMARK    2  A    between atoms: N_4  and  C_5 
ROOT
HETATM    1  C   UNL     1      25.033  46.866  51.396  1.00  0.00     0.174 A 
HETATM    2  S   UNL     1      25.647  45.296  51.186  1.00  0.00    -0.050 SA
HETATM    3  C   UNL     1      26.622  45.480  52.594  1.00  0.00     0.040 A 
HETATM    4  C   UNL     1      26.391  46.755  53.133  1.00  0.00     0.079 A 
HETATM    5  N   UNL     1      25.477  47.529  52.435  1.00  0.00    -0.223 NA
HETATM    6  C   UNL     1      27.522  44.564  53.171  1.00  0.00     0.061 A 
HETATM    7  C   UNL     1      28.174  45.000  54.308  1.00  0.00     0.106 A 
HETATM    8  C   UNL     1      27.962  46.242  54.852  1.00  0.00     0.107 A 
HETATM    9  O   UNL     1      28.712  46.455  55.967  1.00  0.00    -0.323 OA
HETATM   10  C   UNL     1      29.428  45.206  56.059  1.00  0.00     0.352 A 
HETATM   11  O   UNL     1      29.085  44.274  55.013  1.00  0.00    -0.323 OA
HETATM   12  C   UNL     1      27.080  47.151  54.301  1.00  0.00     0.073 A 
ENDROOT
BRANCH   1  13
HETATM   13  N   UNL     1      24.130  47.441  50.541  1.00  0.00    -0.301 N 
HETATM   14  C   UNL     1      24.378  48.305  49.499  1.00  0.00     0.264 C 
HETATM   15  O   UNL     1      25.490  48.683  49.146  1.00  0.00    -0.267 OA
HETATM   16  H   UNL     1      23.172  47.189  50.741  1.00  0.00     0.171 HD
BRANCH  14  17
HETATM   17  C   UNL     1      23.176  48.774  48.804  1.00  0.00     0.074 A 
HETATM   18  C   UNL     1      22.970  50.040  48.277  1.00  0.00     0.026 A 
HETATM   19  C   UNL     1      21.687  50.184  47.669  1.00  0.00     0.028 A 
HETATM   20  C   UNL     1      20.970  49.020  47.755  1.00  0.00     0.052 A 
HETATM   21  S   UNL     1      21.803  47.774  48.543  1.00  0.00    -0.077 SA
HETATM   22 BR   UNL     1      19.238  48.818  47.071  1.00  0.00    -0.043 Br
ENDBRANCH  14  17
ENDBRANCH   1  13
TORSDOF 2
ENDMDL
MODEL 3
REMARK VINA RESULT:      -7.7      7.523      8.696
REMARK  2 active torsions:
REMARK  status: ('A' for Active; 'I' for Inactive)
REMARK    1  A    between atoms: C_2  and  C_3 
REMARK       I    between atoms: C_3  and  N_4 
REMARK    2  A    between atoms: N_4  and  C_5 
ROOT
HETATM    1  C   UNL     1      29.243  42.408  52.660  1.00  0.00     0.174 A 
HETATM    2  S   UNL     1      28.248  43.776  52.817  1.00  0.00    -0.050 SA
HETATM    3  C   UNL     1      29.036  44.190  54.292  1.00  0.00     0.040 A 
HETATM    4  C   UNL     1      30.028  43.233  54.551  1.00  0.00     0.079 A 
HETATM    5  N   UNL     1      30.132  42.226  53.605  1.00  0.00    -0.223 NA
HETATM    6  C   UNL     1      28.788  45.278  55.149  1.00  0.00     0.061 A 
HETATM    7  C   UNL     1      29.586  45.347  56.275  1.00  0.00     0.106 A 
HETATM    8  C   UNL     1      30.563  44.423  56.548  1.00  0.00     0.107 A 
HETATM    9  O   UNL     1      31.220  44.690  57.709  1.00  0.00    -0.323 OA
HETATM   10  C   UNL     1      30.539  45.885  58.141  1.00  0.00     0.352 A 
HETATM   11  O   UNL     1      29.506  46.313  57.231  1.00  0.00    -0.323 OA
HETATM   12  C   UNL     1      30.821  43.351  55.714  1.00  0.00     0.073 A 
ENDROOT
BRANCH   1  13
HETATM   13  N   UNL     1      29.144  41.521  51.621  1.00  0.00    -0.301 N 
HETATM   14  C   UNL     1      28.019  40.876  51.159  1.00  0.00     0.264 C 
HETATM   15  O   UNL     1      26.887  41.026  51.607  1.00  0.00    -0.267 OA
HETATM   16  H   UNL     1      30.029  41.328  51.172  1.00  0.00     0.171 HD
BRANCH  14  17
HETATM   17  C   UNL     1      28.265  39.950  50.050  1.00  0.00     0.074 A 
HETATM   18  C   UNL     1      29.043  38.803  50.091  1.00  0.00     0.026 A 
HETATM   19  C   UNL     1      29.090  38.122  48.838  1.00  0.00     0.028 A 
HETATM   20  C   UNL     1      28.344  38.778  47.894  1.00  0.00     0.052 A 
HETATM   21  S   UNL     1      27.598  40.179  48.483  1.00  0.00    -0.077 SA
HETATM   22 BR   UNL     1      28.163  38.190  46.125  1.00  0.00    -0.043 Br
ENDBRANCH  14  17
ENDBRANCH   1  13
TORSDOF 2
ENDMDL
MODEL 4
REMARK VINA RESULT:      -7.4      4.905      8.816
REMARK  2 active torsions:
REMARK  status: ('A' for Active; 'I' for Inactive)
REMARK    1  A    between atoms: C_2  and  C_3 
REMARK       I    between atoms: C_3  and  N_4 
REMARK    2  A    between atoms: N_4  and  C_5 
ROOT
HETATM    1  C   UNL     1      26.261  45.027  52.249  1.00  0.00     0.174 A 
HETATM    2  S   UNL     1      25.969  46.488  51.432  1.00  0.00    -0.050 SA
HETATM    3  C   UNL     1      24.707  45.741  50.529  1.00  0.00     0.040 A 
HETATM    4  C   UNL     1      24.597  44.403  50.938  1.00  0.00     0.079 A 
HETATM    5  N   UNL     1      25.492  44.017  51.924  1.00  0.00    -0.223 NA
HETATM    6  C   UNL     1      23.882  46.300  49.535  1.00  0.00     0.061 A 
HETATM    7  C   UNL     1      22.952  45.444  48.978  1.00  0.00     0.106 A 
HETATM    8  C   UNL     1      22.827  44.134  49.364  1.00  0.00     0.107 A 
HETATM    9  O   UNL     1      21.847  43.482  48.680  1.00  0.00    -0.323 OA
HETATM   10  C   UNL     1      21.374  44.532  47.811  1.00  0.00     0.352 A 
HETATM   11  O   UNL     1      22.066  45.783  48.001  1.00  0.00    -0.323 OA
HETATM   12  C   UNL     1      23.626  43.570  50.341  1.00  0.00     0.073 A 
ENDROOT
BRANCH   1  13
HETATM   13  N   UNL     1      27.241  44.877  53.194  1.00  0.00    -0.301 N 
HETATM   14  C   UNL     1      28.394  44.132  53.110  1.00  0.00     0.264 C 
HETATM   15  O   UNL     1      28.747  43.487  52.128  1.00  0.00    -0.267 OA
HETATM   16  H   UNL     1      27.051  45.377  54.052  1.00  0.00     0.171 HD
BRANCH  14  17
HETATM   17  C   UNL     1      29.215  44.149  54.324  1.00  0.00     0.074 A 
HETATM   18  C   UNL     1      30.240  43.269  54.639  1.00  0.00     0.026 A 
HETATM   19  C   UNL     1      30.840  43.549  55.903  1.00  0.00     0.028 A 
HETATM   20  C   UNL     1      30.249  44.633  56.498  1.00  0.00     0.052 A 
HETATM   21  S   UNL     1      29.002  45.309  55.574  1.00  0.00    -0.077 SA
HETATM   22 BR   UNL     1      30.762  45.304  58.170  1.00  0.00    -0.043 Br
ENDBRANCH  14  17
ENDBRANCH   1  13
TORSDOF 2
ENDMDL
MODEL 5
REMARK VINA RESULT:      -7.3      2.285      3.152
REMARK  2 active torsions:
REMARK  status: ('A' for Active; 'I' for Inactive)
REMARK    1  A    between atoms: C_2  and  C_3 
REMARK       I    between atoms: C_3  and  N_4 
REMARK    2  A    between atoms: N_4  and  C_5 
ROOT
HETATM    1  C   UNL     1      26.472  45.131  52.224  1.00  0.00     0.174 A 
HETATM    2  S   UNL     1      27.314  43.676  51.982  1.00  0.00    -0.050 SA
HETATM    3  C   UNL     1      28.276  43.990  53.375  1.00  0.00     0.040 A 
HETATM    4  C   UNL     1      27.864  45.208  53.936  1.00  0.00     0.079 A 
HETATM    5  N   UNL     1      26.830  45.842  53.266  1.00  0.00    -0.223 NA
HETATM    6  C   UNL     1      29.316  43.215  53.922  1.00  0.00     0.061 A 
HETATM    7  C   UNL     1      29.915  43.732  55.054  1.00  0.00     0.106 A 
HETATM    8  C   UNL     1      29.528  44.920  55.620  1.00  0.00     0.107 A 
HETATM    9  O   UNL     1      30.258  45.231  56.726  1.00  0.00    -0.323 OA
HETATM   10  C   UNL     1      31.157  44.105  56.786  1.00  0.00     0.352 A 
HETATM   11  O   UNL     1      30.940  43.145  55.733  1.00  0.00    -0.323 OA
HETATM   12  C   UNL     1      28.506  45.691  55.098  1.00  0.00     0.073 A 
ENDROOT
BRANCH   1  13
HETATM   13  N   UNL     1      25.476  45.572  51.394  1.00  0.00    -0.301 N 
HETATM   14  C   UNL     1      25.591  46.364  50.275  1.00  0.00     0.264 C 
HETATM   15  O   UNL     1      26.647  46.788  49.817  1.00  0.00    -0.267 OA
HETATM   16  H   UNL     1      24.553  45.272  51.679  1.00  0.00     0.171 HD
BRANCH  14  17
HETATM   17  C   UNL     1      24.316  46.692  49.632  1.00  0.00     0.074 A 
HETATM   18  C   UNL     1      23.393  45.790  49.123  1.00  0.00     0.026 A 
HETATM   19  C   UNL     1      22.253  46.430  48.551  1.00  0.00     0.028 A 
HETATM   20  C   UNL     1      22.352  47.793  48.650  1.00  0.00     0.052 A 
HETATM   21  S   UNL     1      23.775  48.308  49.410  1.00  0.00    -0.077 SA
HETATM   22 BR   UNL     1      21.049  48.976  48.010  1.00  0.00    -0.043 Br
ENDBRANCH  14  17
ENDBRANCH   1  13
TORSDOF 2
ENDMDL
MODEL 6
REMARK VINA RESULT:      -7.3      4.086      8.623
REMARK  2 active torsions:
REMARK  status: ('A' for Active; 'I' for Inactive)
REMARK    1  A    between atoms: C_2  and  C_3 
REMARK       I    between atoms: C_3  and  N_4 
REMARK    2  A    between atoms: N_4  and  C_5 
ROOT
HETATM    1  C   UNL     1      24.796  46.457  50.176  1.00  0.00     0.174 A 
HETATM    2  S   UNL     1      23.678  45.650  49.184  1.00  0.00    -0.050 SA
HETATM    3  C   UNL     1      22.889  47.142  48.843  1.00  0.00     0.040 A 
HETATM    4  C   UNL     1      23.563  48.168  49.523  1.00  0.00     0.079 A 
HETATM    5  N   UNL     1      24.651  47.755  50.276  1.00  0.00    -0.223 NA
HETATM    6  C   UNL     1      21.761  47.380  48.036  1.00  0.00     0.061 A 
HETATM    7  C   UNL     1      21.349  48.696  47.956  1.00  0.00     0.106 A 
HETATM    8  C   UNL     1      21.993  49.715  48.612  1.00  0.00     0.107 A 
HETATM    9  O   UNL     1      21.412  50.925  48.390  1.00  0.00    -0.323 OA
HETATM   10  C   UNL     1      20.321  50.550  47.524  1.00  0.00     0.352 A 
HETATM   11  O   UNL     1      20.280  49.138  47.238  1.00  0.00    -0.323 OA
HETATM   12  C   UNL     1      23.105  49.499  49.405  1.00  0.00     0.073 A 
ENDROOT
BRANCH   1  13
HETATM   13  N   UNL     1      25.799  45.817  50.855  1.00  0.00    -0.301 N 
HETATM   14  C   UNL     1      25.692  44.990  51.949  1.00  0.00     0.264 C 
HETATM   15  O   UNL     1      24.638  44.665  52.486  1.00  0.00    -0.267 OA
HETATM   16  H   UNL     1      26.721  46.013  50.488  1.00  0.00     0.171 HD
BRANCH  14  17
HETATM   17  C   UNL     1      26.972  44.500  52.465  1.00  0.00     0.074 A 
HETATM   18  C   UNL     1      27.931  43.793  51.754  1.00  0.00     0.026 A 
HETATM   19  C   UNL     1      29.067  43.451  52.548  1.00  0.00     0.028 A 
HETATM   20  C   UNL     1      28.928  43.914  53.830  1.00  0.00     0.052 A 
HETATM   21  S   UNL     1      27.474  44.741  54.091  1.00  0.00    -0.077 SA
HETATM   22 BR   UNL     1      30.213  43.658  55.168  1.00  0.00    -0.043 Br
ENDBRANCH  14  17
ENDBRANCH   1  13
TORSDOF 2
ENDMDL
MODEL 7
REMARK VINA RESULT:      -7.3      4.665      9.577
REMARK  2 active torsions:
REMARK  status: ('A' for Active; 'I' for Inactive)
REMARK    1  A    between atoms: C_2  and  C_3 
REMARK       I    between atoms: C_3  and  N_4 
REMARK    2  A    between atoms: N_4  and  C_5 
ROOT
HETATM    1  C   UNL     1      20.886  49.264  49.412  1.00  0.00     0.174 A 
HETATM    2  S   UNL     1      19.600  48.460  48.646  1.00  0.00    -0.050 SA
HETATM    3  C   UNL     1      18.574  49.816  48.925  1.00  0.00     0.040 A 
HETATM    4  C   UNL     1      19.315  50.805  49.592  1.00  0.00     0.079 A 
HETATM    5  N   UNL     1      20.633  50.470  49.857  1.00  0.00    -0.223 NA
HETATM    6  C   UNL     1      17.220  49.984  48.581  1.00  0.00     0.061 A 
HETATM    7  C   UNL     1      16.656  51.191  48.945  1.00  0.00     0.106 A 
HETATM    8  C   UNL     1      17.361  52.172  49.596  1.00  0.00     0.107 A 
HETATM    9  O   UNL     1      16.602  53.272  49.855  1.00  0.00    -0.323 OA
HETATM   10  C   UNL     1      15.334  52.867  49.299  1.00  0.00     0.352 A 
HETATM   11  O   UNL     1      15.363  51.550  48.712  1.00  0.00    -0.323 OA
HETATM   12  C   UNL     1      18.692  52.024  49.937  1.00  0.00     0.073 A 
ENDROOT
BRANCH   1  13
HETATM   13  N   UNL     1      22.126  48.708  49.581  1.00  0.00    -0.301 N 
HETATM   14  C   UNL     1      23.218  48.799  48.748  1.00  0.00     0.264 C 
HETATM   15  O   UNL     1      23.256  49.441  47.703  1.00  0.00    -0.267 OA
HETATM   16  H   UNL     1      22.208  48.156  50.424  1.00  0.00     0.171 HD
BRANCH  14  17
HETATM   17  C   UNL     1      24.390  48.045  49.202  1.00  0.00     0.074 A 
HETATM   18  C   UNL     1      25.690  48.519  49.295  1.00  0.00     0.026 A 
HETATM   19  C   UNL     1      26.606  47.531  49.764  1.00  0.00     0.028 A 
HETATM   20  C   UNL     1      25.965  46.345  50.013  1.00  0.00     0.052 A 
HETATM   21  S   UNL     1      24.303  46.401  49.696  1.00  0.00    -0.077 SA
HETATM   22 BR   UNL     1      26.834  44.810  50.640  1.00  0.00    -0.043 Br
ENDBRANCH  14  17
ENDBRANCH   1  13
TORSDOF 2
ENDMDL
MODEL 8
REMARK VINA RESULT:      -7.1      5.700      6.547
REMARK  2 active torsions:
REMARK  status: ('A' for Active; 'I' for Inactive)
REMARK    1  A    between atoms: C_2  and  C_3 
REMARK       I    between atoms: C_3  and  N_4 
REMARK    2  A    between atoms: N_4  and  C_5 
ROOT
HETATM    1  C   UNL     1      27.883  43.596  52.760  1.00  0.00     0.174 A 
HETATM    2  S   UNL     1      27.390  45.008  53.566  1.00  0.00    -0.050 SA
HETATM    3  C   UNL     1      28.650  44.800  54.722  1.00  0.00     0.040 A 
HETATM    4  C   UNL     1      29.373  43.644  54.389  1.00  0.00     0.079 A 
HETATM    5  N   UNL     1      28.921  42.974  53.263  1.00  0.00    -0.223 NA
HETATM    6  C   UNL     1      28.967  45.599  55.835  1.00  0.00     0.061 A 
HETATM    7  C   UNL     1      30.041  45.173  56.592  1.00  0.00     0.106 A 
HETATM    8  C   UNL     1      30.762  44.047  56.285  1.00  0.00     0.107 A 
HETATM    9  O   UNL     1      31.772  43.820  57.168  1.00  0.00    -0.323 OA
HETATM   10  C   UNL     1      31.599  44.929  58.074  1.00  0.00     0.352 A 
HETATM   11  O   UNL     1      30.507  45.797  57.709  1.00  0.00    -0.323 OA
HETATM   12  C   UNL     1      30.467  43.253  55.193  1.00  0.00     0.073 A 
ENDROOT
BRANCH   1  13
HETATM   13  N   UNL     1      27.251  43.104  51.649  1.00  0.00    -0.301 N 
HETATM   14  C   UNL     1      27.140  43.685  50.407  1.00  0.00     0.264 C 
HETATM   15  O   UNL     1      27.635  44.761  50.086  1.00  0.00    -0.267 OA
HETATM   16  H   UNL     1      26.808  42.208  51.803  1.00  0.00     0.171 HD
BRANCH  14  17
HETATM   17  C   UNL     1      26.354  42.910  49.444  1.00  0.00     0.074 A 
HETATM   18  C   UNL     1      25.046  43.158  49.057  1.00  0.00     0.026 A 
HETATM   19  C   UNL     1      24.561  42.211  48.106  1.00  0.00     0.028 A 
HETATM   20  C   UNL     1      25.522  41.281  47.805  1.00  0.00     0.052 A 
HETATM   21  S   UNL     1      26.976  41.526  48.637  1.00  0.00    -0.077 SA
HETATM   22 BR   UNL     1      25.259  39.874  46.597  1.00  0.00    -0.043 Br
ENDBRANCH  14  17
ENDBRANCH   1  13
TORSDOF 2
ENDMDL
MODEL 9
REMARK VINA RESULT:      -6.9      5.869      8.584
REMARK  2 active torsions:
REMARK  status: ('A' for Active; 'I' for Inactive)
REMARK    1  A    between atoms: C_2  and  C_3 
REMARK       I    between atoms: C_3  and  N_4 
REMARK    2  A    between atoms: N_4  and  C_5 
ROOT
HETATM    1  C   UNL     1      18.031  51.083  49.613  1.00  0.00     0.174 A 
HETATM    2  S   UNL     1      18.037  49.428  49.234  1.00  0.00    -0.050 SA
HETATM    3  C   UNL     1      19.759  49.419  49.258  1.00  0.00     0.040 A 
HETATM    4  C   UNL     1      20.207  50.713  49.571  1.00  0.00     0.079 A 
HETATM    5  N   UNL     1      19.203  51.646  49.773  1.00  0.00    -0.223 NA
HETATM    6  C   UNL     1      20.641  48.349  49.016  1.00  0.00     0.061 A 
HETATM    7  C   UNL     1      21.986  48.650  49.102  1.00  0.00     0.106 A 
HETATM    8  C   UNL     1      22.445  49.907  49.407  1.00  0.00     0.107 A 
HETATM    9  O   UNL     1      23.805  49.970  49.434  1.00  0.00    -0.323 OA
HETATM   10  C   UNL     1      24.149  48.610  49.102  1.00  0.00     0.352 A 
HETATM   11  O   UNL     1      22.999  47.764  48.898  1.00  0.00    -0.323 OA
HETATM   12  C   UNL     1      21.594  50.968  49.651  1.00  0.00     0.073 A 
ENDROOT
BRANCH   1  13
HETATM   13  N   UNL     1      16.884  51.821  49.745  1.00  0.00    -0.301 N 
HETATM   14  C   UNL     1      16.063  52.300  48.749  1.00  0.00     0.264 C 
HETATM   15  O   UNL     1      16.226  52.108  47.549  1.00  0.00    -0.267 OA
HETATM   16  H   UNL     1      16.651  52.034  50.705  1.00  0.00     0.171 HD
BRANCH  14  17
HETATM   17  C   UNL     1      14.932  53.097  49.230  1.00  0.00     0.074 A 
HETATM   18  C   UNL     1      14.356  53.035  50.490  1.00  0.00     0.026 A 
HETATM   19  C   UNL     1      13.261  53.937  50.642  1.00  0.00     0.028 A 
HETATM   20  C   UNL     1      13.049  54.651  49.492  1.00  0.00     0.052 A 
HETATM   21  S   UNL     1      14.131  54.260  48.250  1.00  0.00    -0.077 SA
HETATM   22 BR   UNL     1      11.697  55.933  49.303  1.00  0.00    -0.043 Br
ENDBRANCH  14  17
ENDBRANCH   1  13
TORSDOF 2
ENDMDL
MODEL 10
REMARK VINA RESULT:      -6.9      7.555      9.724
REMARK  2 active torsions:
REMARK  status: ('A' for Active; 'I' for Inactive)
REMARK    1  A    between atoms: C_2  and  C_3 
REMARK       I    between atoms: C_3  and  N_4 
REMARK    2  A    between atoms: N_4  and  C_5 
ROOT
HETATM    1  C   UNL     1      28.332  41.142  51.871  1.00  0.00     0.174 A 
HETATM    2  S   UNL     1      26.807  41.424  51.177  1.00  0.00    -0.050 SA
HETATM    3  C   UNL     1      27.095  40.182  50.019  1.00  0.00     0.040 A 
HETATM    4  C   UNL     1      28.361  39.629  50.263  1.00  0.00     0.079 A 
HETATM    5  N   UNL     1      29.049  40.189  51.327  1.00  0.00    -0.223 NA
HETATM    6  C   UNL     1      26.261  39.738  48.976  1.00  0.00     0.061 A 
HETATM    7  C   UNL     1      26.769  38.717  48.196  1.00  0.00     0.106 A 
HETATM    8  C   UNL     1      28.004  38.161  48.417  1.00  0.00     0.107 A 
HETATM    9  O   UNL     1      28.297  37.175  47.527  1.00  0.00    -0.323 OA
HETATM   10  C   UNL     1      27.107  37.179  46.712  1.00  0.00     0.352 A 
HETATM   11  O   UNL     1      26.129  38.150  47.137  1.00  0.00    -0.323 OA
HETATM   12  C   UNL     1      28.833  38.583  49.440  1.00  0.00     0.073 A 
ENDROOT
BRANCH   1  13
HETATM   13  N   UNL     1      28.819  41.857  52.933  1.00  0.00    -0.301 N 
HETATM   14  C   UNL     1      28.944  43.222  53.052  1.00  0.00     0.264 C 
HETATM   15  O   UNL     1      28.597  44.038  52.205  1.00  0.00    -0.267 OA
HETATM   16  H   UNL     1      29.132  41.275  53.698  1.00  0.00     0.171 HD
BRANCH  14  17
HETATM   17  C   UNL     1      29.549  43.666  54.311  1.00  0.00     0.074 A 
HETATM   18  C   UNL     1      30.618  43.074  54.966  1.00  0.00     0.026 A 
HETATM   19  C   UNL     1      30.964  43.743  56.177  1.00  0.00     0.028 A 
HETATM   20  C   UNL     1      30.145  44.821  56.395  1.00  0.00     0.052 A 
HETATM   21  S   UNL     1      28.984  45.036  55.181  1.00  0.00    -0.077 SA
HETATM   22 BR   UNL     1      30.288  45.946  57.884  1.00  0.00    -0.043 Br
ENDBRANCH  14  17
ENDBRANCH   1  13
TORSDOF 2
ENDMDL
