MODEL 1
REMARK VINA RESULT:      -7.8      0.000      0.000
REMARK  4 active torsions:
REMARK  status: ('A' for Active; 'I' for Inactive)
REMARK    1  A    between atoms: O_2  and  C_3 
REMARK    2  A    between atoms: C_4  and  C_5 
REMARK    3  A    between atoms: C_9  and  N_10 
REMARK    4  A    between atoms: C_13  and  C_14 
ROOT
HETATM    1  C   UNL     1      31.968  51.989  41.521  1.00  0.00     0.167 C 
HETATM    2  N   UNL     1      33.365  51.559  41.537  1.00  0.00    -0.074 N 
HETATM    3  C   UNL     1      33.807  50.376  42.069  1.00  0.00     0.736 A 
HETATM    4  N   UNL     1      35.102  50.295  41.903  1.00  0.00     0.131 NA
HETATM    5  C   UNL     1      35.413  51.485  41.315  1.00  0.00     0.753 A 
HETATM    6  N   UNL     1      34.386  52.295  41.064  1.00  0.00     0.037 NA
HETATM    7  N   UNL     1      32.965  49.505  42.654  1.00  0.00    -0.214 N 
HETATM    8  C   UNL     1      31.522  49.701  42.609  1.00  0.00     0.135 C 
HETATM    9  C   UNL     1      31.210  51.214  42.624  1.00  0.00     0.063 C 
HETATM   10  H   UNL     1      33.308  48.585  42.913  1.00  0.00     0.178 HD
ENDROOT
BRANCH   1  11
HETATM   11  C   UNL     1      31.310  51.913  40.139  1.00  0.00     0.001 A 
HETATM   12  C   UNL     1      30.014  52.446  39.952  1.00  0.00     0.076 A 
HETATM   13  C   UNL     1      29.393  52.367  38.697  1.00  0.00     0.037 A 
HETATM   14  C   UNL     1      30.041  51.758  37.624  1.00  0.00     0.003 A 
HETATM   15  C   UNL     1      31.317  51.237  37.790  1.00  0.00     0.001 A 
HETATM   16  C   UNL     1      31.947  51.319  39.032  1.00  0.00     0.012 A 
BRANCH  12  17
HETATM   17  O   UNL     1      29.444  53.047  41.046  1.00  0.00    -0.355 OA
HETATM   18  C   UNL     1      28.101  52.693  41.352  1.00  0.00     0.210 C 
ENDBRANCH  12  17
ENDBRANCH   1  11
BRANCH   8  19
HETATM   19  C   UNL     1      30.845  48.926  41.484  1.00  0.00    -0.035 A 
HETATM   20  C   UNL     1      31.543  48.066  40.620  1.00  0.00     0.010 A 
HETATM   21  C   UNL     1      30.888  47.401  39.579  1.00  0.00     0.019 A 
HETATM   22  C   UNL     1      29.520  47.579  39.395  1.00  0.00     0.011 A 
HETATM   23 BR   UNL     1      28.640  46.701  37.973  1.00  0.00    -0.051 Br
HETATM   24  C   UNL     1      28.799  48.404  40.253  1.00  0.00     0.019 A 
HETATM   25  C   UNL     1      29.456  49.064  41.294  1.00  0.00     0.010 A 
ENDBRANCH   8  19
BRANCH   5  26
HETATM   26  N   UNL     1      36.683  51.731  41.009  1.00  0.00    -0.229 N 
HETATM   27  H   UNL     1      36.966  52.702  40.986  1.00  0.00     0.174 HD
HETATM   28  H   UNL     1      37.373  51.089  41.375  1.00  0.00     0.174 HD
ENDBRANCH   5  26
TORSDOF 4
ENDMDL
MODEL 2
REMARK VINA RESULT:      -7.6      3.837      5.885
REMARK  4 active torsions:
REMARK  status: ('A' for Active; 'I' for Inactive)
REMARK    1  A    between atoms: O_2  and  C_3 
REMARK    2  A    between atoms: C_4  and  C_5 
REMARK    3  A    between atoms: C_9  and  N_10 
REMARK    4  A    between atoms: C_13  and  C_14 
ROOT
HETATM    1  C   UNL     1      28.473  49.225  39.027  1.00  0.00     0.167 C 
HETATM    2  N   UNL     1      27.646  48.331  39.834  1.00  0.00    -0.074 N 
HETATM    3  C   UNL     1      28.121  47.251  40.532  1.00  0.00     0.736 A 
HETATM    4  N   UNL     1      27.125  46.681  41.158  1.00  0.00     0.131 NA
HETATM    5  C   UNL     1      26.048  47.416  40.762  1.00  0.00     0.753 A 
HETATM    6  N   UNL     1      26.310  48.443  39.955  1.00  0.00     0.037 NA
HETATM    7  N   UNL     1      29.423  46.911  40.507  1.00  0.00    -0.214 N 
HETATM    8  C   UNL     1      30.417  47.764  39.869  1.00  0.00     0.135 C 
HETATM    9  C   UNL     1      29.776  48.478  38.658  1.00  0.00     0.063 C 
HETATM   10  H   UNL     1      29.757  46.191  41.141  1.00  0.00     0.178 HD
ENDROOT
BRANCH   1  11
HETATM   11  C   UNL     1      28.701  50.602  39.660  1.00  0.00     0.001 A 
HETATM   12  C   UNL     1      29.311  51.628  38.903  1.00  0.00     0.076 A 
HETATM   13  C   UNL     1      29.541  52.886  39.475  1.00  0.00     0.037 A 
HETATM   14  C   UNL     1      29.179  53.140  40.797  1.00  0.00     0.003 A 
HETATM   15  C   UNL     1      28.572  52.145  41.552  1.00  0.00     0.001 A 
HETATM   16  C   UNL     1      28.330  50.892  40.988  1.00  0.00     0.012 A 
BRANCH  12  17
HETATM   17  O   UNL     1      29.624  51.314  37.603  1.00  0.00    -0.355 OA
HETATM   18  C   UNL     1      30.984  51.461  37.213  1.00  0.00     0.210 C 
ENDBRANCH  12  17
ENDBRANCH   1  11
BRANCH   8  19
HETATM   19  C   UNL     1      31.128  48.692  40.847  1.00  0.00    -0.035 A 
HETATM   20  C   UNL     1      30.935  48.633  42.237  1.00  0.00     0.010 A 
HETATM   21  C   UNL     1      31.583  49.527  43.095  1.00  0.00     0.019 A 
HETATM   22  C   UNL     1      32.444  50.488  42.573  1.00  0.00     0.011 A 
HETATM   23 BR   UNL     1      33.300  51.712  43.730  1.00  0.00    -0.051 Br
HETATM   24  C   UNL     1      32.675  50.552  41.203  1.00  0.00     0.019 A 
HETATM   25  C   UNL     1      32.028  49.655  40.349  1.00  0.00     0.010 A 
ENDBRANCH   8  19
BRANCH   5  26
HETATM   26  N   UNL     1      24.848  47.087  41.227  1.00  0.00    -0.229 N 
HETATM   27  H   UNL     1      24.366  47.785  41.780  1.00  0.00     0.174 HD
HETATM   28  H   UNL     1      24.257  46.537  40.619  1.00  0.00     0.174 HD
ENDBRANCH   5  26
TORSDOF 4
ENDMDL
MODEL 3
REMARK VINA RESULT:      -6.9     12.448     14.403
REMARK  4 active torsions:
REMARK  status: ('A' for Active; 'I' for Inactive)
REMARK    1  A    between atoms: O_2  and  C_3 
REMARK    2  A    between atoms: C_4  and  C_5 
REMARK    3  A    between atoms: C_9  and  N_10 
REMARK    4  A    between atoms: C_13  and  C_14 
ROOT
HETATM    1  C   UNL     1      19.953  50.707  49.197  1.00  0.00     0.167 C 
HETATM    2  N   UNL     1      21.265  50.130  48.909  1.00  0.00    -0.074 N 
HETATM    3  C   UNL     1      21.579  48.804  49.057  1.00  0.00     0.736 A 
HETATM    4  N   UNL     1      22.823  48.622  48.697  1.00  0.00     0.131 NA
HETATM    5  C   UNL     1      23.245  49.882  48.392  1.00  0.00     0.753 A 
HETATM    6  N   UNL     1      22.330  50.843  48.500  1.00  0.00     0.037 NA
HETATM    7  N   UNL     1      20.682  47.911  49.515  1.00  0.00    -0.214 N 
HETATM    8  C   UNL     1      19.287  48.278  49.722  1.00  0.00     0.135 C 
HETATM    9  C   UNL     1      19.207  49.757  50.162  1.00  0.00     0.063 C 
HETATM   10  H   UNL     1      20.910  46.923  49.482  1.00  0.00     0.178 HD
ENDROOT
BRANCH   1  11
HETATM   11  C   UNL     1      19.151  51.084  47.946  1.00  0.00     0.001 A 
HETATM   12  C   UNL     1      18.121  52.047  48.040  1.00  0.00     0.076 A 
HETATM   13  C   UNL     1      17.368  52.388  46.908  1.00  0.00     0.037 A 
HETATM   14  C   UNL     1      17.620  51.777  45.680  1.00  0.00     0.003 A 
HETATM   15  C   UNL     1      18.634  50.834  45.570  1.00  0.00     0.001 A 
HETATM   16  C   UNL     1      19.395  50.496  46.689  1.00  0.00     0.012 A 
BRANCH  12  17
HETATM   17  O   UNL     1      17.941  52.621  49.274  1.00  0.00    -0.355 OA
HETATM   18  C   UNL     1      16.627  52.586  49.818  1.00  0.00     0.210 C 
ENDBRANCH  12  17
ENDBRANCH   1  11
BRANCH   8  19
HETATM   19  C   UNL     1      18.390  47.919  48.543  1.00  0.00    -0.035 A 
HETATM   20  C   UNL     1      18.832  47.155  47.450  1.00  0.00     0.010 A 
HETATM   21  C   UNL     1      17.984  46.878  46.373  1.00  0.00     0.019 A 
HETATM   22  C   UNL     1      16.676  47.354  46.380  1.00  0.00     0.011 A 
HETATM   23 BR   UNL     1      15.539  47.002  44.913  1.00  0.00    -0.051 Br
HETATM   24  C   UNL     1      16.204  48.090  47.461  1.00  0.00     0.019 A 
HETATM   25  C   UNL     1      17.053  48.363  48.537  1.00  0.00     0.010 A 
ENDBRANCH   8  19
BRANCH   5  26
HETATM   26  N   UNL     1      24.499  50.051  47.985  1.00  0.00    -0.229 N 
HETATM   27  H   UNL     1      24.629  50.377  47.036  1.00  0.00     0.174 HD
HETATM   28  H   UNL     1      25.152  50.422  48.661  1.00  0.00     0.174 HD
ENDBRANCH   5  26
TORSDOF 4
ENDMDL
MODEL 4
REMARK VINA RESULT:      -6.8     14.275     16.373
REMARK  4 active torsions:
REMARK  status: ('A' for Active; 'I' for Inactive)
REMARK    1  A    between atoms: O_2  and  C_3 
REMARK    2  A    between atoms: C_4  and  C_5 
REMARK    3  A    between atoms: C_9  and  N_10 
REMARK    4  A    between atoms: C_13  and  C_14 
ROOT
HETATM    1  C   UNL     1      18.751  48.819  47.597  1.00  0.00     0.167 C 
HETATM    2  N   UNL     1      18.751  48.982  49.050  1.00  0.00    -0.074 N 
HETATM    3  C   UNL     1      18.939  50.175  49.697  1.00  0.00     0.736 A 
HETATM    4  N   UNL     1      18.863  49.973  50.987  1.00  0.00     0.131 NA
HETATM    5  C   UNL     1      18.685  48.624  51.078  1.00  0.00     0.753 A 
HETATM    6  N   UNL     1      18.605  47.969  49.922  1.00  0.00     0.037 NA
HETATM    7  N   UNL     1      19.166  51.318  49.023  1.00  0.00    -0.214 N 
HETATM    8  C   UNL     1      19.064  51.373  47.571  1.00  0.00     0.135 C 
HETATM    9  C   UNL     1      19.505  50.017  46.975  1.00  0.00     0.063 C 
HETATM   10  H   UNL     1      19.165  52.197  49.530  1.00  0.00     0.178 HD
ENDROOT
BRANCH   1  11
HETATM   11  C   UNL     1      17.360  48.578  46.999  1.00  0.00     0.001 A 
HETATM   12  C   UNL     1      17.242  47.989  45.719  1.00  0.00     0.076 A 
HETATM   13  C   UNL     1      15.977  47.779  45.153  1.00  0.00     0.037 A 
HETATM   14  C   UNL     1      14.823  48.154  45.840  1.00  0.00     0.003 A 
HETATM   15  C   UNL     1      14.922  48.725  47.101  1.00  0.00     0.001 A 
HETATM   16  C   UNL     1      16.176  48.930  47.677  1.00  0.00     0.012 A 
BRANCH  12  17
HETATM   17  O   UNL     1      18.418  47.630  45.109  1.00  0.00    -0.355 OA
HETATM   18  C   UNL     1      18.603  48.051  43.763  1.00  0.00     0.210 C 
ENDBRANCH  12  17
ENDBRANCH   1  11
BRANCH   8  19
HETATM   19  C   UNL     1      17.707  51.867  47.082  1.00  0.00    -0.035 A 
HETATM   20  C   UNL     1      16.663  52.222  47.953  1.00  0.00     0.010 A 
HETATM   21  C   UNL     1      15.422  52.639  47.461  1.00  0.00     0.019 A 
HETATM   22  C   UNL     1      15.212  52.716  46.087  1.00  0.00     0.011 A 
HETATM   23 BR   UNL     1      13.528  53.254  45.422  1.00  0.00    -0.051 Br
HETATM   24  C   UNL     1      16.237  52.397  45.202  1.00  0.00     0.019 A 
HETATM   25  C   UNL     1      17.477  51.985  45.698  1.00  0.00     0.010 A 
ENDBRANCH   8  19
BRANCH   5  26
HETATM   26  N   UNL     1      18.572  48.078  52.285  1.00  0.00    -0.229 N 
HETATM   27  H   UNL     1      17.835  48.436  52.879  1.00  0.00     0.174 HD
HETATM   28  H   UNL     1      18.736  47.084  52.353  1.00  0.00     0.174 HD
ENDBRANCH   5  26
TORSDOF 4
ENDMDL
MODEL 5
REMARK VINA RESULT:      -6.7      3.565      5.320
REMARK  4 active torsions:
REMARK  status: ('A' for Active; 'I' for Inactive)
REMARK    1  A    between atoms: O_2  and  C_3 
REMARK    2  A    between atoms: C_4  and  C_5 
REMARK    3  A    between atoms: C_9  and  N_10 
REMARK    4  A    between atoms: C_13  and  C_14 
ROOT
HETATM    1  C   UNL     1      31.163  48.282  41.185  1.00  0.00     0.167 C 
HETATM    2  N   UNL     1      30.256  47.368  40.494  1.00  0.00    -0.074 N 
HETATM    3  C   UNL     1      28.892  47.374  40.635  1.00  0.00     0.736 A 
HETATM    4  N   UNL     1      28.384  46.445  39.866  1.00  0.00     0.131 NA
HETATM    5  C   UNL     1      29.487  45.859  39.320  1.00  0.00     0.753 A 
HETATM    6  N   UNL     1      30.659  46.388  39.666  1.00  0.00     0.037 NA
HETATM    7  N   UNL     1      28.270  48.233  41.463  1.00  0.00    -0.214 N 
HETATM    8  C   UNL     1      28.999  49.305  42.128  1.00  0.00     0.135 C 
HETATM    9  C   UNL     1      30.438  48.833  42.435  1.00  0.00     0.063 C 
HETATM   10  H   UNL     1      27.258  48.297  41.437  1.00  0.00     0.178 HD
ENDROOT
BRANCH   1  11
HETATM   11  C   UNL     1      31.762  49.366  40.282  1.00  0.00     0.001 A 
HETATM   12  C   UNL     1      32.839  50.151  40.752  1.00  0.00     0.076 A 
HETATM   13  C   UNL     1      33.384  51.158  39.943  1.00  0.00     0.037 A 
HETATM   14  C   UNL     1      32.867  51.402  38.671  1.00  0.00     0.003 A 
HETATM   15  C   UNL     1      31.814  50.633  38.192  1.00  0.00     0.001 A 
HETATM   16  C   UNL     1      31.271  49.623  38.986  1.00  0.00     0.012 A 
BRANCH  12  17
HETATM   17  O   UNL     1      33.308  49.845  42.005  1.00  0.00    -0.355 OA
HETATM   18  C   UNL     1      33.527  50.931  42.897  1.00  0.00     0.210 C 
ENDBRANCH  12  17
ENDBRANCH   1  11
BRANCH   8  19
HETATM   19  C   UNL     1      28.915  50.637  41.390  1.00  0.00    -0.035 A 
HETATM   20  C   UNL     1      28.104  50.836  40.260  1.00  0.00     0.010 A 
HETATM   21  C   UNL     1      28.082  52.065  39.594  1.00  0.00     0.019 A 
HETATM   22  C   UNL     1      28.867  53.117  40.056  1.00  0.00     0.011 A 
HETATM   23 BR   UNL     1      28.858  54.770  39.141  1.00  0.00    -0.051 Br
HETATM   24  C   UNL     1      29.658  52.957  41.189  1.00  0.00     0.019 A 
HETATM   25  C   UNL     1      29.674  51.728  41.854  1.00  0.00     0.010 A 
ENDBRANCH   8  19
BRANCH   5  26
HETATM   26  N   UNL     1      29.315  44.849  38.473  1.00  0.00    -0.229 N 
HETATM   27  H   UNL     1      29.844  44.006  38.656  1.00  0.00     0.174 HD
HETATM   28  H   UNL     1      28.380  44.702  38.121  1.00  0.00     0.174 HD
ENDBRANCH   5  26
TORSDOF 4
ENDMDL
MODEL 6
REMARK VINA RESULT:      -6.3      1.255      2.099
REMARK  4 active torsions:
REMARK  status: ('A' for Active; 'I' for Inactive)
REMARK    1  A    between atoms: O_2  and  C_3 
REMARK    2  A    between atoms: C_4  and  C_5 
REMARK    3  A    between atoms: C_9  and  N_10 
REMARK    4  A    between atoms: C_13  and  C_14 
ROOT
HETATM    1  C   UNL     1      32.026  51.607  42.236  1.00  0.00     0.167 C 
HETATM    2  N   UNL     1      33.235  51.427  41.435  1.00  0.00    -0.074 N 
HETATM    3  C   UNL     1      33.869  50.226  41.246  1.00  0.00     0.736 A 
HETATM    4  N   UNL     1      34.903  50.412  40.467  1.00  0.00     0.131 NA
HETATM    5  C   UNL     1      34.893  51.759  40.256  1.00  0.00     0.753 A 
HETATM    6  N   UNL     1      33.890  52.428  40.821  1.00  0.00     0.037 NA
HETATM    7  N   UNL     1      33.423  49.092  41.818  1.00  0.00    -0.214 N 
HETATM    8  C   UNL     1      32.155  49.055  42.537  1.00  0.00     0.135 C 
HETATM    9  C   UNL     1      31.914  50.420  43.220  1.00  0.00     0.063 C 
HETATM   10  H   UNL     1      33.837  48.207  41.546  1.00  0.00     0.178 HD
ENDROOT
BRANCH   1  11
HETATM   11  C   UNL     1      30.761  51.852  41.405  1.00  0.00     0.001 A 
HETATM   12  C   UNL     1      30.756  51.533  40.028  1.00  0.00     0.076 A 
HETATM   13  C   UNL     1      29.612  51.768  39.253  1.00  0.00     0.037 A 
HETATM   14  C   UNL     1      28.470  52.324  39.827  1.00  0.00     0.003 A 
HETATM   15  C   UNL     1      28.457  52.636  41.180  1.00  0.00     0.001 A 
HETATM   16  C   UNL     1      29.587  52.397  41.962  1.00  0.00     0.012 A 
BRANCH  12  17
HETATM   17  O   UNL     1      31.908  50.971  39.535  1.00  0.00    -0.355 OA
HETATM   18  C   UNL     1      32.051  50.928  38.120  1.00  0.00     0.210 C 
ENDBRANCH  12  17
ENDBRANCH   1  11
BRANCH   8  19
HETATM   19  C   UNL     1      30.994  48.563  41.681  1.00  0.00    -0.035 A 
HETATM   20  C   UNL     1      31.173  47.938  40.434  1.00  0.00     0.010 A 
HETATM   21  C   UNL     1      30.077  47.532  39.667  1.00  0.00     0.019 A 
HETATM   22  C   UNL     1      28.785  47.736  40.141  1.00  0.00     0.011 A 
HETATM   23 BR   UNL     1      27.304  47.210  39.093  1.00  0.00    -0.051 Br
HETATM   24  C   UNL     1      28.579  48.327  41.384  1.00  0.00     0.019 A 
HETATM   25  C   UNL     1      29.676  48.728  42.150  1.00  0.00     0.010 A 
ENDBRANCH   8  19
BRANCH   5  26
HETATM   26  N   UNL     1      35.840  52.289  39.489  1.00  0.00    -0.229 N 
HETATM   27  H   UNL     1      36.112  51.761  38.670  1.00  0.00     0.174 HD
HETATM   28  H   UNL     1      35.821  53.292  39.368  1.00  0.00     0.174 HD
ENDBRANCH   5  26
TORSDOF 4
ENDMDL
MODEL 7
REMARK VINA RESULT:      -6.2      4.454      6.515
REMARK  4 active torsions:
REMARK  status: ('A' for Active; 'I' for Inactive)
REMARK    1  A    between atoms: O_2  and  C_3 
REMARK    2  A    between atoms: C_4  and  C_5 
REMARK    3  A    between atoms: C_9  and  N_10 
REMARK    4  A    between atoms: C_13  and  C_14 
ROOT
HETATM    1  C   UNL     1      27.418  47.364  39.035  1.00  0.00     0.167 C 
HETATM    2  N   UNL     1      27.443  46.111  39.788  1.00  0.00    -0.074 N 
HETATM    3  C   UNL     1      28.490  45.227  39.790  1.00  0.00     0.736 A 
HETATM    4  N   UNL     1      28.196  44.225  40.577  1.00  0.00     0.131 NA
HETATM    5  C   UNL     1      26.929  44.516  40.988  1.00  0.00     0.753 A 
HETATM    6  N   UNL     1      26.421  45.662  40.539  1.00  0.00     0.037 NA
HETATM    7  N   UNL     1      29.599  45.442  39.058  1.00  0.00    -0.214 N 
HETATM    8  C   UNL     1      29.809  46.701  38.355  1.00  0.00     0.135 C 
HETATM    9  C   UNL     1      28.447  47.259  37.886  1.00  0.00     0.063 C 
HETATM   10  H   UNL     1      30.402  44.836  39.190  1.00  0.00     0.178 HD
ENDROOT
BRANCH   1  11
HETATM   11  C   UNL     1      27.579  48.615  39.905  1.00  0.00     0.001 A 
HETATM   12  C   UNL     1      27.109  49.861  39.431  1.00  0.00     0.076 A 
HETATM   13  C   UNL     1      27.266  51.017  40.209  1.00  0.00     0.037 A 
HETATM   14  C   UNL     1      27.892  50.953  41.453  1.00  0.00     0.003 A 
HETATM   15  C   UNL     1      28.351  49.735  41.936  1.00  0.00     0.001 A 
HETATM   16  C   UNL     1      28.192  48.578  41.173  1.00  0.00     0.012 A 
BRANCH  12  17
HETATM   17  O   UNL     1      26.487  49.846  38.207  1.00  0.00    -0.355 OA
HETATM   18  C   UNL     1      25.067  49.756  38.205  1.00  0.00     0.210 C 
ENDBRANCH  12  17
ENDBRANCH   1  11
BRANCH   8  19
HETATM   19  C   UNL     1      30.662  47.692  39.139  1.00  0.00    -0.035 A 
HETATM   20  C   UNL     1      30.777  49.048  38.788  1.00  0.00     0.010 A 
HETATM   21  C   UNL     1      31.598  49.915  39.515  1.00  0.00     0.019 A 
HETATM   22  C   UNL     1      32.308  49.438  40.613  1.00  0.00     0.011 A 
HETATM   23 BR   UNL     1      33.437  50.603  41.581  1.00  0.00    -0.051 Br
HETATM   24  C   UNL     1      32.192  48.107  40.999  1.00  0.00     0.019 A 
HETATM   25  C   UNL     1      31.368  47.244  40.272  1.00  0.00     0.010 A 
ENDBRANCH   8  19
BRANCH   5  26
HETATM   26  N   UNL     1      26.320  43.673  41.816  1.00  0.00    -0.229 N 
HETATM   27  H   UNL     1      26.095  44.023  42.738  1.00  0.00     0.174 HD
HETATM   28  H   UNL     1      25.633  43.052  41.411  1.00  0.00     0.174 HD
ENDBRANCH   5  26
TORSDOF 4
ENDMDL
MODEL 8
REMARK VINA RESULT:      -6.0     14.032     16.461
REMARK  4 active torsions:
REMARK  status: ('A' for Active; 'I' for Inactive)
REMARK    1  A    between atoms: O_2  and  C_3 
REMARK    2  A    between atoms: C_4  and  C_5 
REMARK    3  A    between atoms: C_9  and  N_10 
REMARK    4  A    between atoms: C_13  and  C_14 
ROOT
HETATM    1  C   UNL     1      18.216  51.986  48.809  1.00  0.00     0.167 C 
HETATM    2  N   UNL     1      16.838  52.358  49.122  1.00  0.00    -0.074 N 
HETATM    3  C   UNL     1      15.873  52.624  48.185  1.00  0.00     0.736 A 
HETATM    4  N   UNL     1      14.753  52.905  48.800  1.00  0.00     0.131 NA
HETATM    5  C   UNL     1      15.101  52.854  50.117  1.00  0.00     0.753 A 
HETATM    6  N   UNL     1      16.365  52.518  50.371  1.00  0.00     0.037 NA
HETATM    7  N   UNL     1      16.138  52.584  46.866  1.00  0.00    -0.214 N 
HETATM    8  C   UNL     1      17.418  52.099  46.366  1.00  0.00     0.135 C 
HETATM    9  C   UNL     1      18.532  52.462  47.373  1.00  0.00     0.063 C 
HETATM   10  H   UNL     1      15.370  52.655  46.207  1.00  0.00     0.178 HD
ENDROOT
BRANCH   1  11
HETATM   11  C   UNL     1      18.534  50.507  49.061  1.00  0.00     0.001 A 
HETATM   12  C   UNL     1      19.878  50.098  49.218  1.00  0.00     0.076 A 
HETATM   13  C   UNL     1      20.184  48.747  49.431  1.00  0.00     0.037 A 
HETATM   14  C   UNL     1      19.170  47.791  49.483  1.00  0.00     0.003 A 
HETATM   15  C   UNL     1      17.845  48.179  49.339  1.00  0.00     0.001 A 
HETATM   16  C   UNL     1      17.529  49.523  49.136  1.00  0.00     0.012 A 
BRANCH  12  17
HETATM   17  O   UNL     1      20.821  51.094  49.173  1.00  0.00    -0.355 OA
HETATM   18  C   UNL     1      22.044  50.797  48.510  1.00  0.00     0.210 C 
ENDBRANCH  12  17
ENDBRANCH   1  11
BRANCH   8  19
HETATM   19  C   UNL     1      17.387  50.630  45.960  1.00  0.00    -0.035 A 
HETATM   20  C   UNL     1      16.198  49.885  45.873  1.00  0.00     0.010 A 
HETATM   21  C   UNL     1      16.219  48.531  45.529  1.00  0.00     0.019 A 
HETATM   22  C   UNL     1      17.431  47.903  45.257  1.00  0.00     0.011 A 
HETATM   23 BR   UNL     1      17.462  46.066  44.817  1.00  0.00    -0.051 Br
HETATM   24  C   UNL     1      18.620  48.623  45.308  1.00  0.00     0.019 A 
HETATM   25  C   UNL     1      18.596  49.978  45.649  1.00  0.00     0.010 A 
ENDBRANCH   8  19
BRANCH   5  26
HETATM   26  N   UNL     1      14.169  53.101  51.030  1.00  0.00    -0.229 N 
HETATM   27  H   UNL     1      14.465  53.599  51.860  1.00  0.00     0.174 HD
HETATM   28  H   UNL     1      13.248  53.341  50.690  1.00  0.00     0.174 HD
ENDBRANCH   5  26
TORSDOF 4
ENDMDL
MODEL 9
REMARK VINA RESULT:      -5.8      3.991      5.536
REMARK  4 active torsions:
REMARK  status: ('A' for Active; 'I' for Inactive)
REMARK    1  A    between atoms: O_2  and  C_3 
REMARK    2  A    between atoms: C_4  and  C_5 
REMARK    3  A    between atoms: C_9  and  N_10 
REMARK    4  A    between atoms: C_13  and  C_14 
ROOT
HETATM    1  C   UNL     1      27.007  49.526  39.506  1.00  0.00     0.167 C 
HETATM    2  N   UNL     1      28.274  50.081  39.035  1.00  0.00    -0.074 N 
HETATM    3  C   UNL     1      29.503  49.754  39.546  1.00  0.00     0.736 A 
HETATM    4  N   UNL     1      30.423  50.413  38.890  1.00  0.00     0.131 NA
HETATM    5  C   UNL     1      29.698  51.176  38.024  1.00  0.00     0.753 A 
HETATM    6  N   UNL     1      28.377  51.009  38.066  1.00  0.00     0.037 NA
HETATM    7  N   UNL     1      29.637  48.887  40.567  1.00  0.00    -0.214 N 
HETATM    8  C   UNL     1      28.498  48.132  41.073  1.00  0.00     0.135 C 
HETATM    9  C   UNL     1      27.217  48.986  40.940  1.00  0.00     0.063 C 
HETATM   10  H   UNL     1      30.565  48.570  40.826  1.00  0.00     0.178 HD
ENDROOT
BRANCH   1  11
HETATM   11  C   UNL     1      26.375  48.513  38.545  1.00  0.00     0.001 A 
HETATM   12  C   UNL     1      24.985  48.264  38.605  1.00  0.00     0.076 A 
HETATM   13  C   UNL     1      24.398  47.328  37.743  1.00  0.00     0.037 A 
HETATM   14  C   UNL     1      25.176  46.626  36.824  1.00  0.00     0.003 A 
HETATM   15  C   UNL     1      26.542  46.865  36.748  1.00  0.00     0.001 A 
HETATM   16  C   UNL     1      27.134  47.802  37.594  1.00  0.00     0.012 A 
BRANCH  12  17
HETATM   17  O   UNL     1      24.279  49.004  39.520  1.00  0.00    -0.355 OA
HETATM   18  C   UNL     1      23.285  49.885  39.011  1.00  0.00     0.210 C 
ENDBRANCH  12  17
ENDBRANCH   1  11
BRANCH   8  19
HETATM   19  C   UNL     1      28.390  46.734  40.475  1.00  0.00    -0.035 A 
HETATM   20  C   UNL     1      29.368  46.188  39.626  1.00  0.00     0.010 A 
HETATM   21  C   UNL     1      29.213  44.914  39.072  1.00  0.00     0.019 A 
HETATM   22  C   UNL     1      28.079  44.163  39.369  1.00  0.00     0.011 A 
HETATM   23 BR   UNL     1      27.857  42.451  38.600  1.00  0.00    -0.051 Br
HETATM   24  C   UNL     1      27.109  44.668  40.228  1.00  0.00     0.019 A 
HETATM   25  C   UNL     1      27.269  45.940  40.782  1.00  0.00     0.010 A 
ENDBRANCH   8  19
BRANCH   5  26
HETATM   26  N   UNL     1      30.347  51.986  37.194  1.00  0.00    -0.229 N 
HETATM   27  H   UNL     1      30.004  52.935  37.123  1.00  0.00     0.174 HD
HETATM   28  H   UNL     1      31.352  51.886  37.151  1.00  0.00     0.174 HD
ENDBRANCH   5  26
TORSDOF 4
ENDMDL
MODEL 10
REMARK VINA RESULT:      -5.7     14.073     15.929
REMARK  4 active torsions:
REMARK  status: ('A' for Active; 'I' for Inactive)
REMARK    1  A    between atoms: O_2  and  C_3 
REMARK    2  A    between atoms: C_4  and  C_5 
REMARK    3  A    between atoms: C_9  and  N_10 
REMARK    4  A    between atoms: C_13  and  C_14 
ROOT
HETATM    1  C   UNL     1      17.203  50.658  48.075  1.00  0.00     0.167 C 
HETATM    2  N   UNL     1      18.213  49.714  48.548  1.00  0.00    -0.074 N 
HETATM    3  C   UNL     1      17.975  48.391  48.816  1.00  0.00     0.736 A 
HETATM    4  N   UNL     1      19.092  47.830  49.201  1.00  0.00     0.131 NA
HETATM    5  C   UNL     1      19.974  48.869  49.209  1.00  0.00     0.753 A 
HETATM    6  N   UNL     1      19.490  50.045  48.812  1.00  0.00     0.037 NA
HETATM    7  N   UNL     1      16.749  47.852  48.681  1.00  0.00    -0.214 N 
HETATM    8  C   UNL     1      15.652  48.605  48.089  1.00  0.00     0.135 C 
HETATM    9  C   UNL     1      15.808  50.101  48.444  1.00  0.00     0.063 C 
HETATM   10  H   UNL     1      16.643  46.845  48.758  1.00  0.00     0.178 HD
ENDROOT
BRANCH   1  11
HETATM   11  C   UNL     1      17.352  51.040  46.598  1.00  0.00     0.001 A 
HETATM   12  C   UNL     1      16.534  52.055  46.052  1.00  0.00     0.076 A 
HETATM   13  C   UNL     1      16.647  52.401  44.698  1.00  0.00     0.037 A 
HETATM   14  C   UNL     1      17.561  51.746  43.874  1.00  0.00     0.003 A 
HETATM   15  C   UNL     1      18.377  50.753  44.397  1.00  0.00     0.001 A 
HETATM   16  C   UNL     1      18.278  50.407  45.745  1.00  0.00     0.012 A 
BRANCH  12  17
HETATM   17  O   UNL     1      15.670  52.669  46.925  1.00  0.00    -0.355 OA
HETATM   18  C   UNL     1      14.554  53.347  46.360  1.00  0.00     0.210 C 
ENDBRANCH  12  17
ENDBRANCH   1  11
BRANCH   8  19
HETATM   19  C   UNL     1      15.461  48.324  46.603  1.00  0.00    -0.035 A 
HETATM   20  C   UNL     1      16.259  47.414  45.889  1.00  0.00     0.010 A 
HETATM   21  C   UNL     1      16.071  47.212  44.518  1.00  0.00     0.019 A 
HETATM   22  C   UNL     1      15.075  47.911  43.844  1.00  0.00     0.011 A 
HETATM   23 BR   UNL     1      14.838  47.657  41.987  1.00  0.00    -0.051 Br
HETATM   24  C   UNL     1      14.253  48.798  44.532  1.00  0.00     0.019 A 
HETATM   25  C   UNL     1      14.441  48.995  45.903  1.00  0.00     0.010 A 
ENDBRANCH   8  19
BRANCH   5  26
HETATM   26  N   UNL     1      21.231  48.633  49.567  1.00  0.00    -0.229 N 
HETATM   27  H   UNL     1      21.910  48.550  48.821  1.00  0.00     0.174 HD
HETATM   28  H   UNL     1      21.563  49.098  50.401  1.00  0.00     0.174 HD
ENDBRANCH   5  26
TORSDOF 4
ENDMDL
