MODEL 1
REMARK VINA RESULT:      -8.2      0.000      0.000
REMARK  5 active torsions:
REMARK  status: ('A' for Active; 'I' for Inactive)
REMARK    1  A    between atoms: C_8  and  N_9 
REMARK       I    between atoms: N_9  and  C_10 
REMARK       I    between atoms: C_10  and  N_11 
REMARK    2  A    between atoms: N_11  and  C_12 
REMARK    3  A    between atoms: C_13  and  O_14 
REMARK    4  A    between atoms: O_14  and  C_15 
REMARK    5  A    between atoms: C_15  and  C_16 
ROOT
HETATM    1  N   UNL     1      27.653  43.717  52.309  1.00  0.00    -0.305 N 
HETATM    2  C   UNL     1      27.981  43.595  53.646  1.00  0.00     0.325 C 
HETATM    3  N   UNL     1      29.246  44.110  53.876  1.00  0.00    -0.306 N 
HETATM    4  O   UNL     1      27.265  43.108  54.510  1.00  0.00    -0.247 OA
HETATM    5  H   UNL     1      28.140  44.434  51.795  1.00  0.00     0.171 HD
HETATM    6  H   UNL     1      29.841  44.228  53.066  1.00  0.00     0.171 HD
ENDROOT
BRANCH   3   7
HETATM    7  C   UNL     1      29.894  44.285  55.118  1.00  0.00     0.072 A 
HETATM    8  C   UNL     1      29.735  45.531  55.757  1.00  0.00     0.096 A 
HETATM    9  C   UNL     1      30.301  45.777  57.011  1.00  0.00     0.042 A 
HETATM   10  C   UNL     1      31.062  44.784  57.622  1.00  0.00     0.045 A 
HETATM   11  C   UNL     1      31.236  43.560  56.983  1.00  0.00     0.118 A 
HETATM   12  F   UNL     1      31.963  42.609  57.583  1.00  0.00    -0.206 F 
HETATM   13  C   UNL     1      30.656  43.300  55.743  1.00  0.00     0.074 A 
BRANCH   8  14
HETATM   14  O   UNL     1      28.964  46.480  55.130  1.00  0.00    -0.340 OA
BRANCH  14  15
HETATM   15  C   UNL     1      27.685  46.640  55.773  1.00  0.00     0.293 C 
BRANCH  15  16
HETATM   16  C   UNL     1      26.613  46.904  54.728  1.00  0.00     0.408 C 
HETATM   17  F   UNL     1      25.681  45.925  54.725  1.00  0.00    -0.169 F 
HETATM   18  F   UNL     1      25.979  48.077  54.951  1.00  0.00    -0.169 F 
HETATM   19  F   UNL     1      27.153  46.960  53.490  1.00  0.00    -0.169 F 
ENDBRANCH  15  16
ENDBRANCH  14  15
ENDBRANCH   8  14
ENDBRANCH   3   7
BRANCH   1  20
HETATM   20  C   UNL     1      26.544  43.173  51.681  1.00  0.00     0.086 A 
HETATM   21  C   UNL     1      26.537  41.876  51.203  1.00  0.00     0.052 A 
HETATM   22  C   UNL     1      27.563  40.807  51.185  1.00  0.00     0.072 C 
HETATM   23  N   UNL     1      25.297  41.686  50.661  1.00  0.00    -0.280 N 
HETATM   24  H   UNL     1      24.932  40.857  50.206  1.00  0.00     0.189 HD
HETATM   25  N   UNL     1      24.490  42.743  50.775  1.00  0.00    -0.177 NA
HETATM   26  C   UNL     1      25.235  43.666  51.404  1.00  0.00     0.079 A 
HETATM   27  C   UNL     1      24.605  44.967  51.740  1.00  0.00     0.075 C 
ENDBRANCH   1  20
TORSDOF 5
ENDMDL
MODEL 2
REMARK VINA RESULT:      -8.1      2.272      3.399
REMARK  5 active torsions:
REMARK  status: ('A' for Active; 'I' for Inactive)
REMARK    1  A    between atoms: C_8  and  N_9 
REMARK       I    between atoms: N_9  and  C_10 
REMARK       I    between atoms: C_10  and  N_11 
REMARK    2  A    between atoms: N_11  and  C_12 
REMARK    3  A    between atoms: C_13  and  O_14 
REMARK    4  A    between atoms: O_14  and  C_15 
REMARK    5  A    between atoms: C_15  and  C_16 
ROOT
HETATM    1  N   UNL     1      28.767  41.174  51.206  1.00  0.00    -0.305 N 
HETATM    2  C   UNL     1      28.788  41.529  52.542  1.00  0.00     0.325 C 
HETATM    3  N   UNL     1      29.671  42.577  52.743  1.00  0.00    -0.306 N 
HETATM    4  O   UNL     1      28.125  41.003  53.425  1.00  0.00    -0.247 OA
HETATM    5  H   UNL     1      29.054  41.885  50.553  1.00  0.00     0.171 HD
HETATM    6  H   UNL     1      30.352  42.743  52.013  1.00  0.00     0.171 HD
ENDROOT
BRANCH   3   7
HETATM    7  C   UNL     1      29.889  43.305  53.933  1.00  0.00     0.072 A 
HETATM    8  C   UNL     1      29.022  44.385  54.195  1.00  0.00     0.096 A 
HETATM    9  C   UNL     1      29.134  45.132  55.370  1.00  0.00     0.042 A 
HETATM   10  C   UNL     1      30.140  44.823  56.282  1.00  0.00     0.045 A 
HETATM   11  C   UNL     1      31.009  43.770  56.015  1.00  0.00     0.118 A 
HETATM   12  F   UNL     1      31.968  43.475  56.902  1.00  0.00    -0.206 F 
HETATM   13  C   UNL     1      30.890  43.006  54.855  1.00  0.00     0.074 A 
BRANCH   8  14
HETATM   14  O   UNL     1      28.032  44.649  53.279  1.00  0.00    -0.340 OA
BRANCH  14  15
HETATM   15  C   UNL     1      26.867  45.223  53.904  1.00  0.00     0.293 C 
BRANCH  15  16
HETATM   16  C   UNL     1      25.808  44.151  54.103  1.00  0.00     0.408 C 
HETATM   17  F   UNL     1      26.229  43.203  54.971  1.00  0.00    -0.169 F 
HETATM   18  F   UNL     1      24.658  44.671  54.584  1.00  0.00    -0.169 F 
HETATM   19  F   UNL     1      25.521  43.537  52.933  1.00  0.00    -0.169 F 
ENDBRANCH  15  16
ENDBRANCH  14  15
ENDBRANCH   8  14
ENDBRANCH   3   7
BRANCH   1  20
HETATM   20  C   UNL     1      28.130  40.073  50.657  1.00  0.00     0.086 A 
HETATM   21  C   UNL     1      26.785  40.092  50.332  1.00  0.00     0.052 A 
HETATM   22  C   UNL     1      25.736  41.130  50.465  1.00  0.00     0.072 C 
HETATM   23  N   UNL     1      26.509  38.858  49.818  1.00  0.00    -0.280 N 
HETATM   24  H   UNL     1      25.621  38.502  49.483  1.00  0.00     0.189 HD
HETATM   25  N   UNL     1      27.570  38.049  49.755  1.00  0.00    -0.177 NA
HETATM   26  C   UNL     1      28.576  38.779  50.260  1.00  0.00     0.079 A 
HETATM   27  C   UNL     1      29.934  38.181  50.283  1.00  0.00     0.075 C 
ENDBRANCH   1  20
TORSDOF 5
ENDMDL
MODEL 3
REMARK VINA RESULT:      -8.0      0.415      1.686
REMARK  5 active torsions:
REMARK  status: ('A' for Active; 'I' for Inactive)
REMARK    1  A    between atoms: C_8  and  N_9 
REMARK       I    between atoms: N_9  and  C_10 
REMARK       I    between atoms: C_10  and  N_11 
REMARK    2  A    between atoms: N_11  and  C_12 
REMARK    3  A    between atoms: C_13  and  O_14 
REMARK    4  A    between atoms: O_14  and  C_15 
REMARK    5  A    between atoms: C_15  and  C_16 
ROOT
HETATM    1  N   UNL     1      27.523  44.048  52.304  1.00  0.00    -0.305 N 
HETATM    2  C   UNL     1      27.879  43.816  53.620  1.00  0.00     0.325 C 
HETATM    3  N   UNL     1      29.134  44.342  53.875  1.00  0.00    -0.306 N 
HETATM    4  O   UNL     1      27.190  43.235  54.447  1.00  0.00    -0.247 OA
HETATM    5  H   UNL     1      27.983  44.822  51.850  1.00  0.00     0.171 HD
HETATM    6  H   UNL     1      29.711  44.549  53.070  1.00  0.00     0.171 HD
ENDROOT
BRANCH   3   7
HETATM    7  C   UNL     1      29.799  44.423  55.118  1.00  0.00     0.072 A 
HETATM    8  C   UNL     1      29.697  45.637  55.826  1.00  0.00     0.096 A 
HETATM    9  C   UNL     1      30.283  45.791  57.084  1.00  0.00     0.042 A 
HETATM   10  C   UNL     1      31.009  44.737  57.633  1.00  0.00     0.045 A 
HETATM   11  C   UNL     1      31.126  43.544  56.926  1.00  0.00     0.118 A 
HETATM   12  F   UNL     1      31.819  42.533  57.466  1.00  0.00    -0.206 F 
HETATM   13  C   UNL     1      30.526  43.375  55.680  1.00  0.00     0.074 A 
BRANCH   8  14
HETATM   14  O   UNL     1      28.960  46.650  55.259  1.00  0.00    -0.340 OA
BRANCH  14  15
HETATM   15  C   UNL     1      27.668  46.783  55.881  1.00  0.00     0.293 C 
BRANCH  15  16
HETATM   16  C   UNL     1      26.626  47.143  54.834  1.00  0.00     0.408 C 
HETATM   17  F   UNL     1      25.695  46.170  54.715  1.00  0.00    -0.169 F 
HETATM   18  F   UNL     1      25.987  48.293  55.143  1.00  0.00    -0.169 F 
HETATM   19  F   UNL     1      27.202  47.309  53.622  1.00  0.00    -0.169 F 
ENDBRANCH  15  16
ENDBRANCH  14  15
ENDBRANCH   8  14
ENDBRANCH   3   7
BRANCH   1  20
HETATM   20  C   UNL     1      26.418  43.534  51.647  1.00  0.00     0.086 A 
HETATM   21  C   UNL     1      25.331  44.321  51.316  1.00  0.00     0.052 A 
HETATM   22  C   UNL     1      25.024  45.754  51.540  1.00  0.00     0.072 C 
HETATM   23  N   UNL     1      24.449  43.492  50.683  1.00  0.00    -0.280 N 
HETATM   24  H   UNL     1      23.534  43.717  50.309  1.00  0.00     0.189 HD
HETATM   25  N   UNL     1      24.888  42.238  50.550  1.00  0.00    -0.177 NA
HETATM   26  C   UNL     1      26.098  42.244  51.131  1.00  0.00     0.079 A 
HETATM   27  C   UNL     1      26.894  40.992  51.105  1.00  0.00     0.075 C 
ENDBRANCH   1  20
TORSDOF 5
ENDMDL
MODEL 4
REMARK VINA RESULT:      -7.6      7.786     11.324
REMARK  5 active torsions:
REMARK  status: ('A' for Active; 'I' for Inactive)
REMARK    1  A    between atoms: C_8  and  N_9 
REMARK       I    between atoms: N_9  and  C_10 
REMARK       I    between atoms: C_10  and  N_11 
REMARK    2  A    between atoms: N_11  and  C_12 
REMARK    3  A    between atoms: C_13  and  O_14 
REMARK    4  A    between atoms: O_14  and  C_15 
REMARK    5  A    between atoms: C_15  and  C_16 
ROOT
HETATM    1  N   UNL     1      22.844  48.483  49.656  1.00  0.00    -0.305 N 
HETATM    2  C   UNL     1      21.833  48.081  48.802  1.00  0.00     0.325 C 
HETATM    3  N   UNL     1      20.676  47.825  49.519  1.00  0.00    -0.306 N 
HETATM    4  O   UNL     1      21.933  47.969  47.588  1.00  0.00    -0.247 OA
HETATM    5  H   UNL     1      22.551  48.878  50.535  1.00  0.00     0.171 HD
HETATM    6  H   UNL     1      20.782  47.686  50.516  1.00  0.00     0.171 HD
ENDROOT
BRANCH   3   7
HETATM    7  C   UNL     1      19.396  47.514  49.010  1.00  0.00     0.072 A 
HETATM    8  C   UNL     1      18.389  48.487  49.162  1.00  0.00     0.096 A 
HETATM    9  C   UNL     1      17.106  48.285  48.648  1.00  0.00     0.042 A 
HETATM   10  C   UNL     1      16.810  47.087  48.004  1.00  0.00     0.045 A 
HETATM   11  C   UNL     1      17.799  46.117  47.870  1.00  0.00     0.118 A 
HETATM   12  F   UNL     1      17.507  44.971  47.242  1.00  0.00    -0.206 F 
HETATM   13  C   UNL     1      19.087  46.320  48.361  1.00  0.00     0.074 A 
BRANCH   8  14
HETATM   14  O   UNL     1      18.722  49.664  49.790  1.00  0.00    -0.340 OA
BRANCH  14  15
HETATM   15  C   UNL     1      18.539  50.801  48.925  1.00  0.00     0.293 C 
BRANCH  15  16
HETATM   16  C   UNL     1      19.888  51.406  48.575  1.00  0.00     0.408 C 
HETATM   17  F   UNL     1      20.769  51.258  49.590  1.00  0.00    -0.169 F 
HETATM   18  F   UNL     1      20.423  50.828  47.476  1.00  0.00    -0.169 F 
HETATM   19  F   UNL     1      19.771  52.730  48.324  1.00  0.00    -0.169 F 
ENDBRANCH  15  16
ENDBRANCH  14  15
ENDBRANCH   8  14
ENDBRANCH   3   7
BRANCH   1  20
HETATM   20  C   UNL     1      24.175  48.669  49.323  1.00  0.00     0.086 A 
HETATM   21  C   UNL     1      24.596  49.744  48.561  1.00  0.00     0.052 A 
HETATM   22  C   UNL     1      23.870  50.868  47.925  1.00  0.00     0.072 C 
HETATM   23  N   UNL     1      25.950  49.608  48.442  1.00  0.00    -0.280 N 
HETATM   24  H   UNL     1      26.599  50.205  47.941  1.00  0.00     0.189 HD
HETATM   25  N   UNL     1      26.446  48.550  49.089  1.00  0.00    -0.177 NA
HETATM   26  C   UNL     1      25.372  47.964  49.641  1.00  0.00     0.079 A 
HETATM   27  C   UNL     1      25.588  46.766  50.491  1.00  0.00     0.075 C 
ENDBRANCH   1  20
TORSDOF 5
ENDMDL
MODEL 5
REMARK VINA RESULT:      -7.5      2.167      3.521
REMARK  5 active torsions:
REMARK  status: ('A' for Active; 'I' for Inactive)
REMARK    1  A    between atoms: C_8  and  N_9 
REMARK       I    between atoms: N_9  and  C_10 
REMARK       I    between atoms: C_10  and  N_11 
REMARK    2  A    between atoms: N_11  and  C_12 
REMARK    3  A    between atoms: C_13  and  O_14 
REMARK    4  A    between atoms: O_14  and  C_15 
REMARK    5  A    between atoms: C_15  and  C_16 
ROOT
HETATM    1  N   UNL     1      26.655  40.712  51.631  1.00  0.00    -0.305 N 
HETATM    2  C   UNL     1      27.382  41.843  51.954  1.00  0.00     0.325 C 
HETATM    3  N   UNL     1      27.376  42.039  53.325  1.00  0.00    -0.306 N 
HETATM    4  O   UNL     1      27.953  42.570  51.154  1.00  0.00    -0.247 OA
HETATM    5  H   UNL     1      26.555  40.025  52.363  1.00  0.00     0.171 HD
HETATM    6  H   UNL     1      26.661  41.551  53.850  1.00  0.00     0.171 HD
ENDROOT
BRANCH   3   7
HETATM    7  C   UNL     1      28.097  43.004  54.062  1.00  0.00     0.072 A 
HETATM    8  C   UNL     1      27.403  44.166  54.455  1.00  0.00     0.096 A 
HETATM    9  C   UNL     1      28.024  45.152  55.226  1.00  0.00     0.042 A 
HETATM   10  C   UNL     1      29.360  44.997  55.584  1.00  0.00     0.045 A 
HETATM   11  C   UNL     1      30.052  43.859  55.180  1.00  0.00     0.118 A 
HETATM   12  F   UNL     1      31.335  43.716  55.537  1.00  0.00    -0.206 F 
HETATM   13  C   UNL     1      29.434  42.861  54.429  1.00  0.00     0.074 A 
BRANCH   8  14
HETATM   14  O   UNL     1      26.081  44.276  54.095  1.00  0.00    -0.340 OA
BRANCH  14  15
HETATM   15  C   UNL     1      25.728  45.634  53.768  1.00  0.00     0.293 C 
BRANCH  15  16
HETATM   16  C   UNL     1      25.386  45.736  52.291  1.00  0.00     0.408 C 
HETATM   17  F   UNL     1      25.075  47.007  51.948  1.00  0.00    -0.169 F 
HETATM   18  F   UNL     1      26.417  45.338  51.513  1.00  0.00    -0.169 F 
HETATM   19  F   UNL     1      24.322  44.958  51.990  1.00  0.00    -0.169 F 
ENDBRANCH  15  16
ENDBRANCH  14  15
ENDBRANCH   8  14
ENDBRANCH   3   7
BRANCH   1  20
HETATM   20  C   UNL     1      26.309  40.292  50.358  1.00  0.00     0.086 A 
HETATM   21  C   UNL     1      25.346  40.944  49.609  1.00  0.00     0.052 A 
HETATM   22  C   UNL     1      24.481  42.115  49.887  1.00  0.00     0.072 C 
HETATM   23  N   UNL     1      25.275  40.267  48.425  1.00  0.00    -0.280 N 
HETATM   24  H   UNL     1      24.669  40.452  47.632  1.00  0.00     0.189 HD
HETATM   25  N   UNL     1      26.133  39.249  48.332  1.00  0.00    -0.177 NA
HETATM   26  C   UNL     1      26.781  39.250  49.507  1.00  0.00     0.079 A 
HETATM   27  C   UNL     1      27.864  38.256  49.712  1.00  0.00     0.075 C 
ENDBRANCH   1  20
TORSDOF 5
ENDMDL
MODEL 6
REMARK VINA RESULT:      -7.3      2.555      6.193
REMARK  5 active torsions:
REMARK  status: ('A' for Active; 'I' for Inactive)
REMARK    1  A    between atoms: C_8  and  N_9 
REMARK       I    between atoms: N_9  and  C_10 
REMARK       I    between atoms: C_10  and  N_11 
REMARK    2  A    between atoms: N_11  and  C_12 
REMARK    3  A    between atoms: C_13  and  O_14 
REMARK    4  A    between atoms: O_14  and  C_15 
REMARK    5  A    between atoms: C_15  and  C_16 
ROOT
HETATM    1  N   UNL     1      29.342  44.254  54.152  1.00  0.00    -0.305 N 
HETATM    2  C   UNL     1      28.173  43.785  53.583  1.00  0.00     0.325 C 
HETATM    3  N   UNL     1      28.400  43.400  52.272  1.00  0.00    -0.306 N 
HETATM    4  O   UNL     1      27.090  43.712  54.147  1.00  0.00    -0.247 OA
HETATM    5  H   UNL     1      30.200  43.931  53.733  1.00  0.00     0.171 HD
HETATM    6  H   UNL     1      29.242  43.754  51.836  1.00  0.00     0.171 HD
ENDROOT
BRANCH   3   7
HETATM    7  C   UNL     1      27.501  42.758  51.393  1.00  0.00     0.072 A 
HETATM    8  C   UNL     1      26.926  43.542  50.374  1.00  0.00     0.096 A 
HETATM    9  C   UNL     1      26.062  42.981  49.431  1.00  0.00     0.042 A 
HETATM   10  C   UNL     1      25.740  41.629  49.520  1.00  0.00     0.045 A 
HETATM   11  C   UNL     1      26.293  40.858  50.537  1.00  0.00     0.118 A 
HETATM   12  F   UNL     1      25.983  39.556  50.610  1.00  0.00    -0.206 F 
HETATM   13  C   UNL     1      27.172  41.406  51.469  1.00  0.00     0.074 A 
BRANCH   8  14
HETATM   14  O   UNL     1      27.279  44.869  50.309  1.00  0.00    -0.340 OA
BRANCH  14  15
HETATM   15  C   UNL     1      26.133  45.718  50.107  1.00  0.00     0.293 C 
BRANCH  15  16
HETATM   16  C   UNL     1      25.555  46.133  51.450  1.00  0.00     0.408 C 
HETATM   17  F   UNL     1      24.867  47.292  51.349  1.00  0.00    -0.169 F 
HETATM   18  F   UNL     1      24.717  45.195  51.943  1.00  0.00    -0.169 F 
HETATM   19  F   UNL     1      26.540  46.319  52.359  1.00  0.00    -0.169 F 
ENDBRANCH  15  16
ENDBRANCH  14  15
ENDBRANCH   8  14
ENDBRANCH   3   7
BRANCH   1  20
HETATM   20  C   UNL     1      29.467  44.871  55.386  1.00  0.00     0.086 A 
HETATM   21  C   UNL     1      30.368  44.428  56.337  1.00  0.00     0.052 A 
HETATM   22  C   UNL     1      31.334  43.304  56.357  1.00  0.00     0.072 C 
HETATM   23  N   UNL     1      30.221  45.264  57.407  1.00  0.00    -0.280 N 
HETATM   24  H   UNL     1      30.708  45.238  58.295  1.00  0.00     0.189 HD
HETATM   25  N   UNL     1      29.320  46.231  57.217  1.00  0.00    -0.177 NA
HETATM   26  C   UNL     1      28.850  46.010  55.979  1.00  0.00     0.079 A 
HETATM   27  C   UNL     1      27.851  46.960  55.428  1.00  0.00     0.075 C 
ENDBRANCH   1  20
TORSDOF 5
ENDMDL
MODEL 7
REMARK VINA RESULT:      -7.2     13.491     15.122
REMARK  5 active torsions:
REMARK  status: ('A' for Active; 'I' for Inactive)
REMARK    1  A    between atoms: C_8  and  N_9 
REMARK       I    between atoms: N_9  and  C_10 
REMARK       I    between atoms: C_10  and  N_11 
REMARK    2  A    between atoms: N_11  and  C_12 
REMARK    3  A    between atoms: C_13  and  O_14 
REMARK    4  A    between atoms: O_14  and  C_15 
REMARK    5  A    between atoms: C_15  and  C_16 
ROOT
HETATM    1  N   UNL     1      32.524  50.579  41.645  1.00  0.00    -0.305 N 
HETATM    2  C   UNL     1      31.643  49.551  41.926  1.00  0.00     0.325 C 
HETATM    3  N   UNL     1      30.721  49.419  40.902  1.00  0.00    -0.306 N 
HETATM    4  O   UNL     1      31.668  48.852  42.930  1.00  0.00    -0.247 OA
HETATM    5  H   UNL     1      32.630  50.819  40.672  1.00  0.00     0.171 HD
HETATM    6  H   UNL     1      30.626  50.207  40.273  1.00  0.00     0.171 HD
ENDROOT
BRANCH   3   7
HETATM    7  C   UNL     1      29.738  48.416  40.750  1.00  0.00     0.072 A 
HETATM    8  C   UNL     1      28.456  48.688  41.266  1.00  0.00     0.096 A 
HETATM    9  C   UNL     1      27.410  47.773  41.120  1.00  0.00     0.042 A 
HETATM   10  C   UNL     1      27.649  46.560  40.481  1.00  0.00     0.045 A 
HETATM   11  C   UNL     1      28.920  46.282  39.987  1.00  0.00     0.118 A 
HETATM   12  F   UNL     1      29.138  45.116  39.366  1.00  0.00    -0.206 F 
HETATM   13  C   UNL     1      29.963  47.199  40.110  1.00  0.00     0.074 A 
BRANCH   8  14
HETATM   14  O   UNL     1      28.254  49.902  41.877  1.00  0.00    -0.340 OA
BRANCH  14  15
HETATM   15  C   UNL     1      27.545  50.819  41.022  1.00  0.00     0.293 C 
BRANCH  15  16
HETATM   16  C   UNL     1      28.080  52.228  41.220  1.00  0.00     0.408 C 
HETATM   17  F   UNL     1      28.527  52.750  40.055  1.00  0.00    -0.169 F 
HETATM   18  F   UNL     1      27.131  53.057  41.707  1.00  0.00    -0.169 F 
HETATM   19  F   UNL     1      29.112  52.231  42.093  1.00  0.00    -0.169 F 
ENDBRANCH  15  16
ENDBRANCH  14  15
ENDBRANCH   8  14
ENDBRANCH   3   7
BRANCH   1  20
HETATM   20  C   UNL     1      33.476  51.105  42.502  1.00  0.00     0.086 A 
HETATM   21  C   UNL     1      34.823  51.110  42.187  1.00  0.00     0.052 A 
HETATM   22  C   UNL     1      35.581  50.609  41.016  1.00  0.00     0.072 C 
HETATM   23  N   UNL     1      35.451  51.702  43.245  1.00  0.00    -0.280 N 
HETATM   24  H   UNL     1      36.443  51.869  43.373  1.00  0.00     0.189 HD
HETATM   25  N   UNL     1      34.619  52.108  44.208  1.00  0.00    -0.177 NA
HETATM   26  C   UNL     1      33.402  51.756  43.768  1.00  0.00     0.079 A 
HETATM   27  C   UNL     1      32.224  52.120  44.596  1.00  0.00     0.075 C 
ENDBRANCH   1  20
TORSDOF 5
ENDMDL
MODEL 8
REMARK VINA RESULT:      -7.2     13.680     15.622
REMARK  5 active torsions:
REMARK  status: ('A' for Active; 'I' for Inactive)
REMARK    1  A    between atoms: C_8  and  N_9 
REMARK       I    between atoms: N_9  and  C_10 
REMARK       I    between atoms: C_10  and  N_11 
REMARK    2  A    between atoms: N_11  and  C_12 
REMARK    3  A    between atoms: C_13  and  O_14 
REMARK    4  A    between atoms: O_14  and  C_15 
REMARK    5  A    between atoms: C_15  and  C_16 
ROOT
HETATM    1  N   UNL     1      32.589  49.856  42.550  1.00  0.00    -0.305 N 
HETATM    2  C   UNL     1      31.830  49.758  41.399  1.00  0.00     0.325 C 
HETATM    3  N   UNL     1      31.050  48.615  41.437  1.00  0.00    -0.306 N 
HETATM    4  O   UNL     1      31.836  50.561  40.476  1.00  0.00    -0.247 OA
HETATM    5  H   UNL     1      32.238  49.363  43.356  1.00  0.00     0.171 HD
HETATM    6  H   UNL     1      31.323  47.901  42.102  1.00  0.00     0.171 HD
ENDROOT
BRANCH   3   7
HETATM    7  C   UNL     1      30.053  48.219  40.518  1.00  0.00     0.072 A 
HETATM    8  C   UNL     1      28.762  48.752  40.699  1.00  0.00     0.096 A 
HETATM    9  C   UNL     1      27.726  48.453  39.811  1.00  0.00     0.042 A 
HETATM   10  C   UNL     1      27.968  47.586  38.748  1.00  0.00     0.045 A 
HETATM   11  C   UNL     1      29.238  47.043  38.580  1.00  0.00     0.118 A 
HETATM   12  F   UNL     1      29.462  46.217  37.550  1.00  0.00    -0.206 F 
HETATM   13  C   UNL     1      30.282  47.354  39.449  1.00  0.00     0.074 A 
BRANCH   8  14
HETATM   14  O   UNL     1      28.566  49.616  41.750  1.00  0.00    -0.340 OA
BRANCH  14  15
HETATM   15  C   UNL     1      27.698  50.707  41.389  1.00  0.00     0.293 C 
BRANCH  15  16
HETATM   16  C   UNL     1      28.492  52.002  41.335  1.00  0.00     0.408 C 
HETATM   17  F   UNL     1      27.706  53.070  41.596  1.00  0.00    -0.169 F 
HETATM   18  F   UNL     1      29.503  52.004  42.231  1.00  0.00    -0.169 F 
HETATM   19  F   UNL     1      29.033  52.182  40.108  1.00  0.00    -0.169 F 
ENDBRANCH  15  16
ENDBRANCH  14  15
ENDBRANCH   8  14
ENDBRANCH   3   7
BRANCH   1  20
HETATM   20  C   UNL     1      33.598  50.773  42.795  1.00  0.00     0.086 A 
HETATM   21  C   UNL     1      33.519  51.689  43.828  1.00  0.00     0.052 A 
HETATM   22  C   UNL     1      32.477  51.967  44.845  1.00  0.00     0.072 C 
HETATM   23  N   UNL     1      34.675  52.414  43.772  1.00  0.00    -0.280 N 
HETATM   24  H   UNL     1      34.963  53.183  44.366  1.00  0.00     0.189 HD
HETATM   25  N   UNL     1      35.511  52.024  42.807  1.00  0.00    -0.177 NA
HETATM   26  C   UNL     1      34.870  51.013  42.199  1.00  0.00     0.079 A 
HETATM   27  C   UNL     1      35.564  50.306  41.093  1.00  0.00     0.075 C 
ENDBRANCH   1  20
TORSDOF 5
ENDMDL
MODEL 9
REMARK VINA RESULT:      -7.2      3.262      5.919
REMARK  5 active torsions:
REMARK  status: ('A' for Active; 'I' for Inactive)
REMARK    1  A    between atoms: C_8  and  N_9 
REMARK       I    between atoms: N_9  and  C_10 
REMARK       I    between atoms: C_10  and  N_11 
REMARK    2  A    between atoms: N_11  and  C_12 
REMARK    3  A    between atoms: C_13  and  O_14 
REMARK    4  A    between atoms: O_14  and  C_15 
REMARK    5  A    between atoms: C_15  and  C_16 
ROOT
HETATM    1  N   UNL     1      27.350  39.830  50.716  1.00  0.00    -0.305 N 
HETATM    2  C   UNL     1      27.142  41.194  50.630  1.00  0.00     0.325 C 
HETATM    3  N   UNL     1      26.457  41.644  51.746  1.00  0.00    -0.306 N 
HETATM    4  O   UNL     1      27.510  41.910  49.708  1.00  0.00    -0.247 OA
HETATM    5  H   UNL     1      27.336  39.436  51.643  1.00  0.00     0.171 HD
HETATM    6  H   UNL     1      25.974  40.943  52.294  1.00  0.00     0.171 HD
ENDROOT
BRANCH   3   7
HETATM    7  C   UNL     1      26.160  42.979  52.096  1.00  0.00     0.072 A 
HETATM    8  C   UNL     1      26.705  43.465  53.301  1.00  0.00     0.096 A 
HETATM    9  C   UNL     1      26.503  44.787  53.704  1.00  0.00     0.042 A 
HETATM   10  C   UNL     1      25.723  45.629  52.916  1.00  0.00     0.045 A 
HETATM   11  C   UNL     1      25.168  45.144  51.735  1.00  0.00     0.118 A 
HETATM   12  F   UNL     1      24.425  45.964  50.980  1.00  0.00    -0.206 F 
HETATM   13  C   UNL     1      25.383  43.833  51.316  1.00  0.00     0.074 A 
BRANCH   8  14
HETATM   14  O   UNL     1      27.483  42.609  54.045  1.00  0.00    -0.340 OA
BRANCH  14  15
HETATM   15  C   UNL     1      28.770  43.182  54.345  1.00  0.00     0.293 C 
BRANCH  15  16
HETATM   16  C   UNL     1      29.796  42.703  53.332  1.00  0.00     0.408 C 
HETATM   17  F   UNL     1      29.817  43.501  52.241  1.00  0.00    -0.169 F 
HETATM   18  F   UNL     1      31.042  42.686  53.855  1.00  0.00    -0.169 F 
HETATM   19  F   UNL     1      29.511  41.448  52.916  1.00  0.00    -0.169 F 
ENDBRANCH  15  16
ENDBRANCH  14  15
ENDBRANCH   8  14
ENDBRANCH   3   7
BRANCH   1  20
HETATM   20  C   UNL     1      27.856  39.010  49.720  1.00  0.00     0.086 A 
HETATM   21  C   UNL     1      28.996  38.249  49.907  1.00  0.00     0.052 A 
HETATM   22  C   UNL     1      29.925  38.099  51.051  1.00  0.00     0.072 C 
HETATM   23  N   UNL     1      29.189  37.575  48.736  1.00  0.00    -0.280 N 
HETATM   24  H   UNL     1      29.934  36.929  48.499  1.00  0.00     0.189 HD
HETATM   25  N   UNL     1      28.251  37.812  47.815  1.00  0.00    -0.177 NA
HETATM   26  C   UNL     1      27.420  38.687  48.402  1.00  0.00     0.079 A 
HETATM   27  C   UNL     1      26.216  39.123  47.652  1.00  0.00     0.075 C 
ENDBRANCH   1  20
TORSDOF 5
ENDMDL
MODEL 10
REMARK VINA RESULT:      -7.1      3.002      7.103
REMARK  5 active torsions:
REMARK  status: ('A' for Active; 'I' for Inactive)
REMARK    1  A    between atoms: C_8  and  N_9 
REMARK       I    between atoms: N_9  and  C_10 
REMARK       I    between atoms: C_10  and  N_11 
REMARK    2  A    between atoms: N_11  and  C_12 
REMARK    3  A    between atoms: C_13  and  O_14 
REMARK    4  A    between atoms: O_14  and  C_15 
REMARK    5  A    between atoms: C_15  and  C_16 
ROOT
HETATM    1  N   UNL     1      28.109  44.916  53.395  1.00  0.00    -0.305 N 
HETATM    2  C   UNL     1      26.900  44.317  53.093  1.00  0.00     0.325 C 
HETATM    3  N   UNL     1      26.699  44.311  51.723  1.00  0.00    -0.306 N 
HETATM    4  O   UNL     1      26.116  43.853  53.910  1.00  0.00    -0.247 OA
HETATM    5  H   UNL     1      28.799  44.918  52.660  1.00  0.00     0.171 HD
HETATM    6  H   UNL     1      27.264  44.951  51.179  1.00  0.00     0.171 HD
ENDROOT
BRANCH   3   7
HETATM    7  C   UNL     1      25.653  43.688  51.007  1.00  0.00     0.072 A 
HETATM    8  C   UNL     1      25.960  42.489  50.333  1.00  0.00     0.096 A 
HETATM    9  C   UNL     1      24.977  41.779  49.639  1.00  0.00     0.042 A 
HETATM   10  C   UNL     1      23.681  42.284  49.585  1.00  0.00     0.045 A 
HETATM   11  C   UNL     1      23.381  43.478  50.234  1.00  0.00     0.118 A 
HETATM   12  F   UNL     1      22.129  43.951  50.184  1.00  0.00    -0.206 F 
HETATM   13  C   UNL     1      24.351  44.180  50.947  1.00  0.00     0.074 A 
BRANCH   8  14
HETATM   14  O   UNL     1      27.247  42.014  50.421  1.00  0.00    -0.340 OA
BRANCH  14  15
HETATM   15  C   UNL     1      27.332  40.857  51.274  1.00  0.00     0.293 C 
BRANCH  15  16
HETATM   16  C   UNL     1      28.455  41.040  52.282  1.00  0.00     0.408 C 
HETATM   17  F   UNL     1      27.969  41.177  53.536  1.00  0.00    -0.169 F 
HETATM   18  F   UNL     1      29.303  39.987  52.279  1.00  0.00    -0.169 F 
HETATM   19  F   UNL     1      29.178  42.147  51.999  1.00  0.00    -0.169 F 
ENDBRANCH  15  16
ENDBRANCH  14  15
ENDBRANCH   8  14
ENDBRANCH   3   7
BRANCH   1  20
HETATM   20  C   UNL     1      28.572  45.243  54.658  1.00  0.00     0.086 A 
HETATM   21  C   UNL     1      29.570  44.517  55.283  1.00  0.00     0.052 A 
HETATM   22  C   UNL     1      30.341  43.318  54.879  1.00  0.00     0.072 C 
HETATM   23  N   UNL     1      29.770  45.122  56.491  1.00  0.00    -0.280 N 
HETATM   24  H   UNL     1      30.418  44.859  57.225  1.00  0.00     0.189 HD
HETATM   25  N   UNL     1      29.005  46.199  56.689  1.00  0.00    -0.177 NA
HETATM   26  C   UNL     1      28.266  46.293  55.573  1.00  0.00     0.079 A 
HETATM   27  C   UNL     1      27.331  47.438  55.445  1.00  0.00     0.075 C 
ENDBRANCH   1  20
TORSDOF 5
ENDMDL
