MODEL 1
REMARK VINA RESULT:      -9.4      0.000      0.000
REMARK  5 active torsions:
REMARK  status: ('A' for Active; 'I' for Inactive)
REMARK    1  A    between atoms: C_3  and  N_4 
REMARK    2  A    between atoms: N_5  and  C_6 
REMARK    3  A    between atoms: C_6  and  C_7 
REMARK    4  A    between atoms: C_7  and  C_8 
REMARK    5  A    between atoms: C_19  and  C_20 
ROOT
HETATM    1  C   UNL     1      25.133  44.338  49.178  1.00  0.00     0.175 C 
HETATM    2  N   UNL     1      25.501  44.885  50.476  1.00  0.00    -0.186 N 
HETATM    3  C   UNL     1      25.704  44.151  51.565  1.00  0.00     0.680 C 
HETATM    4  N   UNL     1      26.317  44.894  52.478  1.00  0.00    -0.184 N 
HETATM    5  C   UNL     1      26.356  46.201  52.012  1.00  0.00     0.140 C 
HETATM    6  C   UNL     1      25.772  46.235  50.762  1.00  0.00     0.077 C 
ENDROOT
BRANCH   4   7
HETATM    7  C   UNL     1      26.937  44.440  53.743  1.00  0.00     0.231 C 
BRANCH   7   8
HETATM    8  C   UNL     1      28.421  44.107  53.623  1.00  0.00     0.178 C 
HETATM    9  O   UNL     1      28.945  43.829  52.541  1.00  0.00    -0.290 OA
BRANCH   8  10
HETATM   10  C   UNL     1      29.277  44.181  54.837  1.00  0.00     0.014 A 
HETATM   11  C   UNL     1      29.167  45.236  55.752  1.00  0.00     0.055 A 
HETATM   12  C   UNL     1      30.033  45.236  56.827  1.00  0.00     0.106 A 
HETATM   13  C   UNL     1      30.970  44.248  57.015  1.00  0.00     0.105 A 
HETATM   14  O   UNL     1      30.080  46.184  57.800  1.00  0.00    -0.323 OA
HETATM   15  O   UNL     1      31.719  44.448  58.128  1.00  0.00    -0.323 OA
HETATM   16  C   UNL     1      31.101  43.198  56.133  1.00  0.00     0.040 A 
HETATM   17  C   UNL     1      31.173  45.694  58.610  1.00  0.00     0.352 A 
HETATM   18  C   UNL     1      30.247  43.170  55.027  1.00  0.00     0.018 A 
ENDBRANCH   8  10
ENDBRANCH   7   8
ENDBRANCH   4   7
BRANCH   3  19
HETATM   19  N   UNL     1      25.355  42.875  51.687  1.00  0.00    -0.234 N 
HETATM   20  H   UNL     1      24.530  42.589  52.189  1.00  0.00     0.174 HD
HETATM   21  H   UNL     1      26.078  42.165  51.562  1.00  0.00     0.174 HD
ENDBRANCH   3  19
BRANCH   6  22
HETATM   22  C   UNL     1      25.530  47.469  49.937  1.00  0.00    -0.007 A 
HETATM   23  C   UNL     1      24.218  47.860  49.623  1.00  0.00     0.017 A 
HETATM   24  C   UNL     1      23.994  49.005  48.852  1.00  0.00     0.043 A 
HETATM   25  C   UNL     1      25.073  49.744  48.385  1.00  0.00     0.116 A 
HETATM   26  F   UNL     1      24.854  50.837  47.644  1.00  0.00    -0.206 F 
HETATM   27  C   UNL     1      26.375  49.358  48.670  1.00  0.00     0.043 A 
HETATM   28  C   UNL     1      26.606  48.218  49.445  1.00  0.00     0.017 A 
ENDBRANCH   6  22
TORSDOF 5
ENDMDL
MODEL 2
REMARK VINA RESULT:      -9.3      4.058      8.687
REMARK  5 active torsions:
REMARK  status: ('A' for Active; 'I' for Inactive)
REMARK    1  A    between atoms: C_3  and  N_4 
REMARK    2  A    between atoms: N_5  and  C_6 
REMARK    3  A    between atoms: C_6  and  C_7 
REMARK    4  A    between atoms: C_7  and  C_8 
REMARK    5  A    between atoms: C_19  and  C_20 
ROOT
HETATM    1  C   UNL     1      27.720  47.682  55.058  1.00  0.00     0.175 C 
HETATM    2  N   UNL     1      27.441  46.451  54.333  1.00  0.00    -0.186 N 
HETATM    3  C   UNL     1      26.455  46.311  53.453  1.00  0.00     0.680 C 
HETATM    4  N   UNL     1      26.657  45.201  52.752  1.00  0.00    -0.184 N 
HETATM    5  C   UNL     1      27.723  44.522  53.323  1.00  0.00     0.140 C 
HETATM    6  C   UNL     1      28.197  45.267  54.385  1.00  0.00     0.077 C 
ENDROOT
BRANCH   4   7
HETATM    7  C   UNL     1      25.949  44.767  51.527  1.00  0.00     0.231 C 
BRANCH   7   8
HETATM    8  C   UNL     1      26.468  45.415  50.248  1.00  0.00     0.178 C 
HETATM    9  O   UNL     1      27.301  44.864  49.525  1.00  0.00    -0.290 OA
BRANCH   8  10
HETATM   10  C   UNL     1      25.904  46.724  49.823  1.00  0.00     0.014 A 
HETATM   11  C   UNL     1      24.523  46.940  49.743  1.00  0.00     0.055 A 
HETATM   12  C   UNL     1      24.098  48.177  49.301  1.00  0.00     0.106 A 
HETATM   13  C   UNL     1      24.979  49.174  48.953  1.00  0.00     0.105 A 
HETATM   14  O   UNL     1      22.801  48.556  49.145  1.00  0.00    -0.323 OA
HETATM   15  O   UNL     1      24.348  50.303  48.540  1.00  0.00    -0.323 OA
HETATM   16  C   UNL     1      26.342  48.992  49.023  1.00  0.00     0.040 A 
HETATM   17  C   UNL     1      22.966  49.899  48.635  1.00  0.00     0.352 A 
HETATM   18  C   UNL     1      26.808  47.748  49.458  1.00  0.00     0.018 A 
ENDBRANCH   8  10
ENDBRANCH   7   8
ENDBRANCH   4   7
BRANCH   3  19
HETATM   19  N   UNL     1      25.450  47.168  53.307  1.00  0.00    -0.234 N 
HETATM   20  H   UNL     1      25.058  47.388  52.405  1.00  0.00     0.174 HD
HETATM   21  H   UNL     1      25.289  47.849  54.049  1.00  0.00     0.174 HD
ENDBRANCH   3  19
BRANCH   6  22
HETATM   22  C   UNL     1      29.291  44.855  55.330  1.00  0.00    -0.007 A 
HETATM   23  C   UNL     1      30.012  43.672  55.101  1.00  0.00     0.017 A 
HETATM   24  C   UNL     1      31.026  43.287  55.983  1.00  0.00     0.043 A 
HETATM   25  C   UNL     1      31.308  44.071  57.095  1.00  0.00     0.116 A 
HETATM   26  F   UNL     1      32.277  43.697  57.939  1.00  0.00    -0.206 F 
HETATM   27  C   UNL     1      30.591  45.232  57.345  1.00  0.00     0.043 A 
HETATM   28  C   UNL     1      29.579  45.625  56.465  1.00  0.00     0.017 A 
ENDBRANCH   6  22
TORSDOF 5
ENDMDL
MODEL 3
REMARK VINA RESULT:      -9.2      4.001      8.805
REMARK  5 active torsions:
REMARK  status: ('A' for Active; 'I' for Inactive)
REMARK    1  A    between atoms: C_3  and  N_4 
REMARK    2  A    between atoms: N_5  and  C_6 
REMARK    3  A    between atoms: C_6  and  C_7 
REMARK    4  A    between atoms: C_7  and  C_8 
REMARK    5  A    between atoms: C_19  and  C_20 
ROOT
HETATM    1  C   UNL     1      27.999  41.838  53.528  1.00  0.00     0.175 C 
HETATM    2  N   UNL     1      27.811  43.245  53.208  1.00  0.00    -0.186 N 
HETATM    3  C   UNL     1      27.101  43.686  52.175  1.00  0.00     0.680 C 
HETATM    4  N   UNL     1      26.865  44.984  52.335  1.00  0.00    -0.184 N 
HETATM    5  C   UNL     1      27.598  45.419  53.430  1.00  0.00     0.140 C 
HETATM    6  C   UNL     1      28.272  44.339  53.962  1.00  0.00     0.077 C 
ENDROOT
BRANCH   4   7
HETATM    7  C   UNL     1      25.934  45.834  51.562  1.00  0.00     0.231 C 
BRANCH   7   8
HETATM    8  C   UNL     1      26.490  46.304  50.221  1.00  0.00     0.178 C 
HETATM    9  O   UNL     1      27.366  45.680  49.619  1.00  0.00    -0.290 OA
BRANCH   8  10
HETATM   10  C   UNL     1      25.912  47.520  49.588  1.00  0.00     0.014 A 
HETATM   11  C   UNL     1      24.529  47.690  49.446  1.00  0.00     0.055 A 
HETATM   12  C   UNL     1      24.091  48.834  48.810  1.00  0.00     0.106 A 
HETATM   13  C   UNL     1      24.962  49.785  48.331  1.00  0.00     0.105 A 
HETATM   14  O   UNL     1      22.792  49.155  48.571  1.00  0.00    -0.323 OA
HETATM   15  O   UNL     1      24.320  50.822  47.735  1.00  0.00    -0.323 OA
HETATM   16  C   UNL     1      26.326  49.646  48.456  1.00  0.00     0.040 A 
HETATM   17  C   UNL     1      22.944  50.407  47.862  1.00  0.00     0.352 A 
HETATM   18  C   UNL     1      26.805  48.494  49.087  1.00  0.00     0.018 A 
ENDBRANCH   8  10
ENDBRANCH   7   8
ENDBRANCH   4   7
BRANCH   3  19
HETATM   19  N   UNL     1      26.690  42.926  51.165  1.00  0.00    -0.234 N 
HETATM   20  H   UNL     1      26.484  41.947  51.280  1.00  0.00     0.174 HD
HETATM   21  H   UNL     1      26.893  43.239  50.216  1.00  0.00     0.174 HD
ENDBRANCH   3  19
BRANCH   6  22
HETATM   22  C   UNL     1      29.248  44.386  55.106  1.00  0.00    -0.007 A 
HETATM   23  C   UNL     1      29.183  45.428  56.044  1.00  0.00     0.017 A 
HETATM   24  C   UNL     1      30.093  45.474  57.105  1.00  0.00     0.043 A 
HETATM   25  C   UNL     1      31.071  44.494  57.218  1.00  0.00     0.116 A 
HETATM   26  F   UNL     1      31.942  44.543  58.232  1.00  0.00    -0.206 F 
HETATM   27  C   UNL     1      31.159  43.469  56.286  1.00  0.00     0.043 A 
HETATM   28  C   UNL     1      30.249  43.414  55.227  1.00  0.00     0.017 A 
ENDBRANCH   6  22
TORSDOF 5
ENDMDL
MODEL 4
REMARK VINA RESULT:      -8.6      4.133      8.427
REMARK  5 active torsions:
REMARK  status: ('A' for Active; 'I' for Inactive)
REMARK    1  A    between atoms: C_3  and  N_4 
REMARK    2  A    between atoms: N_5  and  C_6 
REMARK    3  A    between atoms: C_6  and  C_7 
REMARK    4  A    between atoms: C_7  and  C_8 
REMARK    5  A    between atoms: C_19  and  C_20 
ROOT
HETATM    1  C   UNL     1      28.447  40.908  53.280  1.00  0.00     0.175 C 
HETATM    2  N   UNL     1      28.082  42.092  52.517  1.00  0.00    -0.186 N 
HETATM    3  C   UNL     1      27.517  42.060  51.314  1.00  0.00     0.680 C 
HETATM    4  N   UNL     1      27.033  43.264  51.033  1.00  0.00    -0.184 N 
HETATM    5  C   UNL     1      27.453  44.138  52.025  1.00  0.00     0.140 C 
HETATM    6  C   UNL     1      28.190  43.426  52.950  1.00  0.00     0.077 C 
ENDROOT
BRANCH   4   7
HETATM    7  C   UNL     1      26.134  43.637  49.918  1.00  0.00     0.231 C 
BRANCH   7   8
HETATM    8  C   UNL     1      24.726  44.022  50.357  1.00  0.00     0.178 C 
HETATM    9  O   UNL     1      24.106  43.381  51.209  1.00  0.00    -0.290 OA
BRANCH   8  10
HETATM   10  C   UNL     1      24.103  45.247  49.787  1.00  0.00     0.014 A 
HETATM   11  C   UNL     1      24.489  46.529  50.196  1.00  0.00     0.055 A 
HETATM   12  C   UNL     1      23.825  47.602  49.638  1.00  0.00     0.106 A 
HETATM   13  C   UNL     1      22.823  47.441  48.710  1.00  0.00     0.105 A 
HETATM   14  O   UNL     1      24.055  48.910  49.928  1.00  0.00    -0.323 OA
HETATM   15  O   UNL     1      22.302  48.625  48.299  1.00  0.00    -0.323 OA
HETATM   16  C   UNL     1      22.421  46.193  48.287  1.00  0.00     0.040 A 
HETATM   17  C   UNL     1      23.065  49.555  49.095  1.00  0.00     0.352 A 
HETATM   18  C   UNL     1      23.066  45.083  48.839  1.00  0.00     0.018 A 
ENDBRANCH   8  10
ENDBRANCH   7   8
ENDBRANCH   4   7
BRANCH   3  19
HETATM   19  N   UNL     1      27.448  40.979  50.545  1.00  0.00    -0.234 N 
HETATM   20  H   UNL     1      27.750  40.073  50.864  1.00  0.00     0.174 HD
HETATM   21  H   UNL     1      27.401  41.112  49.534  1.00  0.00     0.174 HD
ENDBRANCH   3  19
BRANCH   6  22
HETATM   22  C   UNL     1      28.903  44.004  54.141  1.00  0.00    -0.007 A 
HETATM   23  C   UNL     1      28.395  45.146  54.780  1.00  0.00     0.017 A 
HETATM   24  C   UNL     1      29.061  45.686  55.885  1.00  0.00     0.043 A 
HETATM   25  C   UNL     1      30.235  45.098  56.338  1.00  0.00     0.116 A 
HETATM   26  F   UNL     1      30.872  45.619  57.393  1.00  0.00    -0.206 F 
HETATM   27  C   UNL     1      30.759  43.980  55.704  1.00  0.00     0.043 A 
HETATM   28  C   UNL     1      30.096  43.433  54.602  1.00  0.00     0.017 A 
ENDBRANCH   6  22
TORSDOF 5
ENDMDL
MODEL 5
REMARK VINA RESULT:      -8.5      4.819      8.072
REMARK  5 active torsions:
REMARK  status: ('A' for Active; 'I' for Inactive)
REMARK    1  A    between atoms: C_3  and  N_4 
REMARK    2  A    between atoms: N_5  and  C_6 
REMARK    3  A    between atoms: C_6  and  C_7 
REMARK    4  A    between atoms: C_7  and  C_8 
REMARK    5  A    between atoms: C_19  and  C_20 
ROOT
HETATM    1  C   UNL     1      26.893  46.830  54.598  1.00  0.00     0.175 C 
HETATM    2  N   UNL     1      27.259  45.635  53.852  1.00  0.00    -0.186 N 
HETATM    3  C   UNL     1      26.620  45.208  52.767  1.00  0.00     0.680 C 
HETATM    4  N   UNL     1      27.369  44.297  52.156  1.00  0.00    -0.184 N 
HETATM    5  C   UNL     1      28.452  44.013  52.976  1.00  0.00     0.140 C 
HETATM    6  C   UNL     1      28.365  44.803  54.104  1.00  0.00     0.077 C 
ENDROOT
BRANCH   4   7
HETATM    7  C   UNL     1      27.168  43.722  50.808  1.00  0.00     0.231 C 
BRANCH   7   8
HETATM    8  C   UNL     1      26.241  42.512  50.781  1.00  0.00     0.178 C 
HETATM    9  O   UNL     1      25.034  42.604  51.020  1.00  0.00    -0.290 OA
BRANCH   8  10
HETATM   10  C   UNL     1      26.795  41.188  50.390  1.00  0.00     0.014 A 
HETATM   11  C   UNL     1      27.969  40.683  50.961  1.00  0.00     0.055 A 
HETATM   12  C   UNL     1      28.424  39.462  50.504  1.00  0.00     0.106 A 
HETATM   13  C   UNL     1      27.763  38.751  49.530  1.00  0.00     0.105 A 
HETATM   14  O   UNL     1      29.550  38.831  50.931  1.00  0.00    -0.323 OA
HETATM   15  O   UNL     1      28.387  37.584  49.226  1.00  0.00    -0.323 OA
HETATM   16  C   UNL     1      26.606  39.221  48.950  1.00  0.00     0.040 A 
HETATM   17  C   UNL     1      29.537  37.650  50.095  1.00  0.00     0.352 A 
HETATM   18  C   UNL     1      26.121  40.459  49.382  1.00  0.00     0.018 A 
ENDBRANCH   8  10
ENDBRANCH   7   8
ENDBRANCH   4   7
BRANCH   3  19
HETATM   19  N   UNL     1      25.432  45.651  52.371  1.00  0.00    -0.234 N 
HETATM   20  H   UNL     1      25.010  46.478  52.762  1.00  0.00     0.174 HD
HETATM   21  H   UNL     1      24.800  44.990  51.918  1.00  0.00     0.174 HD
ENDBRANCH   3  19
BRANCH   6  22
HETATM   22  C   UNL     1      29.289  44.752  55.289  1.00  0.00    -0.007 A 
HETATM   23  C   UNL     1      29.193  45.721  56.300  1.00  0.00     0.017 A 
HETATM   24  C   UNL     1      30.055  45.675  57.400  1.00  0.00     0.043 A 
HETATM   25  C   UNL     1      31.018  44.678  57.480  1.00  0.00     0.116 A 
HETATM   26  F   UNL     1      31.845  44.639  58.532  1.00  0.00    -0.206 F 
HETATM   27  C   UNL     1      31.138  43.725  56.478  1.00  0.00     0.043 A 
HETATM   28  C   UNL     1      30.276  43.762  55.379  1.00  0.00     0.017 A 
ENDBRANCH   6  22
TORSDOF 5
ENDMDL
MODEL 6
REMARK VINA RESULT:      -8.4      3.302      4.302
REMARK  5 active torsions:
REMARK  status: ('A' for Active; 'I' for Inactive)
REMARK    1  A    between atoms: C_3  and  N_4 
REMARK    2  A    between atoms: N_5  and  C_6 
REMARK    3  A    between atoms: C_6  and  C_7 
REMARK    4  A    between atoms: C_7  and  C_8 
REMARK    5  A    between atoms: C_19  and  C_20 
ROOT
HETATM    1  C   UNL     1      27.984  40.323  48.936  1.00  0.00     0.175 C 
HETATM    2  N   UNL     1      27.643  40.882  50.236  1.00  0.00    -0.186 N 
HETATM    3  C   UNL     1      28.312  40.626  51.356  1.00  0.00     0.680 C 
HETATM    4  N   UNL     1      27.957  41.511  52.281  1.00  0.00    -0.184 N 
HETATM    5  C   UNL     1      26.899  42.255  51.780  1.00  0.00     0.140 C 
HETATM    6  C   UNL     1      26.629  41.821  50.498  1.00  0.00     0.077 C 
ENDROOT
BRANCH   4   7
HETATM    7  C   UNL     1      28.600  41.751  53.593  1.00  0.00     0.231 C 
BRANCH   7   8
HETATM    8  C   UNL     1      29.704  42.803  53.560  1.00  0.00     0.178 C 
HETATM    9  O   UNL     1      30.414  42.979  52.567  1.00  0.00    -0.290 OA
BRANCH   8  10
HETATM   10  C   UNL     1      29.888  43.691  54.739  1.00  0.00     0.014 A 
HETATM   11  C   UNL     1      30.802  43.387  55.755  1.00  0.00     0.055 A 
HETATM   12  C   UNL     1      30.872  44.253  56.828  1.00  0.00     0.106 A 
HETATM   13  C   UNL     1      30.087  45.379  56.913  1.00  0.00     0.105 A 
HETATM   14  O   UNL     1      31.686  44.107  57.906  1.00  0.00    -0.323 OA
HETATM   15  O   UNL     1      30.312  46.082  58.052  1.00  0.00    -0.323 OA
HETATM   16  C   UNL     1      29.179  45.705  55.930  1.00  0.00     0.040 A 
HETATM   17  C   UNL     1      31.306  45.258  58.696  1.00  0.00     0.352 A 
HETATM   18  C   UNL     1      29.075  44.845  54.833  1.00  0.00     0.018 A 
ENDBRANCH   8  10
ENDBRANCH   7   8
ENDBRANCH   4   7
BRANCH   3  19
HETATM   19  N   UNL     1      29.199  39.647  51.495  1.00  0.00    -0.234 N 
HETATM   20  H   UNL     1      30.175  39.827  51.667  1.00  0.00     0.174 HD
HETATM   21  H   UNL     1      28.968  38.732  51.108  1.00  0.00     0.174 HD
ENDBRANCH   3  19
BRANCH   6  22
HETATM   22  C   UNL     1      25.503  42.301  49.624  1.00  0.00    -0.007 A 
HETATM   23  C   UNL     1      25.307  43.676  49.421  1.00  0.00     0.017 A 
HETATM   24  C   UNL     1      24.257  44.123  48.612  1.00  0.00     0.043 A 
HETATM   25  C   UNL     1      23.401  43.201  48.024  1.00  0.00     0.116 A 
HETATM   26  F   UNL     1      22.395  43.632  47.253  1.00  0.00    -0.206 F 
HETATM   27  C   UNL     1      23.571  41.840  48.231  1.00  0.00     0.043 A 
HETATM   28  C   UNL     1      24.621  41.387  49.034  1.00  0.00     0.017 A 
ENDBRANCH   6  22
TORSDOF 5
ENDMDL
MODEL 7
REMARK VINA RESULT:      -8.4      2.532      3.985
REMARK  5 active torsions:
REMARK  status: ('A' for Active; 'I' for Inactive)
REMARK    1  A    between atoms: C_3  and  N_4 
REMARK    2  A    between atoms: N_5  and  C_6 
REMARK    3  A    between atoms: C_6  and  C_7 
REMARK    4  A    between atoms: C_7  and  C_8 
REMARK    5  A    between atoms: C_19  and  C_20 
ROOT
HETATM    1  C   UNL     1      22.017  46.010  47.506  1.00  0.00     0.175 C 
HETATM    2  N   UNL     1      22.896  46.350  48.615  1.00  0.00    -0.186 N 
HETATM    3  C   UNL     1      23.711  45.486  49.213  1.00  0.00     0.680 C 
HETATM    4  N   UNL     1      24.584  46.159  49.954  1.00  0.00    -0.184 N 
HETATM    5  C   UNL     1      24.203  47.493  49.958  1.00  0.00     0.140 C 
HETATM    6  C   UNL     1      23.080  47.630  49.168  1.00  0.00     0.077 C 
ENDROOT
BRANCH   4   7
HETATM    7  C   UNL     1      25.804  45.636  50.608  1.00  0.00     0.231 C 
BRANCH   7   8
HETATM    8  C   UNL     1      25.571  45.095  52.015  1.00  0.00     0.178 C 
HETATM    9  O   UNL     1      24.642  44.329  52.278  1.00  0.00    -0.290 OA
BRANCH   8  10
HETATM   10  C   UNL     1      26.533  45.452  53.092  1.00  0.00     0.014 A 
HETATM   11  C   UNL     1      27.586  44.602  53.451  1.00  0.00     0.055 A 
HETATM   12  C   UNL     1      28.402  45.004  54.489  1.00  0.00     0.106 A 
HETATM   13  C   UNL     1      28.210  46.191  55.155  1.00  0.00     0.105 A 
HETATM   14  O   UNL     1      29.457  44.301  54.980  1.00  0.00    -0.323 OA
HETATM   15  O   UNL     1      29.120  46.385  56.143  1.00  0.00    -0.323 OA
HETATM   16  C   UNL     1      27.184  47.049  54.824  1.00  0.00     0.040 A 
HETATM   17  C   UNL     1      29.893  45.170  56.051  1.00  0.00     0.352 A 
HETATM   18  C   UNL     1      26.332  46.669  53.783  1.00  0.00     0.018 A 
ENDBRANCH   8  10
ENDBRANCH   7   8
ENDBRANCH   4   7
BRANCH   3  19
HETATM   19  N   UNL     1      23.650  44.168  49.062  1.00  0.00    -0.234 N 
HETATM   20  H   UNL     1      22.949  43.724  48.491  1.00  0.00     0.174 HD
HETATM   21  H   UNL     1      24.095  43.583  49.770  1.00  0.00     0.174 HD
ENDBRANCH   3  19
BRANCH   6  22
HETATM   22  C   UNL     1      22.293  48.895  48.968  1.00  0.00    -0.007 A 
HETATM   23  C   UNL     1      22.948  50.083  48.604  1.00  0.00     0.017 A 
HETATM   24  C   UNL     1      22.215  51.260  48.423  1.00  0.00     0.043 A 
HETATM   25  C   UNL     1      20.841  51.254  48.620  1.00  0.00     0.116 A 
HETATM   26  F   UNL     1      20.143  52.384  48.449  1.00  0.00    -0.206 F 
HETATM   27  C   UNL     1      20.182  50.093  48.999  1.00  0.00     0.043 A 
HETATM   28  C   UNL     1      20.908  48.911  49.176  1.00  0.00     0.017 A 
ENDBRANCH   6  22
TORSDOF 5
ENDMDL
MODEL 8
REMARK VINA RESULT:      -8.3      5.928     10.517
REMARK  5 active torsions:
REMARK  status: ('A' for Active; 'I' for Inactive)
REMARK    1  A    between atoms: C_3  and  N_4 
REMARK    2  A    between atoms: N_5  and  C_6 
REMARK    3  A    between atoms: C_6  and  C_7 
REMARK    4  A    between atoms: C_7  and  C_8 
REMARK    5  A    between atoms: C_19  and  C_20 
ROOT
HETATM    1  C   UNL     1      27.703  48.253  49.163  1.00  0.00     0.175 C 
HETATM    2  N   UNL     1      26.271  48.296  49.423  1.00  0.00    -0.186 N 
HETATM    3  C   UNL     1      25.409  49.033  48.730  1.00  0.00     0.680 C 
HETATM    4  N   UNL     1      24.176  48.622  49.000  1.00  0.00    -0.184 N 
HETATM    5  C   UNL     1      24.248  47.698  50.032  1.00  0.00     0.140 C 
HETATM    6  C   UNL     1      25.575  47.527  50.373  1.00  0.00     0.077 C 
ENDROOT
BRANCH   4   7
HETATM    7  C   UNL     1      22.927  48.992  48.297  1.00  0.00     0.231 C 
BRANCH   7   8
HETATM    8  C   UNL     1      22.334  50.324  48.745  1.00  0.00     0.178 C 
HETATM    9  O   UNL     1      23.035  51.315  48.958  1.00  0.00    -0.290 OA
BRANCH   8  10
HETATM   10  C   UNL     1      20.857  50.449  48.866  1.00  0.00     0.014 A 
HETATM   11  C   UNL     1      20.213  51.689  48.775  1.00  0.00     0.055 A 
HETATM   12  C   UNL     1      18.842  51.707  48.940  1.00  0.00     0.106 A 
HETATM   13  C   UNL     1      18.118  50.564  49.180  1.00  0.00     0.105 A 
HETATM   14  O   UNL     1      18.058  52.817  48.900  1.00  0.00    -0.323 OA
HETATM   15  O   UNL     1      16.790  50.811  49.317  1.00  0.00    -0.323 OA
HETATM   16  C   UNL     1      18.722  49.330  49.274  1.00  0.00     0.040 A 
HETATM   17  C   UNL     1      16.757  52.245  49.168  1.00  0.00     0.352 A 
HETATM   18  C   UNL     1      20.111  49.276  49.122  1.00  0.00     0.018 A 
ENDBRANCH   8  10
ENDBRANCH   7   8
ENDBRANCH   4   7
BRANCH   3  19
HETATM   19  N   UNL     1      25.754  50.007  47.895  1.00  0.00    -0.234 N 
HETATM   20  H   UNL     1      26.221  50.843  48.208  1.00  0.00     0.174 HD
HETATM   21  H   UNL     1      25.265  50.068  47.001  1.00  0.00     0.174 HD
ENDBRANCH   3  19
BRANCH   6  22
HETATM   22  C   UNL     1      26.093  46.678  51.501  1.00  0.00    -0.007 A 
HETATM   23  C   UNL     1      26.498  45.356  51.259  1.00  0.00     0.017 A 
HETATM   24  C   UNL     1      26.975  44.566  52.310  1.00  0.00     0.043 A 
HETATM   25  C   UNL     1      27.031  45.088  53.595  1.00  0.00     0.116 A 
HETATM   26  F   UNL     1      27.485  44.328  54.599  1.00  0.00    -0.206 F 
HETATM   27  C   UNL     1      26.616  46.387  53.853  1.00  0.00     0.043 A 
HETATM   28  C   UNL     1      26.143  47.184  52.806  1.00  0.00     0.017 A 
ENDBRANCH   6  22
TORSDOF 5
ENDMDL
MODEL 9
REMARK VINA RESULT:      -8.2      4.057      7.865
REMARK  5 active torsions:
REMARK  status: ('A' for Active; 'I' for Inactive)
REMARK    1  A    between atoms: C_3  and  N_4 
REMARK    2  A    between atoms: N_5  and  C_6 
REMARK    3  A    between atoms: C_6  and  C_7 
REMARK    4  A    between atoms: C_7  and  C_8 
REMARK    5  A    between atoms: C_19  and  C_20 
ROOT
HETATM    1  C   UNL     1      28.621  41.442  51.892  1.00  0.00     0.175 C 
HETATM    2  N   UNL     1      27.663  42.524  52.061  1.00  0.00    -0.186 N 
HETATM    3  C   UNL     1      26.610  42.718  51.273  1.00  0.00     0.680 C 
HETATM    4  N   UNL     1      25.781  43.572  51.863  1.00  0.00    -0.184 N 
HETATM    5  C   UNL     1      26.412  44.068  52.995  1.00  0.00     0.140 C 
HETATM    6  C   UNL     1      27.650  43.468  53.104  1.00  0.00     0.077 C 
ENDROOT
BRANCH   4   7
HETATM    7  C   UNL     1      24.394  43.903  51.467  1.00  0.00     0.231 C 
BRANCH   7   8
HETATM    8  C   UNL     1      24.270  44.473  50.058  1.00  0.00     0.178 C 
HETATM    9  O   UNL     1      23.678  43.873  49.157  1.00  0.00    -0.290 OA
BRANCH   8  10
HETATM   10  C   UNL     1      24.825  45.824  49.775  1.00  0.00     0.014 A 
HETATM   11  C   UNL     1      26.192  46.027  49.550  1.00  0.00     0.055 A 
HETATM   12  C   UNL     1      26.615  47.323  49.336  1.00  0.00     0.106 A 
HETATM   13  C   UNL     1      25.745  48.388  49.334  1.00  0.00     0.105 A 
HETATM   14  O   UNL     1      27.901  47.707  49.118  1.00  0.00    -0.323 OA
HETATM   15  O   UNL     1      26.372  49.571  49.112  1.00  0.00    -0.323 OA
HETATM   16  C   UNL     1      24.395  48.220  49.551  1.00  0.00     0.040 A 
HETATM   17  C   UNL     1      27.745  49.140  49.004  1.00  0.00     0.352 A 
HETATM   18  C   UNL     1      23.933  46.921  49.781  1.00  0.00     0.018 A 
ENDBRANCH   8  10
ENDBRANCH   7   8
ENDBRANCH   4   7
BRANCH   3  19
HETATM   19  N   UNL     1      26.432  42.126  50.097  1.00  0.00    -0.234 N 
HETATM   20  H   UNL     1      25.735  41.413  49.955  1.00  0.00     0.174 HD
HETATM   21  H   UNL     1      27.202  42.149  49.428  1.00  0.00     0.174 HD
ENDBRANCH   3  19
BRANCH   6  22
HETATM   22  C   UNL     1      28.694  43.783  54.140  1.00  0.00    -0.007 A 
HETATM   23  C   UNL     1      29.709  42.855  54.420  1.00  0.00     0.017 A 
HETATM   24  C   UNL     1      30.677  43.146  55.387  1.00  0.00     0.043 A 
HETATM   25  C   UNL     1      30.620  44.349  56.079  1.00  0.00     0.116 A 
HETATM   26  F   UNL     1      31.545  44.623  57.006  1.00  0.00    -0.206 F 
HETATM   27  C   UNL     1      29.610  45.267  55.827  1.00  0.00     0.043 A 
HETATM   28  C   UNL     1      28.643  44.984  54.858  1.00  0.00     0.017 A 
ENDBRANCH   6  22
TORSDOF 5
ENDMDL
MODEL 10
REMARK VINA RESULT:      -8.0      2.641      3.957
REMARK  5 active torsions:
REMARK  status: ('A' for Active; 'I' for Inactive)
REMARK    1  A    between atoms: C_3  and  N_4 
REMARK    2  A    between atoms: N_5  and  C_6 
REMARK    3  A    between atoms: C_6  and  C_7 
REMARK    4  A    between atoms: C_7  and  C_8 
REMARK    5  A    between atoms: C_19  and  C_20 
ROOT
HETATM    1  C   UNL     1      21.709  46.094  47.297  1.00  0.00     0.175 C 
HETATM    2  N   UNL     1      22.648  46.355  48.378  1.00  0.00    -0.186 N 
HETATM    3  C   UNL     1      23.467  45.442  48.891  1.00  0.00     0.680 C 
HETATM    4  N   UNL     1      24.392  46.054  49.622  1.00  0.00    -0.184 N 
HETATM    5  C   UNL     1      24.047  47.396  49.713  1.00  0.00     0.140 C 
HETATM    6  C   UNL     1      22.892  47.600  48.986  1.00  0.00     0.077 C 
ENDROOT
BRANCH   4   7
HETATM    7  C   UNL     1      25.627  45.469  50.189  1.00  0.00     0.231 C 
BRANCH   7   8
HETATM    8  C   UNL     1      25.465  44.927  51.605  1.00  0.00     0.178 C 
HETATM    9  O   UNL     1      24.357  44.723  52.106  1.00  0.00    -0.290 OA
BRANCH   8  10
HETATM   10  C   UNL     1      26.681  44.572  52.385  1.00  0.00     0.014 A 
HETATM   11  C   UNL     1      26.970  45.176  53.614  1.00  0.00     0.055 A 
HETATM   12  C   UNL     1      28.143  44.808  54.243  1.00  0.00     0.106 A 
HETATM   13  C   UNL     1      29.005  43.883  53.703  1.00  0.00     0.105 A 
HETATM   14  O   UNL     1      28.590  45.302  55.428  1.00  0.00    -0.323 OA
HETATM   15  O   UNL     1      30.098  43.677  54.481  1.00  0.00    -0.323 OA
HETATM   16  C   UNL     1      28.747  43.271  52.496  1.00  0.00     0.040 A 
HETATM   17  C   UNL     1      29.848  44.600  55.561  1.00  0.00     0.352 A 
HETATM   18  C   UNL     1      27.573  43.627  51.827  1.00  0.00     0.018 A 
ENDBRANCH   8  10
ENDBRANCH   7   8
ENDBRANCH   4   7
BRANCH   3  19
HETATM   19  N   UNL     1      23.365  44.135  48.677  1.00  0.00    -0.234 N 
HETATM   20  H   UNL     1      24.173  43.545  48.562  1.00  0.00     0.174 HD
HETATM   21  H   UNL     1      22.485  43.778  48.303  1.00  0.00     0.174 HD
ENDBRANCH   3  19
BRANCH   6  22
HETATM   22  C   UNL     1      22.130  48.892  48.889  1.00  0.00    -0.007 A 
HETATM   23  C   UNL     1      20.757  48.923  49.183  1.00  0.00     0.017 A 
HETATM   24  C   UNL     1      20.047  50.124  49.088  1.00  0.00     0.043 A 
HETATM   25  C   UNL     1      20.701  51.282  48.687  1.00  0.00     0.116 A 
HETATM   26  F   UNL     1      20.018  52.429  48.594  1.00  0.00    -0.206 F 
HETATM   27  C   UNL     1      22.053  51.262  48.374  1.00  0.00     0.043 A 
HETATM   28  C   UNL     1      22.769  50.066  48.471  1.00  0.00     0.017 A 
ENDBRANCH   6  22
TORSDOF 5
ENDMDL
