MODEL 1
REMARK VINA RESULT:      -9.9      0.000      0.000
REMARK  5 active torsions:
REMARK  status: ('A' for Active; 'I' for Inactive)
REMARK    1  A    between atoms: C_4  and  N_5 
REMARK       I    between atoms: N_5  and  C_6 
REMARK       I    between atoms: C_6  and  N_7 
REMARK    2  A    between atoms: N_7  and  C_8 
REMARK    3  A    between atoms: C_8  and  C_9 
REMARK       I    between atoms: C_9  and  N_10 
REMARK    4  A    between atoms: N_10  and  C_11 
REMARK    5  A    between atoms: C_16  and  C_17 
ROOT
HETATM    1  C   UNL     1      25.372  46.652  51.843  1.00  0.00     0.239 C 
HETATM    2  N   UNL     1      25.330  46.780  50.465  1.00  0.00    -0.325 N 
HETATM    3  O   UNL     1      25.354  47.558  52.670  1.00  0.00    -0.271 OA
HETATM    4  H   UNL     1      25.643  45.954  49.953  1.00  0.00     0.169 HD
ENDROOT
BRANCH   1   5
HETATM    5  C   UNL     1      25.531  45.194  52.287  1.00  0.00     0.227 C 
BRANCH   5   6
HETATM    6  N   UNL     1      26.918  44.857  52.553  1.00  0.00    -0.334 N 
HETATM    7  C   UNL     1      27.401  44.915  53.842  1.00  0.00     0.321 C 
HETATM    8  N   UNL     1      28.746  44.637  53.872  1.00  0.00    -0.309 N 
HETATM    9  O   UNL     1      26.677  45.202  54.788  1.00  0.00    -0.247 OA
HETATM   10  H   UNL     1      29.222  44.753  52.989  1.00  0.00     0.170 HD
HETATM   11  H   UNL     1      27.314  44.128  51.974  1.00  0.00     0.164 HD
BRANCH   8  12
HETATM   12  C   UNL     1      29.557  44.472  55.011  1.00  0.00     0.036 A 
HETATM   13  C   UNL     1      29.629  45.406  56.048  1.00  0.00     0.036 A 
HETATM   14  C   UNL     1      30.430  45.166  57.177  1.00  0.00    -0.060 A 
HETATM   15  C   UNL     1      30.509  46.183  58.276  1.00  0.00     0.048 C 
HETATM   16  C   UNL     1      31.191  43.994  57.239  1.00  0.00     0.007 A 
HETATM   17  C   UNL     1      31.122  43.056  56.210  1.00  0.00     0.003 A 
HETATM   18  C   UNL     1      30.299  43.290  55.107  1.00  0.00     0.029 A 
ENDBRANCH   8  12
ENDBRANCH   5   6
ENDBRANCH   1   5
BRANCH   2  19
HETATM   19  C   UNL     1      25.027  47.930  49.704  1.00  0.00     0.041 A 
HETATM   20  C   UNL     1      26.086  48.641  49.099  1.00  0.00    -0.035 A 
HETATM   21  C   UNL     1      27.529  48.247  49.280  1.00  0.00     0.050 C 
HETATM   22  C   UNL     1      25.798  49.762  48.306  1.00  0.00     0.010 A 
HETATM   23  C   UNL     1      24.481  50.174  48.102  1.00  0.00     0.016 A 
HETATM   24  C   UNL     1      23.420  49.478  48.689  1.00  0.00     0.019 A 
HETATM   25  C   UNL     1      23.710  48.360  49.490  1.00  0.00     0.046 A 
BRANCH  24  26
HETATM   26  C   UNL     1      22.029  49.878  48.477  1.00  0.00     0.179 A 
HETATM   27  O   UNL     1      21.744  51.217  48.602  1.00  0.00    -0.302 OA
HETATM   28  C   UNL     1      20.409  51.300  48.347  1.00  0.00     0.163 A 
HETATM   29  C   UNL     1      19.947  50.037  48.086  1.00  0.00     0.144 A 
HETATM   30  N   UNL     1      20.980  49.139  48.166  1.00  0.00    -0.234 NA
ENDBRANCH  24  26
ENDBRANCH   2  19
TORSDOF 5
ENDMDL
MODEL 2
REMARK VINA RESULT:      -9.5      2.066      9.868
REMARK  5 active torsions:
REMARK  status: ('A' for Active; 'I' for Inactive)
REMARK    1  A    between atoms: C_4  and  N_5 
REMARK       I    between atoms: N_5  and  C_6 
REMARK       I    between atoms: C_6  and  N_7 
REMARK    2  A    between atoms: N_7  and  C_8 
REMARK    3  A    between atoms: C_8  and  C_9 
REMARK       I    between atoms: C_9  and  N_10 
REMARK    4  A    between atoms: N_10  and  C_11 
REMARK    5  A    between atoms: C_16  and  C_17 
ROOT
HETATM    1  C   UNL     1      25.431  44.382  52.501  1.00  0.00     0.239 C 
HETATM    2  N   UNL     1      26.665  45.005  52.566  1.00  0.00    -0.325 N 
HETATM    3  O   UNL     1      24.764  43.964  53.442  1.00  0.00    -0.271 OA
HETATM    4  H   UNL     1      27.182  45.015  51.686  1.00  0.00     0.169 HD
ENDROOT
BRANCH   1   5
HETATM    5  C   UNL     1      24.963  44.169  51.058  1.00  0.00     0.227 C 
BRANCH   5   6
HETATM    6  N   UNL     1      23.959  45.142  50.664  1.00  0.00    -0.334 N 
HETATM    7  C   UNL     1      24.351  46.363  50.157  1.00  0.00     0.321 C 
HETATM    8  N   UNL     1      23.262  47.164  49.920  1.00  0.00    -0.309 N 
HETATM    9  O   UNL     1      25.532  46.637  49.984  1.00  0.00    -0.247 OA
HETATM   10  H   UNL     1      22.426  46.902  50.421  1.00  0.00     0.170 HD
HETATM   11  H   UNL     1      23.107  44.764  50.273  1.00  0.00     0.164 HD
BRANCH   8  12
HETATM   12  C   UNL     1      23.250  48.421  49.284  1.00  0.00     0.036 A 
HETATM   13  C   UNL     1      22.112  49.227  49.193  1.00  0.00     0.036 A 
HETATM   14  C   UNL     1      22.173  50.488  48.578  1.00  0.00    -0.060 A 
HETATM   15  C   UNL     1      20.941  51.337  48.474  1.00  0.00     0.048 C 
HETATM   16  C   UNL     1      23.380  50.921  48.020  1.00  0.00     0.007 A 
HETATM   17  C   UNL     1      24.521  50.124  48.111  1.00  0.00     0.003 A 
HETATM   18  C   UNL     1      24.458  48.885  48.751  1.00  0.00     0.029 A 
ENDBRANCH   8  12
ENDBRANCH   5   6
ENDBRANCH   1   5
BRANCH   2  19
HETATM   19  C   UNL     1      27.330  45.511  53.705  1.00  0.00     0.041 A 
HETATM   20  C   UNL     1      26.887  46.729  54.263  1.00  0.00    -0.035 A 
HETATM   21  C   UNL     1      25.767  47.535  53.657  1.00  0.00     0.050 C 
HETATM   22  C   UNL     1      27.510  47.224  55.419  1.00  0.00     0.010 A 
HETATM   23  C   UNL     1      28.552  46.522  56.025  1.00  0.00     0.016 A 
HETATM   24  C   UNL     1      28.999  45.310  55.490  1.00  0.00     0.019 A 
HETATM   25  C   UNL     1      28.379  44.819  54.327  1.00  0.00     0.046 A 
BRANCH  24  26
HETATM   26  C   UNL     1      30.077  44.545  56.115  1.00  0.00     0.179 A 
HETATM   27  O   UNL     1      30.482  44.953  57.364  1.00  0.00    -0.302 OA
HETATM   28  C   UNL     1      31.467  44.075  57.700  1.00  0.00     0.163 A 
HETATM   29  C   UNL     1      31.618  43.190  56.665  1.00  0.00     0.144 A 
HETATM   30  N   UNL     1      30.731  43.491  55.664  1.00  0.00    -0.234 NA
ENDBRANCH  24  26
ENDBRANCH   2  19
TORSDOF 5
ENDMDL
MODEL 3
REMARK VINA RESULT:      -9.4      1.791      2.526
REMARK  5 active torsions:
REMARK  status: ('A' for Active; 'I' for Inactive)
REMARK    1  A    between atoms: C_4  and  N_5 
REMARK       I    between atoms: N_5  and  C_6 
REMARK       I    between atoms: C_6  and  N_7 
REMARK    2  A    between atoms: N_7  and  C_8 
REMARK    3  A    between atoms: C_8  and  C_9 
REMARK       I    between atoms: C_9  and  N_10 
REMARK    4  A    between atoms: N_10  and  C_11 
REMARK    5  A    between atoms: C_16  and  C_17 
ROOT
HETATM    1  C   UNL     1      24.423  47.036  50.288  1.00  0.00     0.239 C 
HETATM    2  N   UNL     1      23.780  47.530  49.165  1.00  0.00    -0.325 N 
HETATM    3  O   UNL     1      24.793  47.674  51.268  1.00  0.00    -0.271 OA
HETATM    4  H   UNL     1      23.815  46.914  48.352  1.00  0.00     0.169 HD
ENDROOT
BRANCH   1   5
HETATM    5  C   UNL     1      24.728  45.539  50.171  1.00  0.00     0.227 C 
BRANCH   5   6
HETATM    6  N   UNL     1      25.217  44.986  51.422  1.00  0.00    -0.334 N 
HETATM    7  C   UNL     1      26.561  44.723  51.575  1.00  0.00     0.321 C 
HETATM    8  N   UNL     1      26.807  44.135  52.791  1.00  0.00    -0.309 N 
HETATM    9  O   UNL     1      27.372  44.985  50.695  1.00  0.00    -0.247 OA
HETATM   10  H   UNL     1      26.003  43.706  53.225  1.00  0.00     0.170 HD
HETATM   11  H   UNL     1      24.738  45.294  52.257  1.00  0.00     0.164 HD
BRANCH   8  12
HETATM   12  C   UNL     1      28.062  43.843  53.359  1.00  0.00     0.036 A 
HETATM   13  C   UNL     1      28.563  44.488  54.494  1.00  0.00     0.036 A 
HETATM   14  C   UNL     1      29.808  44.126  55.035  1.00  0.00    -0.060 A 
HETATM   15  C   UNL     1      30.340  44.835  56.244  1.00  0.00     0.048 C 
HETATM   16  C   UNL     1      30.566  43.134  54.405  1.00  0.00     0.007 A 
HETATM   17  C   UNL     1      30.071  42.483  53.275  1.00  0.00     0.003 A 
HETATM   18  C   UNL     1      28.819  42.829  52.763  1.00  0.00     0.029 A 
ENDBRANCH   8  12
ENDBRANCH   5   6
ENDBRANCH   1   5
BRANCH   2  19
HETATM   19  C   UNL     1      23.198  48.803  48.981  1.00  0.00     0.041 A 
HETATM   20  C   UNL     1      24.005  49.851  48.489  1.00  0.00    -0.035 A 
HETATM   21  C   UNL     1      25.473  49.674  48.203  1.00  0.00     0.050 C 
HETATM   22  C   UNL     1      23.431  51.112  48.263  1.00  0.00     0.010 A 
HETATM   23  C   UNL     1      22.077  51.336  48.508  1.00  0.00     0.016 A 
HETATM   24  C   UNL     1      21.262  50.307  48.991  1.00  0.00     0.019 A 
HETATM   25  C   UNL     1      21.839  49.047  49.225  1.00  0.00     0.046 A 
BRANCH  24  26
HETATM   26  C   UNL     1      19.836  50.510  49.240  1.00  0.00     0.179 A 
HETATM   27  O   UNL     1      19.454  51.758  49.673  1.00  0.00    -0.302 OA
HETATM   28  C   UNL     1      18.102  51.665  49.810  1.00  0.00     0.163 A 
HETATM   29  C   UNL     1      17.727  50.394  49.465  1.00  0.00     0.144 A 
HETATM   30  N   UNL     1      18.830  49.666  49.101  1.00  0.00    -0.234 NA
ENDBRANCH  24  26
ENDBRANCH   2  19
TORSDOF 5
ENDMDL
MODEL 4
REMARK VINA RESULT:      -9.3      2.084      3.045
REMARK  5 active torsions:
REMARK  status: ('A' for Active; 'I' for Inactive)
REMARK    1  A    between atoms: C_4  and  N_5 
REMARK       I    between atoms: N_5  and  C_6 
REMARK       I    between atoms: C_6  and  N_7 
REMARK    2  A    between atoms: N_7  and  C_8 
REMARK    3  A    between atoms: C_8  and  C_9 
REMARK       I    between atoms: C_9  and  N_10 
REMARK    4  A    between atoms: N_10  and  C_11 
REMARK    5  A    between atoms: C_16  and  C_17 
ROOT
HETATM    1  C   UNL     1      25.115  44.228  51.623  1.00  0.00     0.239 C 
HETATM    2  N   UNL     1      25.092  44.650  50.304  1.00  0.00    -0.325 N 
HETATM    3  O   UNL     1      24.345  44.560  52.518  1.00  0.00    -0.271 OA
HETATM    4  H   UNL     1      25.964  44.499  49.796  1.00  0.00     0.169 HD
ENDROOT
BRANCH   1   5
HETATM    5  C   UNL     1      26.307  43.311  51.919  1.00  0.00     0.227 C 
BRANCH   5   6
HETATM    6  N   UNL     1      27.432  44.046  52.468  1.00  0.00    -0.334 N 
HETATM    7  C   UNL     1      27.748  43.916  53.804  1.00  0.00     0.321 C 
HETATM    8  N   UNL     1      28.788  44.746  54.142  1.00  0.00    -0.309 N 
HETATM    9  O   UNL     1      27.128  43.157  54.540  1.00  0.00    -0.247 OA
HETATM   10  H   UNL     1      28.941  45.515  53.505  1.00  0.00     0.170 HD
HETATM   11  H   UNL     1      28.220  44.176  51.848  1.00  0.00     0.164 HD
BRANCH   8  12
HETATM   12  C   UNL     1      29.472  44.798  55.371  1.00  0.00     0.036 A 
HETATM   13  C   UNL     1      30.481  43.899  55.730  1.00  0.00     0.036 A 
HETATM   14  C   UNL     1      31.153  44.026  56.957  1.00  0.00    -0.060 A 
HETATM   15  C   UNL     1      32.223  43.046  57.336  1.00  0.00     0.048 C 
HETATM   16  C   UNL     1      30.778  45.043  57.841  1.00  0.00     0.007 A 
HETATM   17  C   UNL     1      29.776  45.946  57.488  1.00  0.00     0.003 A 
HETATM   18  C   UNL     1      29.135  45.831  56.254  1.00  0.00     0.029 A 
ENDBRANCH   8  12
ENDBRANCH   5   6
ENDBRANCH   1   5
BRANCH   2  19
HETATM   19  C   UNL     1      24.070  45.355  49.631  1.00  0.00     0.041 A 
HETATM   20  C   UNL     1      22.978  44.629  49.108  1.00  0.00    -0.035 A 
HETATM   21  C   UNL     1      22.890  43.128  49.197  1.00  0.00     0.050 C 
HETATM   22  C   UNL     1      21.935  45.319  48.472  1.00  0.00     0.010 A 
HETATM   23  C   UNL     1      21.961  46.709  48.360  1.00  0.00     0.016 A 
HETATM   24  C   UNL     1      23.032  47.444  48.878  1.00  0.00     0.019 A 
HETATM   25  C   UNL     1      24.080  46.751  49.508  1.00  0.00     0.046 A 
BRANCH  24  26
HETATM   26  C   UNL     1      23.076  48.903  48.790  1.00  0.00     0.179 A 
HETATM   27  O   UNL     1      23.552  49.439  47.617  1.00  0.00    -0.302 OA
HETATM   28  C   UNL     1      23.471  50.785  47.807  1.00  0.00     0.163 A 
HETATM   29  C   UNL     1      22.963  51.007  49.059  1.00  0.00     0.144 A 
HETATM   30  N   UNL     1      22.710  49.809  49.678  1.00  0.00    -0.234 NA
ENDBRANCH  24  26
ENDBRANCH   2  19
TORSDOF 5
ENDMDL
MODEL 5
REMARK VINA RESULT:      -9.1      2.261      3.623
REMARK  5 active torsions:
REMARK  status: ('A' for Active; 'I' for Inactive)
REMARK    1  A    between atoms: C_4  and  N_5 
REMARK       I    between atoms: N_5  and  C_6 
REMARK       I    between atoms: C_6  and  N_7 
REMARK    2  A    between atoms: N_7  and  C_8 
REMARK    3  A    between atoms: C_8  and  C_9 
REMARK       I    between atoms: C_9  and  N_10 
REMARK    4  A    between atoms: N_10  and  C_11 
REMARK    5  A    between atoms: C_16  and  C_17 
ROOT
HETATM    1  C   UNL     1      23.069  46.405  48.886  1.00  0.00     0.239 C 
HETATM    2  N   UNL     1      23.138  47.575  49.623  1.00  0.00    -0.325 N 
HETATM    3  O   UNL     1      22.368  46.192  47.902  1.00  0.00    -0.271 OA
HETATM    4  H   UNL     1      23.545  47.467  50.553  1.00  0.00     0.169 HD
ENDROOT
BRANCH   1   5
HETATM    5  C   UNL     1      23.936  45.291  49.482  1.00  0.00     0.227 C 
BRANCH   5   6
HETATM    6  N   UNL     1      24.171  45.488  50.901  1.00  0.00    -0.334 N 
HETATM    7  C   UNL     1      25.462  45.543  51.380  1.00  0.00     0.321 C 
HETATM    8  N   UNL     1      25.470  45.655  52.748  1.00  0.00    -0.309 N 
HETATM    9  O   UNL     1      26.429  45.476  50.630  1.00  0.00    -0.247 OA
HETATM   10  H   UNL     1      24.616  45.366  53.202  1.00  0.00     0.170 HD
HETATM   11  H   UNL     1      23.505  46.078  51.381  1.00  0.00     0.164 HD
BRANCH   8  12
HETATM   12  C   UNL     1      26.586  45.871  53.580  1.00  0.00     0.036 A 
HETATM   13  C   UNL     1      27.516  44.875  53.894  1.00  0.00     0.036 A 
HETATM   14  C   UNL     1      28.630  45.162  54.700  1.00  0.00    -0.060 A 
HETATM   15  C   UNL     1      29.613  44.082  55.040  1.00  0.00     0.048 C 
HETATM   16  C   UNL     1      28.785  46.451  55.221  1.00  0.00     0.007 A 
HETATM   17  C   UNL     1      27.863  47.449  54.909  1.00  0.00     0.003 A 
HETATM   18  C   UNL     1      26.776  47.163  54.083  1.00  0.00     0.029 A 
ENDBRANCH   8  12
ENDBRANCH   5   6
ENDBRANCH   1   5
BRANCH   2  19
HETATM   19  C   UNL     1      22.619  48.847  49.294  1.00  0.00     0.041 A 
HETATM   20  C   UNL     1      23.496  49.825  48.778  1.00  0.00    -0.035 A 
HETATM   21  C   UNL     1      24.973  49.578  48.616  1.00  0.00     0.050 C 
HETATM   22  C   UNL     1      22.987  51.079  48.409  1.00  0.00     0.010 A 
HETATM   23  C   UNL     1      21.628  51.365  48.535  1.00  0.00     0.016 A 
HETATM   24  C   UNL     1      20.744  50.406  49.039  1.00  0.00     0.019 A 
HETATM   25  C   UNL     1      21.256  49.152  49.416  1.00  0.00     0.046 A 
BRANCH  24  26
HETATM   26  C   UNL     1      19.312  50.673  49.166  1.00  0.00     0.179 A 
HETATM   27  O   UNL     1      18.462  49.833  48.485  1.00  0.00    -0.302 OA
HETATM   28  C   UNL     1      17.218  50.300  48.786  1.00  0.00     0.163 A 
HETATM   29  C   UNL     1      17.360  51.380  49.617  1.00  0.00     0.144 A 
HETATM   30  N   UNL     1      18.690  51.610  49.857  1.00  0.00    -0.234 NA
ENDBRANCH  24  26
ENDBRANCH   2  19
TORSDOF 5
ENDMDL
MODEL 6
REMARK VINA RESULT:      -9.1      4.635      9.062
REMARK  5 active torsions:
REMARK  status: ('A' for Active; 'I' for Inactive)
REMARK    1  A    between atoms: C_4  and  N_5 
REMARK       I    between atoms: N_5  and  C_6 
REMARK       I    between atoms: C_6  and  N_7 
REMARK    2  A    between atoms: N_7  and  C_8 
REMARK    3  A    between atoms: C_8  and  C_9 
REMARK       I    between atoms: C_9  and  N_10 
REMARK    4  A    between atoms: N_10  and  C_11 
REMARK    5  A    between atoms: C_16  and  C_17 
ROOT
HETATM    1  C   UNL     1      25.336  44.158  52.764  1.00  0.00     0.239 C 
HETATM    2  N   UNL     1      26.626  44.656  52.692  1.00  0.00    -0.325 N 
HETATM    3  O   UNL     1      24.665  43.989  53.778  1.00  0.00    -0.271 OA
HETATM    4  H   UNL     1      27.109  44.453  51.816  1.00  0.00     0.169 HD
ENDROOT
BRANCH   1   5
HETATM    5  C   UNL     1      24.799  43.733  51.394  1.00  0.00     0.227 C 
BRANCH   5   6
HETATM    6  N   UNL     1      25.022  42.321  51.139  1.00  0.00    -0.334 N 
HETATM    7  C   UNL     1      26.138  41.921  50.434  1.00  0.00     0.321 C 
HETATM    8  N   UNL     1      26.126  40.562  50.234  1.00  0.00    -0.309 N 
HETATM    9  O   UNL     1      26.978  42.725  50.051  1.00  0.00    -0.247 OA
HETATM   10  H   UNL     1      25.219  40.129  50.325  1.00  0.00     0.170 HD
HETATM   11  H   UNL     1      24.720  41.688  51.867  1.00  0.00     0.164 HD
BRANCH   8  12
HETATM   12  C   UNL     1      27.151  39.774  49.676  1.00  0.00     0.036 A 
HETATM   13  C   UNL     1      28.208  39.246  50.422  1.00  0.00     0.036 A 
HETATM   14  C   UNL     1      29.181  38.435  49.815  1.00  0.00    -0.060 A 
HETATM   15  C   UNL     1      30.318  37.886  50.623  1.00  0.00     0.048 C 
HETATM   16  C   UNL     1      29.105  38.187  48.440  1.00  0.00     0.007 A 
HETATM   17  C   UNL     1      28.050  38.707  47.691  1.00  0.00     0.003 A 
HETATM   18  C   UNL     1      27.072  39.487  48.309  1.00  0.00     0.029 A 
ENDBRANCH   8  12
ENDBRANCH   5   6
ENDBRANCH   1   5
BRANCH   2  19
HETATM   19  C   UNL     1      27.375  45.292  53.705  1.00  0.00     0.041 A 
HETATM   20  C   UNL     1      27.038  46.613  54.069  1.00  0.00    -0.035 A 
HETATM   21  C   UNL     1      25.943  47.386  53.380  1.00  0.00     0.050 C 
HETATM   22  C   UNL     1      27.747  47.244  55.103  1.00  0.00     0.010 A 
HETATM   23  C   UNL     1      28.770  46.579  55.778  1.00  0.00     0.016 A 
HETATM   24  C   UNL     1      29.113  45.268  55.434  1.00  0.00     0.019 A 
HETATM   25  C   UNL     1      28.408  44.639  54.393  1.00  0.00     0.046 A 
BRANCH  24  26
HETATM   26  C   UNL     1      30.170  44.542  56.137  1.00  0.00     0.179 A 
HETATM   27  O   UNL     1      30.551  45.034  57.363  1.00  0.00    -0.302 OA
HETATM   28  C   UNL     1      31.519  44.175  57.783  1.00  0.00     0.163 A 
HETATM   29  C   UNL     1      31.686  43.218  56.817  1.00  0.00     0.144 A 
HETATM   30  N   UNL     1      30.824  43.453  55.776  1.00  0.00    -0.234 NA
ENDBRANCH  24  26
ENDBRANCH   2  19
TORSDOF 5
ENDMDL
MODEL 7
REMARK VINA RESULT:      -9.0      1.939     10.552
REMARK  5 active torsions:
REMARK  status: ('A' for Active; 'I' for Inactive)
REMARK    1  A    between atoms: C_4  and  N_5 
REMARK       I    between atoms: N_5  and  C_6 
REMARK       I    between atoms: C_6  and  N_7 
REMARK    2  A    between atoms: N_7  and  C_8 
REMARK    3  A    between atoms: C_8  and  C_9 
REMARK       I    between atoms: C_9  and  N_10 
REMARK    4  A    between atoms: N_10  and  C_11 
REMARK    5  A    between atoms: C_16  and  C_17 
ROOT
HETATM    1  C   UNL     1      25.686  46.024  51.337  1.00  0.00     0.239 C 
HETATM    2  N   UNL     1      26.469  44.928  51.017  1.00  0.00    -0.325 N 
HETATM    3  O   UNL     1      25.201  46.290  52.432  1.00  0.00    -0.271 OA
HETATM    4  H   UNL     1      26.531  44.729  50.017  1.00  0.00     0.169 HD
ENDROOT
BRANCH   1   5
HETATM    5  C   UNL     1      25.384  46.900  50.117  1.00  0.00     0.227 C 
BRANCH   5   6
HETATM    6  N   UNL     1      23.957  47.093  49.928  1.00  0.00    -0.334 N 
HETATM    7  C   UNL     1      23.477  48.331  49.558  1.00  0.00     0.321 C 
HETATM    8  N   UNL     1      22.105  48.327  49.508  1.00  0.00    -0.309 N 
HETATM    9  O   UNL     1      24.230  49.272  49.337  1.00  0.00    -0.247 OA
HETATM   10  H   UNL     1      21.665  47.584  50.030  1.00  0.00     0.170 HD
HETATM   11  H   UNL     1      23.450  46.302  49.554  1.00  0.00     0.164 HD
BRANCH   8  12
HETATM   12  C   UNL     1      21.266  49.358  49.045  1.00  0.00     0.036 A 
HETATM   13  C   UNL     1      20.634  49.336  47.798  1.00  0.00     0.036 A 
HETATM   14  C   UNL     1      19.778  50.379  47.408  1.00  0.00    -0.060 A 
HETATM   15  C   UNL     1      19.118  50.350  46.062  1.00  0.00     0.048 C 
HETATM   16  C   UNL     1      19.589  51.466  48.267  1.00  0.00     0.007 A 
HETATM   17  C   UNL     1      20.212  51.493  49.514  1.00  0.00     0.003 A 
HETATM   18  C   UNL     1      21.037  50.438  49.905  1.00  0.00     0.029 A 
ENDBRANCH   8  12
ENDBRANCH   5   6
ENDBRANCH   1   5
BRANCH   2  19
HETATM   19  C   UNL     1      27.081  44.005  51.893  1.00  0.00     0.041 A 
HETATM   20  C   UNL     1      26.853  42.627  51.692  1.00  0.00    -0.035 A 
HETATM   21  C   UNL     1      25.941  42.109  50.611  1.00  0.00     0.050 C 
HETATM   22  C   UNL     1      27.486  41.696  52.529  1.00  0.00     0.010 A 
HETATM   23  C   UNL     1      28.342  42.115  53.547  1.00  0.00     0.016 A 
HETATM   24  C   UNL     1      28.584  43.477  53.756  1.00  0.00     0.019 A 
HETATM   25  C   UNL     1      27.943  44.409  52.922  1.00  0.00     0.046 A 
BRANCH  24  26
HETATM   26  C   UNL     1      29.490  43.943  54.805  1.00  0.00     0.179 A 
HETATM   27  O   UNL     1      29.234  45.184  55.339  1.00  0.00    -0.302 OA
HETATM   28  C   UNL     1      30.206  45.352  56.278  1.00  0.00     0.163 A 
HETATM   29  C   UNL     1      30.997  44.233  56.274  1.00  0.00     0.144 A 
HETATM   30  N   UNL     1      30.536  43.341  55.341  1.00  0.00    -0.234 NA
ENDBRANCH  24  26
ENDBRANCH   2  19
TORSDOF 5
ENDMDL
MODEL 8
REMARK VINA RESULT:      -8.8      1.766     10.559
REMARK  5 active torsions:
REMARK  status: ('A' for Active; 'I' for Inactive)
REMARK    1  A    between atoms: C_4  and  N_5 
REMARK       I    between atoms: N_5  and  C_6 
REMARK       I    between atoms: C_6  and  N_7 
REMARK    2  A    between atoms: N_7  and  C_8 
REMARK    3  A    between atoms: C_8  and  C_9 
REMARK       I    between atoms: C_9  and  N_10 
REMARK    4  A    between atoms: N_10  and  C_11 
REMARK    5  A    between atoms: C_16  and  C_17 
ROOT
HETATM    1  C   UNL     1      26.038  47.933  49.488  1.00  0.00     0.239 C 
HETATM    2  N   UNL     1      25.302  47.547  50.595  1.00  0.00    -0.325 N 
HETATM    3  O   UNL     1      27.152  47.533  49.165  1.00  0.00    -0.271 OA
HETATM    4  H   UNL     1      24.548  48.188  50.847  1.00  0.00     0.169 HD
ENDROOT
BRANCH   1   5
HETATM    5  C   UNL     1      25.341  49.034  48.681  1.00  0.00     0.227 C 
BRANCH   5   6
HETATM    6  N   UNL     1      23.938  49.158  49.033  1.00  0.00    -0.334 N 
HETATM    7  C   UNL     1      23.101  49.924  48.251  1.00  0.00     0.321 C 
HETATM    8  N   UNL     1      21.841  49.977  48.793  1.00  0.00    -0.309 N 
HETATM    9  O   UNL     1      23.499  50.474  47.231  1.00  0.00    -0.247 OA
HETATM   10  H   UNL     1      21.792  49.750  49.775  1.00  0.00     0.170 HD
HETATM   11  H   UNL     1      23.514  48.340  49.449  1.00  0.00     0.164 HD
BRANCH   8  12
HETATM   12  C   UNL     1      20.689  50.547  48.218  1.00  0.00     0.036 A 
HETATM   13  C   UNL     1      20.030  50.003  47.112  1.00  0.00     0.036 A 
HETATM   14  C   UNL     1      18.862  50.599  46.607  1.00  0.00    -0.060 A 
HETATM   15  C   UNL     1      18.173  50.013  45.410  1.00  0.00     0.048 C 
HETATM   16  C   UNL     1      18.380  51.771  47.199  1.00  0.00     0.007 A 
HETATM   17  C   UNL     1      19.030  52.317  48.305  1.00  0.00     0.003 A 
HETATM   18  C   UNL     1      20.172  51.700  48.819  1.00  0.00     0.029 A 
ENDBRANCH   8  12
ENDBRANCH   5   6
ENDBRANCH   1   5
BRANCH   2  19
HETATM   19  C   UNL     1      25.538  46.461  51.465  1.00  0.00     0.041 A 
HETATM   20  C   UNL     1      24.880  45.237  51.216  1.00  0.00    -0.035 A 
HETATM   21  C   UNL     1      23.897  45.065  50.088  1.00  0.00     0.050 C 
HETATM   22  C   UNL     1      25.136  44.137  52.048  1.00  0.00     0.010 A 
HETATM   23  C   UNL     1      26.037  44.236  53.108  1.00  0.00     0.016 A 
HETATM   24  C   UNL     1      26.702  45.439  53.366  1.00  0.00     0.019 A 
HETATM   25  C   UNL     1      26.439  46.543  52.536  1.00  0.00     0.046 A 
BRANCH  24  26
HETATM   26  C   UNL     1      27.665  45.565  54.459  1.00  0.00     0.179 A 
HETATM   27  O   UNL     1      27.421  46.548  55.389  1.00  0.00    -0.302 OA
HETATM   28  C   UNL     1      28.447  46.432  56.276  1.00  0.00     0.163 A 
HETATM   29  C   UNL     1      29.255  45.407  55.859  1.00  0.00     0.144 A 
HETATM   30  N   UNL     1      28.752  44.858  54.707  1.00  0.00    -0.234 NA
ENDBRANCH  24  26
ENDBRANCH   2  19
TORSDOF 5
ENDMDL
MODEL 9
REMARK VINA RESULT:      -8.6      2.801      5.370
REMARK  5 active torsions:
REMARK  status: ('A' for Active; 'I' for Inactive)
REMARK    1  A    between atoms: C_4  and  N_5 
REMARK       I    between atoms: N_5  and  C_6 
REMARK       I    between atoms: C_6  and  N_7 
REMARK    2  A    between atoms: N_7  and  C_8 
REMARK    3  A    between atoms: C_8  and  C_9 
REMARK       I    between atoms: C_9  and  N_10 
REMARK    4  A    between atoms: N_10  and  C_11 
REMARK    5  A    between atoms: C_16  and  C_17 
ROOT
HETATM    1  C   UNL     1      22.501  48.313  48.709  1.00  0.00     0.239 C 
HETATM    2  N   UNL     1      21.414  48.221  49.561  1.00  0.00    -0.325 N 
HETATM    3  O   UNL     1      22.483  48.281  47.482  1.00  0.00    -0.271 OA
HETATM    4  H   UNL     1      21.650  47.977  50.524  1.00  0.00     0.169 HD
ENDROOT
BRANCH   1   5
HETATM    5  C   UNL     1      23.830  48.385  49.467  1.00  0.00     0.227 C 
BRANCH   5   6
HETATM    6  N   UNL     1      24.024  47.234  50.331  1.00  0.00    -0.334 N 
HETATM    7  C   UNL     1      25.235  47.050  50.964  1.00  0.00     0.321 C 
HETATM    8  N   UNL     1      25.242  45.871  51.668  1.00  0.00    -0.309 N 
HETATM    9  O   UNL     1      26.147  47.860  50.855  1.00  0.00    -0.247 OA
HETATM   10  H   UNL     1      24.547  45.199  51.376  1.00  0.00     0.170 HD
HETATM   11  H   UNL     1      23.212  46.932  50.852  1.00  0.00     0.164 HD
BRANCH   8  12
HETATM   12  C   UNL     1      26.243  45.406  52.542  1.00  0.00     0.036 A 
HETATM   13  C   UNL     1      27.217  44.475  52.172  1.00  0.00     0.036 A 
HETATM   14  C   UNL     1      28.213  44.077  53.079  1.00  0.00    -0.060 A 
HETATM   15  C   UNL     1      29.244  43.067  52.673  1.00  0.00     0.048 C 
HETATM   16  C   UNL     1      28.201  44.595  54.378  1.00  0.00     0.007 A 
HETATM   17  C   UNL     1      27.235  45.527  54.754  1.00  0.00     0.003 A 
HETATM   18  C   UNL     1      26.268  45.939  53.836  1.00  0.00     0.029 A 
ENDBRANCH   8  12
ENDBRANCH   5   6
ENDBRANCH   1   5
BRANCH   2  19
HETATM   19  C   UNL     1      20.042  48.304  49.239  1.00  0.00     0.041 A 
HETATM   20  C   UNL     1      19.373  47.135  48.816  1.00  0.00    -0.035 A 
HETATM   21  C   UNL     1      20.081  45.817  48.647  1.00  0.00     0.050 C 
HETATM   22  C   UNL     1      18.000  47.194  48.532  1.00  0.00     0.010 A 
HETATM   23  C   UNL     1      17.291  48.386  48.671  1.00  0.00     0.016 A 
HETATM   24  C   UNL     1      17.937  49.552  49.094  1.00  0.00     0.019 A 
HETATM   25  C   UNL     1      19.314  49.495  49.371  1.00  0.00     0.046 A 
BRANCH  24  26
HETATM   26  C   UNL     1      17.214  50.812  49.264  1.00  0.00     0.179 A 
HETATM   27  O   UNL     1      16.103  51.001  48.475  1.00  0.00    -0.302 OA
HETATM   28  C   UNL     1      15.634  52.224  48.846  1.00  0.00     0.163 A 
HETATM   29  C   UNL     1      16.460  52.718  49.821  1.00  0.00     0.144 A 
HETATM   30  N   UNL     1      17.458  51.816  50.086  1.00  0.00    -0.234 NA
ENDBRANCH  24  26
ENDBRANCH   2  19
TORSDOF 5
ENDMDL
MODEL 10
REMARK VINA RESULT:      -8.4      4.756     10.325
REMARK  5 active torsions:
REMARK  status: ('A' for Active; 'I' for Inactive)
REMARK    1  A    between atoms: C_4  and  N_5 
REMARK       I    between atoms: N_5  and  C_6 
REMARK       I    between atoms: C_6  and  N_7 
REMARK    2  A    between atoms: N_7  and  C_8 
REMARK    3  A    between atoms: C_8  and  C_9 
REMARK       I    between atoms: C_9  and  N_10 
REMARK    4  A    between atoms: N_10  and  C_11 
REMARK    5  A    between atoms: C_16  and  C_17 
ROOT
HETATM    1  C   UNL     1      22.175  44.969  48.168  1.00  0.00     0.239 C 
HETATM    2  N   UNL     1      22.917  45.305  49.287  1.00  0.00    -0.325 N 
HETATM    3  O   UNL     1      22.603  44.717  47.046  1.00  0.00    -0.271 OA
HETATM    4  H   UNL     1      22.382  45.754  50.032  1.00  0.00     0.169 HD
ENDROOT
BRANCH   1   5
HETATM    5  C   UNL     1      20.667  45.017  48.434  1.00  0.00     0.227 C 
BRANCH   5   6
HETATM    6  N   UNL     1      20.298  46.156  49.256  1.00  0.00    -0.334 N 
HETATM    7  C   UNL     1      20.108  47.390  48.670  1.00  0.00     0.321 C 
HETATM    8  N   UNL     1      19.843  48.344  49.621  1.00  0.00    -0.309 N 
HETATM    9  O   UNL     1      20.199  47.547  47.459  1.00  0.00    -0.247 OA
HETATM   10  H   UNL     1      20.132  48.102  50.557  1.00  0.00     0.170 HD
HETATM   11  H   UNL     1      19.699  45.955  50.046  1.00  0.00     0.164 HD
BRANCH   8  12
HETATM   12  C   UNL     1      19.466  49.684  49.402  1.00  0.00     0.036 A 
HETATM   13  C   UNL     1      18.204  50.191  49.726  1.00  0.00     0.036 A 
HETATM   14  C   UNL     1      17.901  51.547  49.518  1.00  0.00    -0.060 A 
HETATM   15  C   UNL     1      16.539  52.076  49.856  1.00  0.00     0.048 C 
HETATM   16  C   UNL     1      18.865  52.384  48.946  1.00  0.00     0.007 A 
HETATM   17  C   UNL     1      20.126  51.886  48.625  1.00  0.00     0.003 A 
HETATM   18  C   UNL     1      20.428  50.544  48.863  1.00  0.00     0.029 A 
ENDBRANCH   8  12
ENDBRANCH   5   6
ENDBRANCH   1   5
BRANCH   2  19
HETATM   19  C   UNL     1      24.314  45.209  49.470  1.00  0.00     0.041 A 
HETATM   20  C   UNL     1      25.045  46.387  49.731  1.00  0.00    -0.035 A 
HETATM   21  C   UNL     1      24.398  47.747  49.770  1.00  0.00     0.050 C 
HETATM   22  C   UNL     1      26.428  46.303  49.955  1.00  0.00     0.010 A 
HETATM   23  C   UNL     1      27.083  45.072  49.933  1.00  0.00     0.016 A 
HETATM   24  C   UNL     1      26.372  43.894  49.682  1.00  0.00     0.019 A 
HETATM   25  C   UNL     1      24.989  43.980  49.449  1.00  0.00     0.046 A 
BRANCH  24  26
HETATM   26  C   UNL     1      27.031  42.588  49.670  1.00  0.00     0.179 A 
HETATM   27  O   UNL     1      27.357  42.070  48.439  1.00  0.00    -0.302 OA
HETATM   28  C   UNL     1      27.954  40.880  48.725  1.00  0.00     0.163 A 
HETATM   29  C   UNL     1      27.964  40.726  50.086  1.00  0.00     0.144 A 
HETATM   30  N   UNL     1      27.380  41.814  50.681  1.00  0.00    -0.234 NA
ENDBRANCH  24  26
ENDBRANCH   2  19
TORSDOF 5
ENDMDL
