MODEL 1
REMARK VINA RESULT:      -8.1      0.000      0.000
REMARK  8 active torsions:
REMARK  status: ('A' for Active; 'I' for Inactive)
REMARK    1  A    between atoms: C_2  and  O_3 
REMARK    2  A    between atoms: O_3  and  C_4 
REMARK    3  A    between atoms: C_4  and  C_5 
REMARK    4  A    between atoms: C_5  and  C_6 
REMARK    5  A    between atoms: C_6  and  N_7 
REMARK    6  A    between atoms: C_12  and  C_13 
REMARK    7  A    between atoms: C_23  and  C_24 
REMARK    8  A    between atoms: C_25  and  O_26 
ROOT
HETATM    1  N   UNL     1      26.702  41.820  51.019  1.00  0.00    -0.334 N 
HETATM    2  C   UNL     1      27.937  41.169  50.995  1.00  0.00     0.273 A 
HETATM    3  O   UNL     1      28.280  40.206  50.332  1.00  0.00    -0.266 OA
HETATM    4  C   UNL     1      28.693  41.866  51.966  1.00  0.00     0.129 A 
HETATM    5  C   UNL     1      27.998  42.876  52.563  1.00  0.00     0.034 A 
HETATM    6  C   UNL     1      26.629  42.941  51.995  1.00  0.00     0.159 A 
HETATM    7  N   UNL     1      29.919  41.828  52.500  1.00  0.00    -0.272 N 
HETATM    8  H   UNL     1      30.692  41.202  52.290  1.00  0.00     0.189 HD
HETATM    9  N   UNL     1      30.075  42.788  53.446  1.00  0.00    -0.173 NA
HETATM   10  C   UNL     1      28.880  43.438  53.507  1.00  0.00     0.101 A 
ENDROOT
BRANCH  10  11
HETATM   11  C   UNL     1      28.690  44.554  54.449  1.00  0.00     0.028 A 
HETATM   12  C   UNL     1      29.535  44.730  55.563  1.00  0.00     0.078 A 
HETATM   13  C   UNL     1      29.372  45.799  56.444  1.00  0.00     0.037 A 
HETATM   14  C   UNL     1      28.351  46.720  56.234  1.00  0.00     0.003 A 
HETATM   15  C   UNL     1      27.493  46.564  55.148  1.00  0.00     0.001 A 
HETATM   16  C   UNL     1      27.657  45.487  54.268  1.00  0.00     0.017 A 
BRANCH  12  17
HETATM   17  O   UNL     1      30.563  43.869  55.860  1.00  0.00    -0.360 OA
HETATM   18  H   UNL     1      30.399  43.058  55.326  1.00  0.00     0.217 HD
ENDBRANCH  12  17
ENDBRANCH  10  11
BRANCH   6  19
HETATM   19  C   UNL     1      26.418  44.287  51.335  1.00  0.00    -0.031 A 
HETATM   20  C   UNL     1      27.188  44.753  50.252  1.00  0.00     0.011 A 
HETATM   21  C   UNL     1      26.940  46.004  49.680  1.00  0.00     0.024 A 
HETATM   22  C   UNL     1      25.904  46.797  50.165  1.00  0.00     0.034 A 
HETATM   23 CL   UNL     1      25.597  48.335  49.459  1.00  0.00    -0.084 Cl
HETATM   24  C   UNL     1      25.110  46.346  51.215  1.00  0.00     0.024 A 
HETATM   25  C   UNL     1      25.363  45.099  51.791  1.00  0.00     0.011 A 
ENDBRANCH   6  19
BRANCH   1  26
HETATM   26  C   UNL     1      25.539  41.355  50.286  1.00  0.00     0.129 C 
BRANCH  26  27
HETATM   27  C   UNL     1      25.534  41.775  48.814  1.00  0.00     0.046 C 
BRANCH  27  28
HETATM   28  C   UNL     1      24.167  42.203  48.290  1.00  0.00     0.169 C 
BRANCH  28  29
HETATM   29  O   UNL     1      24.117  43.625  48.202  1.00  0.00    -0.387 OA
BRANCH  29  30
HETATM   30  C   UNL     1      22.840  44.186  48.527  1.00  0.00     0.113 C 
HETATM   31  C   UNL     1      22.836  45.710  48.439  1.00  0.00     0.039 C 
HETATM   32  C   UNL     1      22.518  43.748  49.952  1.00  0.00     0.039 C 
ENDBRANCH  29  30
ENDBRANCH  28  29
ENDBRANCH  27  28
ENDBRANCH  26  27
ENDBRANCH   1  26
TORSDOF 8
ENDMDL
MODEL 2
REMARK VINA RESULT:      -8.0      1.381      2.443
REMARK  8 active torsions:
REMARK  status: ('A' for Active; 'I' for Inactive)
REMARK    1  A    between atoms: C_2  and  O_3 
REMARK    2  A    between atoms: O_3  and  C_4 
REMARK    3  A    between atoms: C_4  and  C_5 
REMARK    4  A    between atoms: C_5  and  C_6 
REMARK    5  A    between atoms: C_6  and  N_7 
REMARK    6  A    between atoms: C_12  and  C_13 
REMARK    7  A    between atoms: C_23  and  C_24 
REMARK    8  A    between atoms: C_25  and  O_26 
ROOT
HETATM    1  N   UNL     1      26.754  41.779  51.092  1.00  0.00    -0.334 N 
HETATM    2  C   UNL     1      28.009  41.167  51.069  1.00  0.00     0.273 A 
HETATM    3  O   UNL     1      28.378  40.205  50.419  1.00  0.00    -0.266 OA
HETATM    4  C   UNL     1      28.750  41.903  52.023  1.00  0.00     0.129 A 
HETATM    5  C   UNL     1      28.027  42.900  52.609  1.00  0.00     0.034 A 
HETATM    6  C   UNL     1      26.652  42.913  52.050  1.00  0.00     0.159 A 
HETATM    7  N   UNL     1      29.980  41.912  52.548  1.00  0.00    -0.272 N 
HETATM    8  H   UNL     1      30.771  41.308  52.342  1.00  0.00     0.189 HD
HETATM    9  N   UNL     1      30.112  42.892  53.477  1.00  0.00    -0.173 NA
HETATM   10  C   UNL     1      28.898  43.505  53.537  1.00  0.00     0.101 A 
ENDROOT
BRANCH  10  11
HETATM   11  C   UNL     1      28.679  44.629  54.463  1.00  0.00     0.028 A 
HETATM   12  C   UNL     1      29.501  44.826  55.590  1.00  0.00     0.078 A 
HETATM   13  C   UNL     1      29.312  45.904  56.455  1.00  0.00     0.037 A 
HETATM   14  C   UNL     1      28.286  46.812  56.216  1.00  0.00     0.003 A 
HETATM   15  C   UNL     1      27.449  46.634  55.117  1.00  0.00     0.001 A 
HETATM   16  C   UNL     1      27.640  45.550  54.253  1.00  0.00     0.017 A 
BRANCH  12  17
HETATM   17  O   UNL     1      30.533  43.980  55.915  1.00  0.00    -0.360 OA
HETATM   18  H   UNL     1      31.144  43.989  55.142  1.00  0.00     0.217 HD
ENDBRANCH  12  17
ENDBRANCH  10  11
BRANCH   6  19
HETATM   19  C   UNL     1      26.395  44.240  51.370  1.00  0.00    -0.031 A 
HETATM   20  C   UNL     1      27.213  44.766  50.352  1.00  0.00     0.011 A 
HETATM   21  C   UNL     1      26.918  45.997  49.758  1.00  0.00     0.024 A 
HETATM   22  C   UNL     1      25.789  46.707  50.154  1.00  0.00     0.034 A 
HETATM   23 CL   UNL     1      25.425  48.219  49.419  1.00  0.00    -0.084 Cl
HETATM   24  C   UNL     1      24.948  46.195  51.137  1.00  0.00     0.024 A 
HETATM   25  C   UNL     1      25.247  44.969  51.737  1.00  0.00     0.011 A 
ENDBRANCH   6  19
BRANCH   1  26
HETATM   26  C   UNL     1      25.602  41.266  50.375  1.00  0.00     0.129 C 
BRANCH  26  27
HETATM   27  C   UNL     1      25.412  41.891  48.991  1.00  0.00     0.046 C 
BRANCH  27  28
HETATM   28  C   UNL     1      26.047  41.099  47.854  1.00  0.00     0.169 C 
BRANCH  28  29
HETATM   29  O   UNL     1      27.367  41.584  47.616  1.00  0.00    -0.387 OA
BRANCH  29  30
HETATM   30  C   UNL     1      28.202  40.676  46.890  1.00  0.00     0.113 C 
HETATM   31  C   UNL     1      28.216  40.971  45.393  1.00  0.00     0.039 C 
HETATM   32  C   UNL     1      27.646  39.276  47.138  1.00  0.00     0.039 C 
ENDBRANCH  29  30
ENDBRANCH  28  29
ENDBRANCH  27  28
ENDBRANCH  26  27
ENDBRANCH   1  26
TORSDOF 8
ENDMDL
MODEL 3
REMARK VINA RESULT:      -7.6      3.290      7.104
REMARK  8 active torsions:
REMARK  status: ('A' for Active; 'I' for Inactive)
REMARK    1  A    between atoms: C_2  and  O_3 
REMARK    2  A    between atoms: O_3  and  C_4 
REMARK    3  A    between atoms: C_4  and  C_5 
REMARK    4  A    between atoms: C_5  and  C_6 
REMARK    5  A    between atoms: C_6  and  N_7 
REMARK    6  A    between atoms: C_12  and  C_13 
REMARK    7  A    between atoms: C_23  and  C_24 
REMARK    8  A    between atoms: C_25  and  O_26 
ROOT
HETATM    1  N   UNL     1      24.456  43.754  49.198  1.00  0.00    -0.334 N 
HETATM    2  C   UNL     1      23.152  43.300  48.991  1.00  0.00     0.273 A 
HETATM    3  O   UNL     1      22.746  42.155  48.904  1.00  0.00    -0.266 OA
HETATM    4  C   UNL     1      22.407  44.495  48.859  1.00  0.00     0.129 A 
HETATM    5  C   UNL     1      23.173  45.619  48.968  1.00  0.00     0.034 A 
HETATM    6  C   UNL     1      24.587  45.236  49.204  1.00  0.00     0.159 A 
HETATM    7  N   UNL     1      21.142  44.870  48.643  1.00  0.00    -0.272 N 
HETATM    8  H   UNL     1      20.314  44.293  48.513  1.00  0.00     0.189 HD
HETATM    9  N   UNL     1      21.027  46.221  48.603  1.00  0.00    -0.173 NA
HETATM   10  C   UNL     1      22.288  46.701  48.788  1.00  0.00     0.101 A 
ENDROOT
BRANCH  10  11
HETATM   11  C   UNL     1      22.536  48.152  48.796  1.00  0.00     0.028 A 
HETATM   12  C   UNL     1      21.604  49.057  49.342  1.00  0.00     0.078 A 
HETATM   13  C   UNL     1      21.847  50.430  49.373  1.00  0.00     0.037 A 
HETATM   14  C   UNL     1      23.033  50.935  48.850  1.00  0.00     0.003 A 
HETATM   15  C   UNL     1      23.967  50.065  48.291  1.00  0.00     0.001 A 
HETATM   16  C   UNL     1      23.718  48.688  48.260  1.00  0.00     0.017 A 
BRANCH  12  17
HETATM   17  O   UNL     1      20.403  48.656  49.873  1.00  0.00    -0.360 OA
HETATM   18  H   UNL     1      20.092  49.404  50.433  1.00  0.00     0.217 HD
ENDBRANCH  12  17
ENDBRANCH  10  11
BRANCH   6  19
HETATM   19  C   UNL     1      25.043  45.784  50.540  1.00  0.00    -0.031 A 
HETATM   20  C   UNL     1      24.673  45.228  51.778  1.00  0.00     0.011 A 
HETATM   21  C   UNL     1      25.134  45.776  52.979  1.00  0.00     0.024 A 
HETATM   22  C   UNL     1      25.990  46.873  52.958  1.00  0.00     0.034 A 
HETATM   23 CL   UNL     1      26.560  47.544  54.436  1.00  0.00    -0.084 Cl
HETATM   24  C   UNL     1      26.395  47.423  51.746  1.00  0.00     0.024 A 
HETATM   25  C   UNL     1      25.928  46.880  50.547  1.00  0.00     0.011 A 
ENDBRANCH   6  19
BRANCH   1  26
HETATM   26  C   UNL     1      25.610  42.875  49.242  1.00  0.00     0.129 C 
BRANCH  26  27
HETATM   27  C   UNL     1      25.804  42.183  50.593  1.00  0.00     0.046 C 
BRANCH  27  28
HETATM   28  C   UNL     1      27.220  42.283  51.150  1.00  0.00     0.169 C 
BRANCH  28  29
HETATM   29  O   UNL     1      27.234  43.187  52.253  1.00  0.00    -0.387 OA
BRANCH  29  30
HETATM   30  C   UNL     1      28.541  43.646  52.615  1.00  0.00     0.113 C 
HETATM   31  C   UNL     1      29.555  42.508  52.691  1.00  0.00     0.039 C 
HETATM   32  C   UNL     1      28.407  44.313  53.981  1.00  0.00     0.039 C 
ENDBRANCH  29  30
ENDBRANCH  28  29
ENDBRANCH  27  28
ENDBRANCH  26  27
ENDBRANCH   1  26
TORSDOF 8
ENDMDL
MODEL 4
REMARK VINA RESULT:      -7.6     11.665     14.598
REMARK  8 active torsions:
REMARK  status: ('A' for Active; 'I' for Inactive)
REMARK    1  A    between atoms: C_2  and  O_3 
REMARK    2  A    between atoms: O_3  and  C_4 
REMARK    3  A    between atoms: C_4  and  C_5 
REMARK    4  A    between atoms: C_5  and  C_6 
REMARK    5  A    between atoms: C_6  and  N_7 
REMARK    6  A    between atoms: C_12  and  C_13 
REMARK    7  A    between atoms: C_23  and  C_24 
REMARK    8  A    between atoms: C_25  and  O_26 
ROOT
HETATM    1  N   UNL     1      28.786  52.174  39.947  1.00  0.00    -0.334 N 
HETATM    2  C   UNL     1      28.255  52.287  38.661  1.00  0.00     0.273 A 
HETATM    3  O   UNL     1      28.374  53.200  37.863  1.00  0.00    -0.266 OA
HETATM    4  C   UNL     1      27.499  51.101  38.514  1.00  0.00     0.129 A 
HETATM    5  C   UNL     1      27.540  50.299  39.617  1.00  0.00     0.034 A 
HETATM    6  C   UNL     1      28.391  50.928  40.657  1.00  0.00     0.159 A 
HETATM    7  N   UNL     1      26.723  50.513  37.597  1.00  0.00    -0.272 N 
HETATM    8  H   UNL     1      26.475  50.833  36.664  1.00  0.00     0.189 HD
HETATM    9  N   UNL     1      26.236  49.330  38.048  1.00  0.00    -0.173 NA
HETATM   10  C   UNL     1      26.724  49.192  39.312  1.00  0.00     0.101 A 
ENDROOT
BRANCH  10  11
HETATM   11  C   UNL     1      26.384  48.004  40.113  1.00  0.00     0.028 A 
HETATM   12  C   UNL     1      25.060  47.746  40.522  1.00  0.00     0.078 A 
HETATM   13  C   UNL     1      24.730  46.609  41.260  1.00  0.00     0.037 A 
HETATM   14  C   UNL     1      25.723  45.701  41.614  1.00  0.00     0.003 A 
HETATM   15  C   UNL     1      27.042  45.938  41.235  1.00  0.00     0.001 A 
HETATM   16  C   UNL     1      27.369  47.082  40.497  1.00  0.00     0.017 A 
BRANCH  12  17
HETATM   17  O   UNL     1      24.014  48.586  40.230  1.00  0.00    -0.360 OA
HETATM   18  H   UNL     1      24.159  48.886  39.303  1.00  0.00     0.217 HD
ENDBRANCH  12  17
ENDBRANCH  10  11
BRANCH   6  19
HETATM   19  C   UNL     1      29.566  50.024  40.964  1.00  0.00    -0.031 A 
HETATM   20  C   UNL     1      29.822  49.483  42.238  1.00  0.00     0.011 A 
HETATM   21  C   UNL     1      30.922  48.648  42.456  1.00  0.00     0.024 A 
HETATM   22  C   UNL     1      31.767  48.322  41.400  1.00  0.00     0.034 A 
HETATM   23 CL   UNL     1      33.118  47.291  41.668  1.00  0.00    -0.084 Cl
HETATM   24  C   UNL     1      31.519  48.819  40.124  1.00  0.00     0.024 A 
HETATM   25  C   UNL     1      30.424  49.660  39.908  1.00  0.00     0.011 A 
ENDBRANCH   6  19
BRANCH   1  26
HETATM   26  C   UNL     1      29.522  53.239  40.604  1.00  0.00     0.129 C 
BRANCH  26  27
HETATM   27  C   UNL     1      31.039  53.041  40.581  1.00  0.00     0.046 C 
BRANCH  27  28
HETATM   28  C   UNL     1      31.639  52.641  41.925  1.00  0.00     0.169 C 
BRANCH  28  29
HETATM   29  O   UNL     1      32.859  51.935  41.709  1.00  0.00    -0.387 OA
BRANCH  29  30
HETATM   30  C   UNL     1      33.355  51.257  42.868  1.00  0.00     0.113 C 
HETATM   31  C   UNL     1      32.649  51.701  44.146  1.00  0.00     0.039 C 
HETATM   32  C   UNL     1      34.844  51.577  42.960  1.00  0.00     0.039 C 
ENDBRANCH  29  30
ENDBRANCH  28  29
ENDBRANCH  27  28
ENDBRANCH  26  27
ENDBRANCH   1  26
TORSDOF 8
ENDMDL
MODEL 5
REMARK VINA RESULT:      -7.5      1.821      3.176
REMARK  8 active torsions:
REMARK  status: ('A' for Active; 'I' for Inactive)
REMARK    1  A    between atoms: C_2  and  O_3 
REMARK    2  A    between atoms: O_3  and  C_4 
REMARK    3  A    between atoms: C_4  and  C_5 
REMARK    4  A    between atoms: C_5  and  C_6 
REMARK    5  A    between atoms: C_6  and  N_7 
REMARK    6  A    between atoms: C_12  and  C_13 
REMARK    7  A    between atoms: C_23  and  C_24 
REMARK    8  A    between atoms: C_25  and  O_26 
ROOT
HETATM    1  N   UNL     1      23.971  43.566  50.178  1.00  0.00    -0.334 N 
HETATM    2  C   UNL     1      24.290  42.257  49.808  1.00  0.00     0.273 A 
HETATM    3  O   UNL     1      23.712  41.522  49.028  1.00  0.00    -0.266 OA
HETATM    4  C   UNL     1      25.428  41.964  50.594  1.00  0.00     0.129 A 
HETATM    5  C   UNL     1      25.803  42.997  51.403  1.00  0.00     0.034 A 
HETATM    6  C   UNL     1      24.884  44.144  51.201  1.00  0.00     0.159 A 
HETATM    7  N   UNL     1      26.269  40.945  50.800  1.00  0.00    -0.272 N 
HETATM    8  H   UNL     1      26.282  40.024  50.368  1.00  0.00     0.189 HD
HETATM    9  N   UNL     1      27.208  41.259  51.728  1.00  0.00    -0.173 NA
HETATM   10  C   UNL     1      26.920  42.530  52.123  1.00  0.00     0.101 A 
ENDROOT
BRANCH  10  11
HETATM   11  C   UNL     1      27.747  43.195  53.144  1.00  0.00     0.028 A 
HETATM   12  C   UNL     1      29.119  42.905  53.285  1.00  0.00     0.078 A 
HETATM   13  C   UNL     1      29.910  43.551  54.234  1.00  0.00     0.037 A 
HETATM   14  C   UNL     1      29.345  44.505  55.074  1.00  0.00     0.003 A 
HETATM   15  C   UNL     1      27.988  44.802  54.966  1.00  0.00     0.001 A 
HETATM   16  C   UNL     1      27.196  44.149  54.014  1.00  0.00     0.017 A 
BRANCH  12  17
HETATM   17  O   UNL     1      29.765  41.974  52.510  1.00  0.00    -0.360 OA
HETATM   18  H   UNL     1      29.093  41.640  51.871  1.00  0.00     0.217 HD
ENDBRANCH  12  17
ENDBRANCH  10  11
BRANCH   6  19
HETATM   19  C   UNL     1      25.666  45.336  50.691  1.00  0.00    -0.031 A 
HETATM   20  C   UNL     1      26.751  45.232  49.800  1.00  0.00     0.011 A 
HETATM   21  C   UNL     1      27.429  46.372  49.359  1.00  0.00     0.024 A 
HETATM   22  C   UNL     1      27.018  47.632  49.781  1.00  0.00     0.034 A 
HETATM   23 CL   UNL     1      27.851  49.034  49.235  1.00  0.00    -0.084 Cl
HETATM   24  C   UNL     1      25.930  47.764  50.638  1.00  0.00     0.024 A 
HETATM   25  C   UNL     1      25.257  46.624  51.085  1.00  0.00     0.011 A 
ENDBRANCH   6  19
BRANCH   1  26
HETATM   26  C   UNL     1      22.771  44.251  49.736  1.00  0.00     0.129 C 
BRANCH  26  27
HETATM   27  C   UNL     1      22.927  44.953  48.385  1.00  0.00     0.046 C 
BRANCH  27  28
HETATM   28  C   UNL     1      22.782  46.469  48.447  1.00  0.00     0.169 C 
BRANCH  28  29
HETATM   29  O   UNL     1      22.222  46.944  47.224  1.00  0.00    -0.387 OA
BRANCH  29  30
HETATM   30  C   UNL     1      21.046  47.742  47.391  1.00  0.00     0.113 C 
HETATM   31  C   UNL     1      20.883  48.244  48.823  1.00  0.00     0.039 C 
HETATM   32  C   UNL     1      19.860  46.860  47.013  1.00  0.00     0.039 C 
ENDBRANCH  29  30
ENDBRANCH  28  29
ENDBRANCH  27  28
ENDBRANCH  26  27
ENDBRANCH   1  26
TORSDOF 8
ENDMDL
MODEL 6
REMARK VINA RESULT:      -7.5      3.848      6.648
REMARK  8 active torsions:
REMARK  status: ('A' for Active; 'I' for Inactive)
REMARK    1  A    between atoms: C_2  and  O_3 
REMARK    2  A    between atoms: O_3  and  C_4 
REMARK    3  A    between atoms: C_4  and  C_5 
REMARK    4  A    between atoms: C_5  and  C_6 
REMARK    5  A    between atoms: C_6  and  N_7 
REMARK    6  A    between atoms: C_12  and  C_13 
REMARK    7  A    between atoms: C_23  and  C_24 
REMARK    8  A    between atoms: C_25  and  O_26 
ROOT
HETATM    1  N   UNL     1      22.963  44.163  48.950  1.00  0.00    -0.334 N 
HETATM    2  C   UNL     1      21.775  44.895  49.017  1.00  0.00     0.273 A 
HETATM    3  O   UNL     1      20.627  44.488  49.020  1.00  0.00    -0.266 OA
HETATM    4  C   UNL     1      22.219  46.237  49.033  1.00  0.00     0.129 A 
HETATM    5  C   UNL     1      23.577  46.355  48.977  1.00  0.00     0.034 A 
HETATM    6  C   UNL     1      24.190  45.005  48.921  1.00  0.00     0.159 A 
HETATM    7  N   UNL     1      21.694  47.467  49.079  1.00  0.00    -0.272 N 
HETATM    8  H   UNL     1      20.717  47.747  49.125  1.00  0.00     0.189 HD
HETATM    9  N   UNL     1      22.661  48.418  49.056  1.00  0.00    -0.173 NA
HETATM   10  C   UNL     1      23.839  47.739  48.977  1.00  0.00     0.101 A 
ENDROOT
BRANCH  10  11
HETATM   11  C   UNL     1      25.115  48.471  48.925  1.00  0.00     0.028 A 
HETATM   12  C   UNL     1      25.263  49.642  48.155  1.00  0.00     0.078 A 
HETATM   13  C   UNL     1      26.463  50.352  48.124  1.00  0.00     0.037 A 
HETATM   14  C   UNL     1      27.554  49.901  48.861  1.00  0.00     0.003 A 
HETATM   15  C   UNL     1      27.440  48.739  49.621  1.00  0.00     0.001 A 
HETATM   16  C   UNL     1      26.235  48.028  49.647  1.00  0.00     0.017 A 
BRANCH  12  17
HETATM   17  O   UNL     1      24.249  50.160  47.388  1.00  0.00    -0.360 OA
HETATM   18  H   UNL     1      24.441  51.122  47.298  1.00  0.00     0.217 HD
ENDBRANCH  12  17
ENDBRANCH  10  11
BRANCH   6  19
HETATM   19  C   UNL     1      25.076  44.800  50.131  1.00  0.00    -0.031 A 
HETATM   20  C   UNL     1      24.608  44.852  51.457  1.00  0.00     0.011 A 
HETATM   21  C   UNL     1      25.475  44.648  52.534  1.00  0.00     0.024 A 
HETATM   22  C   UNL     1      26.817  44.364  52.301  1.00  0.00     0.034 A 
HETATM   23 CL   UNL     1      27.884  44.109  53.626  1.00  0.00    -0.084 Cl
HETATM   24  C   UNL     1      27.299  44.278  50.999  1.00  0.00     0.024 A 
HETATM   25  C   UNL     1      26.434  44.490  49.923  1.00  0.00     0.011 A 
ENDBRANCH   6  19
BRANCH   1  26
HETATM   26  C   UNL     1      23.006  42.725  48.760  1.00  0.00     0.129 C 
BRANCH  26  27
HETATM   27  C   UNL     1      23.471  42.303  47.365  1.00  0.00     0.046 C 
BRANCH  27  28
HETATM   28  C   UNL     1      24.754  41.480  47.355  1.00  0.00     0.169 C 
BRANCH  28  29
HETATM   29  O   UNL     1      25.524  41.786  48.516  1.00  0.00    -0.387 OA
BRANCH  29  30
HETATM   30  C   UNL     1      26.208  40.661  49.077  1.00  0.00     0.113 C 
HETATM   31  C   UNL     1      26.168  40.659  50.603  1.00  0.00     0.039 C 
HETATM   32  C   UNL     1      27.654  40.742  48.597  1.00  0.00     0.039 C 
ENDBRANCH  29  30
ENDBRANCH  28  29
ENDBRANCH  27  28
ENDBRANCH  26  27
ENDBRANCH   1  26
TORSDOF 8
ENDMDL
MODEL 7
REMARK VINA RESULT:      -7.4      4.630      8.510
REMARK  8 active torsions:
REMARK  status: ('A' for Active; 'I' for Inactive)
REMARK    1  A    between atoms: C_2  and  O_3 
REMARK    2  A    between atoms: O_3  and  C_4 
REMARK    3  A    between atoms: C_4  and  C_5 
REMARK    4  A    between atoms: C_5  and  C_6 
REMARK    5  A    between atoms: C_6  and  N_7 
REMARK    6  A    between atoms: C_12  and  C_13 
REMARK    7  A    between atoms: C_23  and  C_24 
REMARK    8  A    between atoms: C_25  and  O_26 
ROOT
HETATM    1  N   UNL     1      25.525  47.227  49.789  1.00  0.00    -0.334 N 
HETATM    2  C   UNL     1      26.405  48.070  49.108  1.00  0.00     0.273 A 
HETATM    3  O   UNL     1      27.612  47.970  48.978  1.00  0.00    -0.266 OA
HETATM    4  C   UNL     1      25.566  49.105  48.635  1.00  0.00     0.129 A 
HETATM    5  C   UNL     1      24.259  48.940  48.989  1.00  0.00     0.034 A 
HETATM    6  C   UNL     1      24.111  47.690  49.776  1.00  0.00     0.159 A 
HETATM    7  N   UNL     1      25.670  50.239  47.933  1.00  0.00    -0.272 N 
HETATM    8  H   UNL     1      26.494  50.664  47.517  1.00  0.00     0.189 HD
HETATM    9  N   UNL     1      24.465  50.848  47.799  1.00  0.00    -0.173 NA
HETATM   10  C   UNL     1      23.579  50.057  48.466  1.00  0.00     0.101 A 
ENDROOT
BRANCH  10  11
HETATM   11  C   UNL     1      22.156  50.429  48.532  1.00  0.00     0.028 A 
HETATM   12  C   UNL     1      21.559  50.852  49.736  1.00  0.00     0.078 A 
HETATM   13  C   UNL     1      20.217  51.227  49.796  1.00  0.00     0.037 A 
HETATM   14  C   UNL     1      19.434  51.184  48.648  1.00  0.00     0.003 A 
HETATM   15  C   UNL     1      19.994  50.758  47.446  1.00  0.00     0.001 A 
HETATM   16  C   UNL     1      21.340  50.378  47.390  1.00  0.00     0.017 A 
BRANCH  12  17
HETATM   17  O   UNL     1      22.247  50.919  50.923  1.00  0.00    -0.360 OA
HETATM   18  H   UNL     1      22.295  49.994  51.260  1.00  0.00     0.217 HD
ENDBRANCH  12  17
ENDBRANCH  10  11
BRANCH   6  19
HETATM   19  C   UNL     1      23.185  46.740  49.048  1.00  0.00    -0.031 A 
HETATM   20  C   UNL     1      23.556  45.443  48.647  1.00  0.00     0.011 A 
HETATM   21  C   UNL     1      22.651  44.610  47.983  1.00  0.00     0.024 A 
HETATM   22  C   UNL     1      21.356  45.051  47.732  1.00  0.00     0.034 A 
HETATM   23 CL   UNL     1      20.242  44.023  46.919  1.00  0.00    -0.084 Cl
HETATM   24  C   UNL     1      20.954  46.317  48.145  1.00  0.00     0.024 A 
HETATM   25  C   UNL     1      21.861  47.153  48.801  1.00  0.00     0.011 A 
ENDBRANCH   6  19
BRANCH   1  26
HETATM   26  C   UNL     1      25.959  46.089  50.579  1.00  0.00     0.129 C 
BRANCH  26  27
HETATM   27  C   UNL     1      25.397  46.081  52.003  1.00  0.00     0.046 C 
BRANCH  27  28
HETATM   28  C   UNL     1      26.038  47.104  52.934  1.00  0.00     0.169 C 
BRANCH  28  29
HETATM   29  O   UNL     1      26.802  46.427  53.930  1.00  0.00    -0.387 OA
BRANCH  29  30
HETATM   30  C   UNL     1      27.602  47.293  54.742  1.00  0.00     0.113 C 
HETATM   31  C   UNL     1      28.458  46.523  55.744  1.00  0.00     0.039 C 
HETATM   32  C   UNL     1      26.637  48.213  55.484  1.00  0.00     0.039 C 
ENDBRANCH  29  30
ENDBRANCH  28  29
ENDBRANCH  27  28
ENDBRANCH  26  27
ENDBRANCH   1  26
TORSDOF 8
ENDMDL
MODEL 8
REMARK VINA RESULT:      -7.1      3.087      7.991
REMARK  8 active torsions:
REMARK  status: ('A' for Active; 'I' for Inactive)
REMARK    1  A    between atoms: C_2  and  O_3 
REMARK    2  A    between atoms: O_3  and  C_4 
REMARK    3  A    between atoms: C_4  and  C_5 
REMARK    4  A    between atoms: C_5  and  C_6 
REMARK    5  A    between atoms: C_6  and  N_7 
REMARK    6  A    between atoms: C_12  and  C_13 
REMARK    7  A    between atoms: C_23  and  C_24 
REMARK    8  A    between atoms: C_25  and  O_26 
ROOT
HETATM    1  N   UNL     1      25.514  45.374  52.442  1.00  0.00    -0.334 N 
HETATM    2  C   UNL     1      25.711  46.726  52.148  1.00  0.00     0.273 A 
HETATM    3  O   UNL     1      26.350  47.557  52.769  1.00  0.00    -0.266 OA
HETATM    4  C   UNL     1      24.949  46.919  50.973  1.00  0.00     0.129 A 
HETATM    5  C   UNL     1      24.314  45.787  50.553  1.00  0.00     0.034 A 
HETATM    6  C   UNL     1      24.629  44.669  51.476  1.00  0.00     0.159 A 
HETATM    7  N   UNL     1      24.644  47.909  50.127  1.00  0.00    -0.272 N 
HETATM    8  H   UNL     1      24.942  48.881  50.141  1.00  0.00     0.189 HD
HETATM    9  N   UNL     1      23.818  47.478  49.141  1.00  0.00    -0.173 NA
HETATM   10  C   UNL     1      23.591  46.161  49.403  1.00  0.00     0.101 A 
ENDROOT
BRANCH  10  11
HETATM   11  C   UNL     1      22.718  45.368  48.522  1.00  0.00     0.028 A 
HETATM   12  C   UNL     1      21.352  45.679  48.365  1.00  0.00     0.078 A 
HETATM   13  C   UNL     1      20.528  44.945  47.512  1.00  0.00     0.037 A 
HETATM   14  C   UNL     1      21.050  43.873  46.796  1.00  0.00     0.003 A 
HETATM   15  C   UNL     1      22.394  43.535  46.942  1.00  0.00     0.001 A 
HETATM   16  C   UNL     1      23.217  44.272  47.801  1.00  0.00     0.017 A 
BRANCH  12  17
HETATM   17  O   UNL     1      20.743  46.711  49.035  1.00  0.00    -0.360 OA
HETATM   18  H   UNL     1      20.086  47.091  48.406  1.00  0.00     0.217 HD
ENDBRANCH  12  17
ENDBRANCH  10  11
BRANCH   6  19
HETATM   19  C   UNL     1      25.341  43.570  50.716  1.00  0.00    -0.031 A 
HETATM   20  C   UNL     1      26.606  43.729  50.119  1.00  0.00     0.011 A 
HETATM   21  C   UNL     1      27.215  42.672  49.436  1.00  0.00     0.024 A 
HETATM   22  C   UNL     1      26.581  41.436  49.360  1.00  0.00     0.034 A 
HETATM   23 CL   UNL     1      27.333  40.136  48.522  1.00  0.00    -0.084 Cl
HETATM   24  C   UNL     1      25.344  41.244  49.968  1.00  0.00     0.024 A 
HETATM   25  C   UNL     1      24.732  42.303  50.644  1.00  0.00     0.011 A 
ENDBRANCH   6  19
BRANCH   1  26
HETATM   26  C   UNL     1      25.988  44.744  53.661  1.00  0.00     0.129 C 
BRANCH  26  27
HETATM   27  C   UNL     1      27.467  44.357  53.616  1.00  0.00     0.046 C 
BRANCH  27  28
HETATM   28  C   UNL     1      28.291  44.894  54.781  1.00  0.00     0.169 C 
BRANCH  28  29
HETATM   29  O   UNL     1      29.370  44.002  55.052  1.00  0.00    -0.387 OA
BRANCH  29  30
HETATM   30  C   UNL     1      30.450  44.595  55.781  1.00  0.00     0.113 C 
HETATM   31  C   UNL     1      31.251  43.564  56.572  1.00  0.00     0.039 C 
HETATM   32  C   UNL     1      29.829  45.612  56.734  1.00  0.00     0.039 C 
ENDBRANCH  29  30
ENDBRANCH  28  29
ENDBRANCH  27  28
ENDBRANCH  26  27
ENDBRANCH   1  26
TORSDOF 8
ENDMDL
MODEL 9
REMARK VINA RESULT:      -7.1      3.967      8.280
REMARK  8 active torsions:
REMARK  status: ('A' for Active; 'I' for Inactive)
REMARK    1  A    between atoms: C_2  and  O_3 
REMARK    2  A    between atoms: O_3  and  C_4 
REMARK    3  A    between atoms: C_4  and  C_5 
REMARK    4  A    between atoms: C_5  and  C_6 
REMARK    5  A    between atoms: C_6  and  N_7 
REMARK    6  A    between atoms: C_12  and  C_13 
REMARK    7  A    between atoms: C_23  and  C_24 
REMARK    8  A    between atoms: C_25  and  O_26 
ROOT
HETATM    1  N   UNL     1      25.682  46.981  50.434  1.00  0.00    -0.334 N 
HETATM    2  C   UNL     1      26.086  48.060  49.645  1.00  0.00     0.273 A 
HETATM    3  O   UNL     1      27.196  48.547  49.527  1.00  0.00    -0.266 OA
HETATM    4  C   UNL     1      24.882  48.492  49.041  1.00  0.00     0.129 A 
HETATM    5  C   UNL     1      23.799  47.753  49.417  1.00  0.00     0.034 A 
HETATM    6  C   UNL     1      24.225  46.692  50.363  1.00  0.00     0.159 A 
HETATM    7  N   UNL     1      24.469  49.442  48.195  1.00  0.00    -0.272 N 
HETATM    8  H   UNL     1      25.009  50.163  47.725  1.00  0.00     0.189 HD
HETATM    9  N   UNL     1      23.130  49.366  47.985  1.00  0.00    -0.173 NA
HETATM   10  C   UNL     1      22.698  48.328  48.753  1.00  0.00     0.101 A 
ENDROOT
BRANCH  10  11
HETATM   11  C   UNL     1      21.271  47.964  48.772  1.00  0.00     0.028 A 
HETATM   12  C   UNL     1      20.314  48.765  49.427  1.00  0.00     0.078 A 
HETATM   13  C   UNL     1      18.959  48.435  49.426  1.00  0.00     0.037 A 
HETATM   14  C   UNL     1      18.526  47.286  48.771  1.00  0.00     0.003 A 
HETATM   15  C   UNL     1      19.451  46.469  48.126  1.00  0.00     0.001 A 
HETATM   16  C   UNL     1      20.811  46.802  48.132  1.00  0.00     0.017 A 
BRANCH  12  17
HETATM   17  O   UNL     1      20.645  49.910  50.108  1.00  0.00    -0.360 OA
HETATM   18  H   UNL     1      19.799  50.397  50.244  1.00  0.00     0.217 HD
ENDBRANCH  12  17
ENDBRANCH  10  11
BRANCH   6  19
HETATM   19  C   UNL     1      23.920  45.333  49.769  1.00  0.00    -0.031 A 
HETATM   20  C   UNL     1      24.001  45.048  48.393  1.00  0.00     0.011 A 
HETATM   21  C   UNL     1      23.713  43.769  47.906  1.00  0.00     0.024 A 
HETATM   22  C   UNL     1      23.365  42.752  48.789  1.00  0.00     0.034 A 
HETATM   23 CL   UNL     1      23.015  41.178  48.190  1.00  0.00    -0.084 Cl
HETATM   24  C   UNL     1      23.307  43.000  50.157  1.00  0.00     0.024 A 
HETATM   25  C   UNL     1      23.587  44.280  50.642  1.00  0.00     0.011 A 
ENDBRANCH   6  19
BRANCH   1  26
HETATM   26  C   UNL     1      26.562  46.301  51.367  1.00  0.00     0.129 C 
BRANCH  26  27
HETATM   27  C   UNL     1      26.230  46.575  52.835  1.00  0.00     0.046 C 
BRANCH  27  28
HETATM   28  C   UNL     1      26.376  45.361  53.746  1.00  0.00     0.169 C 
BRANCH  28  29
HETATM   29  O   UNL     1      27.687  44.817  53.605  1.00  0.00    -0.387 OA
BRANCH  29  30
HETATM   30  C   UNL     1      28.393  44.664  54.842  1.00  0.00     0.113 C 
HETATM   31  C   UNL     1      28.962  45.984  55.353  1.00  0.00     0.039 C 
HETATM   32  C   UNL     1      29.526  43.676  54.580  1.00  0.00     0.039 C 
ENDBRANCH  29  30
ENDBRANCH  28  29
ENDBRANCH  27  28
ENDBRANCH  26  27
ENDBRANCH   1  26
TORSDOF 8
ENDMDL
MODEL 10
REMARK VINA RESULT:      -7.0     12.165     13.008
REMARK  8 active torsions:
REMARK  status: ('A' for Active; 'I' for Inactive)
REMARK    1  A    between atoms: C_2  and  O_3 
REMARK    2  A    between atoms: O_3  and  C_4 
REMARK    3  A    between atoms: C_4  and  C_5 
REMARK    4  A    between atoms: C_5  and  C_6 
REMARK    5  A    between atoms: C_6  and  N_7 
REMARK    6  A    between atoms: C_12  and  C_13 
REMARK    7  A    between atoms: C_23  and  C_24 
REMARK    8  A    between atoms: C_25  and  O_26 
ROOT
HETATM    1  N   UNL     1      28.140  48.329  40.620  1.00  0.00    -0.334 N 
HETATM    2  C   UNL     1      28.827  47.259  40.040  1.00  0.00     0.273 A 
HETATM    3  O   UNL     1      28.379  46.308  39.425  1.00  0.00    -0.266 OA
HETATM    4  C   UNL     1      30.176  47.516  40.377  1.00  0.00     0.129 A 
HETATM    5  C   UNL     1      30.338  48.652  41.115  1.00  0.00     0.034 A 
HETATM    6  C   UNL     1      29.017  49.292  41.339  1.00  0.00     0.159 A 
HETATM    7  N   UNL     1      31.378  46.959  40.196  1.00  0.00    -0.272 N 
HETATM    8  H   UNL     1      31.624  46.109  39.696  1.00  0.00     0.189 HD
HETATM    9  N   UNL     1      32.355  47.690  40.791  1.00  0.00    -0.173 NA
HETATM   10  C   UNL     1      31.718  48.739  41.381  1.00  0.00     0.101 A 
ENDROOT
BRANCH  10  11
HETATM   11  C   UNL     1      32.487  49.745  42.134  1.00  0.00     0.028 A 
HETATM   12  C   UNL     1      33.826  50.042  41.811  1.00  0.00     0.078 A 
HETATM   13  C   UNL     1      34.548  51.012  42.506  1.00  0.00     0.037 A 
HETATM   14  C   UNL     1      33.948  51.707  43.551  1.00  0.00     0.003 A 
HETATM   15  C   UNL     1      32.629  51.424  43.900  1.00  0.00     0.001 A 
HETATM   16  C   UNL     1      31.908  50.448  43.202  1.00  0.00     0.017 A 
BRANCH  12  17
HETATM   17  O   UNL     1      34.507  49.404  40.804  1.00  0.00    -0.360 OA
HETATM   18  H   UNL     1      35.245  48.919  41.242  1.00  0.00     0.217 HD
ENDBRANCH  12  17
ENDBRANCH  10  11
BRANCH   6  19
HETATM   19  C   UNL     1      29.013  50.673  40.719  1.00  0.00    -0.031 A 
HETATM   20  C   UNL     1      29.279  50.917  39.359  1.00  0.00     0.011 A 
HETATM   21  C   UNL     1      29.252  52.217  38.844  1.00  0.00     0.024 A 
HETATM   22  C   UNL     1      28.936  53.287  39.675  1.00  0.00     0.034 A 
HETATM   23 CL   UNL     1      28.899  54.885  39.040  1.00  0.00    -0.084 Cl
HETATM   24  C   UNL     1      28.639  53.069  41.017  1.00  0.00     0.024 A 
HETATM   25  C   UNL     1      28.674  51.771  41.532  1.00  0.00     0.011 A 
ENDBRANCH   6  19
BRANCH   1  26
HETATM   26  C   UNL     1      26.692  48.418  40.664  1.00  0.00     0.129 C 
BRANCH  26  27
HETATM   27  C   UNL     1      26.086  49.156  39.468  1.00  0.00     0.046 C 
BRANCH  27  28
HETATM   28  C   UNL     1      24.672  48.711  39.111  1.00  0.00     0.169 C 
BRANCH  28  29
HETATM   29  O   UNL     1      23.851  49.859  38.906  1.00  0.00    -0.387 OA
BRANCH  29  30
HETATM   30  C   UNL     1      22.532  49.739  39.449  1.00  0.00     0.113 C 
HETATM   31  C   UNL     1      21.538  49.171  38.439  1.00  0.00     0.039 C 
HETATM   32  C   UNL     1      22.100  51.141  39.869  1.00  0.00     0.039 C 
ENDBRANCH  29  30
ENDBRANCH  28  29
ENDBRANCH  27  28
ENDBRANCH  26  27
ENDBRANCH   1  26
TORSDOF 8
ENDMDL
