MODEL 1
REMARK VINA RESULT:      -8.5      0.000      0.000
REMARK  3 active torsions:
REMARK  status: ('A' for Active; 'I' for Inactive)
REMARK    1  A    between atoms: C_5  and  N_6 
REMARK       I    between atoms: N_6  and  C_7 
REMARK    2  A    between atoms: C_7  and  C_8 
REMARK    3  A    between atoms: C_8  and  C_9 
ROOT
HETATM    1  C   UNL     1      26.721  42.356  51.084  1.00  0.00     0.286 C 
HETATM    2  N   UNL     1      25.895  43.139  52.116  1.00  0.00    -0.056 N 
HETATM    3  H   UNL     1      25.110  42.536  52.394  1.00  0.00     0.278 HD
HETATM    4  H   UNL     1      26.443  43.224  53.001  1.00  0.00     0.278 HD
HETATM    5  C   UNL     1      25.340  44.471  51.712  1.00  0.00     0.209 C 
HETATM    6  C   UNL     1      24.771  44.386  50.278  1.00  0.00     0.115 C 
HETATM    7  N   UNL     1      25.743  43.838  49.340  1.00  0.00    -0.353 N 
HETATM    8  C   UNL     1      26.602  42.817  49.629  1.00  0.00     0.249 C 
HETATM    9  O   UNL     1      27.253  42.291  48.730  1.00  0.00    -0.271 OA
HETATM   10  C   UNL     1      26.405  45.555  51.877  1.00  0.00     0.035 C 
HETATM   11  C   UNL     1      25.880  46.908  51.398  1.00  0.00     0.002 C 
HETATM   12  C   UNL     1      25.359  46.836  49.965  1.00  0.00     0.002 C 
HETATM   13  C   UNL     1      24.284  45.759  49.810  1.00  0.00     0.027 C 
HETATM   14  H   UNL     1      25.638  44.021  48.344  1.00  0.00     0.163 HD
ENDROOT
BRANCH   1  15
HETATM   15  C   UNL     1      28.195  42.280  51.497  1.00  0.00     0.146 C 
BRANCH  15  16
HETATM   16  C   UNL     1      28.226  42.609  52.963  1.00  0.00     0.224 C 
HETATM   17  N   UNL     1      29.006  43.693  53.283  1.00  0.00    -0.327 N 
HETATM   18  H   UNL     1      29.288  44.325  52.538  1.00  0.00     0.169 HD
HETATM   19  O   UNL     1      27.740  41.775  53.727  1.00  0.00    -0.273 OA
BRANCH  17  20
HETATM   20  C   UNL     1      29.518  44.013  54.560  1.00  0.00     0.034 A 
HETATM   21  C   UNL     1      30.553  43.313  55.182  1.00  0.00     0.030 A 
HETATM   22  C   UNL     1      31.051  43.733  56.420  1.00  0.00     0.009 A 
HETATM   23  C   UNL     1      30.519  44.856  57.058  1.00  0.00    -0.062 A 
HETATM   24  C   UNL     1      31.066  45.326  58.372  1.00  0.00     0.048 C 
HETATM   25  C   UNL     1      29.478  45.554  56.438  1.00  0.00     0.009 A 
HETATM   26  C   UNL     1      28.977  45.131  55.204  1.00  0.00     0.030 A 
ENDBRANCH  17  20
ENDBRANCH  15  16
ENDBRANCH   1  15
TORSDOF 3
ENDMDL
MODEL 2
REMARK VINA RESULT:      -8.5      1.821      2.638
REMARK  3 active torsions:
REMARK  status: ('A' for Active; 'I' for Inactive)
REMARK    1  A    between atoms: C_5  and  N_6 
REMARK       I    between atoms: N_6  and  C_7 
REMARK    2  A    between atoms: C_7  and  C_8 
REMARK    3  A    between atoms: C_8  and  C_9 
ROOT
HETATM    1  C   UNL     1      25.983  43.702  51.361  1.00  0.00     0.286 C 
HETATM    2  N   UNL     1      24.705  42.852  51.416  1.00  0.00    -0.056 N 
HETATM    3  H   UNL     1      24.989  41.899  51.680  1.00  0.00     0.278 HD
HETATM    4  H   UNL     1      24.127  43.153  52.232  1.00  0.00     0.278 HD
HETATM    5  C   UNL     1      23.861  42.763  50.181  1.00  0.00     0.209 C 
HETATM    6  C   UNL     1      24.768  42.585  48.942  1.00  0.00     0.115 C 
HETATM    7  N   UNL     1      25.808  43.604  48.880  1.00  0.00    -0.353 N 
HETATM    8  C   UNL     1      26.485  44.084  49.965  1.00  0.00     0.249 C 
HETATM    9  O   UNL     1      27.470  44.798  49.806  1.00  0.00    -0.271 OA
HETATM   10  C   UNL     1      22.940  43.978  50.086  1.00  0.00     0.035 C 
HETATM   11  C   UNL     1      22.126  43.942  48.793  1.00  0.00     0.002 C 
HETATM   12  C   UNL     1      23.023  43.811  47.564  1.00  0.00     0.002 C 
HETATM   13  C   UNL     1      23.934  42.586  47.659  1.00  0.00     0.027 C 
HETATM   14  H   UNL     1      26.256  43.811  47.989  1.00  0.00     0.163 HD
ENDROOT
BRANCH   1  15
HETATM   15  C   UNL     1      25.855  44.953  52.237  1.00  0.00     0.146 C 
BRANCH  15  16
HETATM   16  C   UNL     1      26.545  44.619  53.529  1.00  0.00     0.224 C 
HETATM   17  N   UNL     1      27.840  45.066  53.611  1.00  0.00    -0.327 N 
HETATM   18  H   UNL     1      28.152  45.773  52.950  1.00  0.00     0.169 HD
HETATM   19  O   UNL     1      25.973  43.820  54.271  1.00  0.00    -0.273 OA
BRANCH  17  20
HETATM   20  C   UNL     1      28.834  44.608  54.503  1.00  0.00     0.034 A 
HETATM   21  C   UNL     1      29.486  43.380  54.379  1.00  0.00     0.030 A 
HETATM   22  C   UNL     1      30.508  43.025  55.266  1.00  0.00     0.009 A 
HETATM   23  C   UNL     1      30.891  43.890  56.294  1.00  0.00    -0.062 A 
HETATM   24  C   UNL     1      32.003  43.527  57.232  1.00  0.00     0.048 C 
HETATM   25  C   UNL     1      30.234  45.117  56.423  1.00  0.00     0.009 A 
HETATM   26  C   UNL     1      29.209  45.469  55.541  1.00  0.00     0.030 A 
ENDBRANCH  17  20
ENDBRANCH  15  16
ENDBRANCH   1  15
TORSDOF 3
ENDMDL
MODEL 3
REMARK VINA RESULT:      -8.1      2.149      3.244
REMARK  3 active torsions:
REMARK  status: ('A' for Active; 'I' for Inactive)
REMARK    1  A    between atoms: C_5  and  N_6 
REMARK       I    between atoms: N_6  and  C_7 
REMARK    2  A    between atoms: C_7  and  C_8 
REMARK    3  A    between atoms: C_8  and  C_9 
ROOT
HETATM    1  C   UNL     1      26.284  46.093  51.948  1.00  0.00     0.286 C 
HETATM    2  N   UNL     1      26.548  44.589  51.780  1.00  0.00    -0.056 N 
HETATM    3  H   UNL     1      27.540  44.484  51.534  1.00  0.00     0.278 HD
HETATM    4  H   UNL     1      26.492  44.125  52.713  1.00  0.00     0.278 HD
HETATM    5  C   UNL     1      25.734  43.837  50.771  1.00  0.00     0.209 C 
HETATM    6  C   UNL     1      25.605  44.675  49.478  1.00  0.00     0.115 C 
HETATM    7  N   UNL     1      25.118  46.021  49.750  1.00  0.00    -0.353 N 
HETATM    8  C   UNL     1      25.486  46.772  50.830  1.00  0.00     0.249 C 
HETATM    9  O   UNL     1      25.180  47.959  50.884  1.00  0.00    -0.271 OA
HETATM   10  C   UNL     1      24.387  43.442  51.373  1.00  0.00     0.035 C 
HETATM   11  C   UNL     1      23.514  42.740  50.333  1.00  0.00     0.002 C 
HETATM   12  C   UNL     1      23.347  43.585  49.072  1.00  0.00     0.002 C 
HETATM   13  C   UNL     1      24.699  43.967  48.467  1.00  0.00     0.027 C 
HETATM   14  H   UNL     1      24.683  46.559  49.002  1.00  0.00     0.163 HD
ENDROOT
BRANCH   1  15
HETATM   15  C   UNL     1      25.649  46.396  53.309  1.00  0.00     0.146 C 
BRANCH  15  16
HETATM   16  C   UNL     1      26.447  45.615  54.315  1.00  0.00     0.224 C 
HETATM   17  N   UNL     1      27.666  46.167  54.621  1.00  0.00    -0.327 N 
HETATM   18  H   UNL     1      27.837  47.137  54.368  1.00  0.00     0.169 HD
HETATM   19  O   UNL     1      26.037  44.488  54.592  1.00  0.00    -0.273 OA
BRANCH  17  20
HETATM   20  C   UNL     1      28.762  45.508  55.221  1.00  0.00     0.034 A 
HETATM   21  C   UNL     1      29.366  45.923  56.408  1.00  0.00     0.030 A 
HETATM   22  C   UNL     1      30.406  45.177  56.975  1.00  0.00     0.009 A 
HETATM   23  C   UNL     1      30.860  44.008  56.360  1.00  0.00    -0.062 A 
HETATM   24  C   UNL     1      31.956  43.190  56.977  1.00  0.00     0.048 C 
HETATM   25  C   UNL     1      30.260  43.595  55.168  1.00  0.00     0.009 A 
HETATM   26  C   UNL     1      29.226  44.343  54.598  1.00  0.00     0.030 A 
ENDBRANCH  17  20
ENDBRANCH  15  16
ENDBRANCH   1  15
TORSDOF 3
ENDMDL
MODEL 4
REMARK VINA RESULT:      -7.9      2.244      3.327
REMARK  3 active torsions:
REMARK  status: ('A' for Active; 'I' for Inactive)
REMARK    1  A    between atoms: C_5  and  N_6 
REMARK       I    between atoms: N_6  and  C_7 
REMARK    2  A    between atoms: C_7  and  C_8 
REMARK    3  A    between atoms: C_8  and  C_9 
ROOT
HETATM    1  C   UNL     1      24.181  45.359  50.489  1.00  0.00     0.286 C 
HETATM    2  N   UNL     1      24.707  46.519  51.348  1.00  0.00    -0.056 N 
HETATM    3  H   UNL     1      24.009  46.688  52.084  1.00  0.00     0.278 HD
HETATM    4  H   UNL     1      25.538  46.194  51.891  1.00  0.00     0.278 HD
HETATM    5  C   UNL     1      24.999  47.823  50.672  1.00  0.00     0.209 C 
HETATM    6  C   UNL     1      23.874  48.152  49.665  1.00  0.00     0.115 C 
HETATM    7  N   UNL     1      23.629  47.048  48.746  1.00  0.00    -0.353 N 
HETATM    8  C   UNL     1      23.651  45.729  49.100  1.00  0.00     0.249 C 
HETATM    9  O   UNL     1      23.250  44.876  48.314  1.00  0.00    -0.271 OA
HETATM   10  C   UNL     1      26.387  47.785  50.036  1.00  0.00     0.035 C 
HETATM   11  C   UNL     1      26.672  49.080  49.277  1.00  0.00     0.002 C 
HETATM   12  C   UNL     1      25.584  49.384  48.249  1.00  0.00     0.002 C 
HETATM   13  C   UNL     1      24.198  49.434  48.894  1.00  0.00     0.027 C 
HETATM   14  H   UNL     1      23.170  47.228  47.855  1.00  0.00     0.163 HD
ENDROOT
BRANCH   1  15
HETATM   15  C   UNL     1      25.219  44.237  50.377  1.00  0.00     0.146 C 
BRANCH  15  16
HETATM   16  C   UNL     1      25.873  44.150  51.728  1.00  0.00     0.224 C 
HETATM   17  N   UNL     1      27.226  44.381  51.717  1.00  0.00    -0.327 N 
HETATM   18  H   UNL     1      27.636  44.823  50.899  1.00  0.00     0.169 HD
HETATM   19  O   UNL     1      25.192  43.686  52.643  1.00  0.00    -0.273 OA
BRANCH  17  20
HETATM   20  C   UNL     1      28.150  44.018  52.722  1.00  0.00     0.034 A 
HETATM   21  C   UNL     1      29.110  43.017  52.573  1.00  0.00     0.030 A 
HETATM   22  C   UNL     1      30.034  42.762  53.592  1.00  0.00     0.009 A 
HETATM   23  C   UNL     1      30.009  43.500  54.778  1.00  0.00    -0.062 A 
HETATM   24  C   UNL     1      31.013  43.249  55.863  1.00  0.00     0.048 C 
HETATM   25  C   UNL     1      29.043  44.498  54.930  1.00  0.00     0.009 A 
HETATM   26  C   UNL     1      28.116  44.750  53.915  1.00  0.00     0.030 A 
ENDBRANCH  17  20
ENDBRANCH  15  16
ENDBRANCH   1  15
TORSDOF 3
ENDMDL
MODEL 5
REMARK VINA RESULT:      -7.8      7.057     10.134
REMARK  3 active torsions:
REMARK  status: ('A' for Active; 'I' for Inactive)
REMARK    1  A    between atoms: C_5  and  N_6 
REMARK       I    between atoms: N_6  and  C_7 
REMARK    2  A    between atoms: C_7  and  C_8 
REMARK    3  A    between atoms: C_8  and  C_9 
ROOT
HETATM    1  C   UNL     1      20.042  49.581  49.358  1.00  0.00     0.286 C 
HETATM    2  N   UNL     1      20.148  50.795  48.422  1.00  0.00    -0.056 N 
HETATM    3  H   UNL     1      20.938  51.363  48.754  1.00  0.00     0.278 HD
HETATM    4  H   UNL     1      20.474  50.476  47.483  1.00  0.00     0.278 HD
HETATM    5  C   UNL     1      18.953  51.689  48.287  1.00  0.00     0.209 C 
HETATM    6  C   UNL     1      18.323  51.930  49.677  1.00  0.00     0.115 C 
HETATM    7  N   UNL     1      18.052  50.679  50.374  1.00  0.00    -0.353 N 
HETATM    8  C   UNL     1      18.875  49.589  50.349  1.00  0.00     0.249 C 
HETATM    9  O   UNL     1      18.669  48.649  51.111  1.00  0.00    -0.271 OA
HETATM   10  C   UNL     1      17.973  51.105  47.271  1.00  0.00     0.035 C 
HETATM   11  C   UNL     1      16.713  51.966  47.176  1.00  0.00     0.002 C 
HETATM   12  C   UNL     1      16.063  52.167  48.543  1.00  0.00     0.002 C 
HETATM   13  C   UNL     1      17.045  52.764  49.552  1.00  0.00     0.027 C 
HETATM   14  H   UNL     1      17.365  50.660  51.125  1.00  0.00     0.163 HD
ENDROOT
BRANCH   1  15
HETATM   15  C   UNL     1      20.057  48.269  48.567  1.00  0.00     0.146 C 
BRANCH  15  16
HETATM   16  C   UNL     1      21.506  47.960  48.317  1.00  0.00     0.224 C 
HETATM   17  N   UNL     1      22.355  48.385  49.309  1.00  0.00    -0.327 N 
HETATM   18  H   UNL     1      21.960  48.633  50.212  1.00  0.00     0.169 HD
HETATM   19  O   UNL     1      21.800  47.562  47.189  1.00  0.00    -0.273 OA
BRANCH  17  20
HETATM   20  C   UNL     1      23.751  48.571  49.199  1.00  0.00     0.034 A 
HETATM   21  C   UNL     1      24.344  49.612  48.484  1.00  0.00     0.030 A 
HETATM   22  C   UNL     1      25.734  49.767  48.477  1.00  0.00     0.009 A 
HETATM   23  C   UNL     1      26.553  48.882  49.182  1.00  0.00    -0.062 A 
HETATM   24  C   UNL     1      28.042  49.059  49.201  1.00  0.00     0.048 C 
HETATM   25  C   UNL     1      25.960  47.835  49.893  1.00  0.00     0.009 A 
HETATM   26  C   UNL     1      24.572  47.676  49.895  1.00  0.00     0.030 A 
ENDBRANCH  17  20
ENDBRANCH  15  16
ENDBRANCH   1  15
TORSDOF 3
ENDMDL
MODEL 6
REMARK VINA RESULT:      -7.8      1.655      3.325
REMARK  3 active torsions:
REMARK  status: ('A' for Active; 'I' for Inactive)
REMARK    1  A    between atoms: C_5  and  N_6 
REMARK       I    between atoms: N_6  and  C_7 
REMARK    2  A    between atoms: C_7  and  C_8 
REMARK    3  A    between atoms: C_8  and  C_9 
ROOT
HETATM    1  C   UNL     1      26.743  44.551  51.356  1.00  0.00     0.286 C 
HETATM    2  N   UNL     1      27.651  43.330  51.571  1.00  0.00    -0.056 N 
HETATM    3  H   UNL     1      28.620  43.650  51.448  1.00  0.00     0.278 HD
HETATM    4  H   UNL     1      27.626  43.057  52.579  1.00  0.00     0.278 HD
HETATM    5  C   UNL     1      27.440  42.131  50.698  1.00  0.00     0.209 C 
HETATM    6  C   UNL     1      27.209  42.583  49.238  1.00  0.00     0.115 C 
HETATM    7  N   UNL     1      26.152  43.582  49.141  1.00  0.00    -0.353 N 
HETATM    8  C   UNL     1      25.956  44.589  50.043  1.00  0.00     0.249 C 
HETATM    9  O   UNL     1      25.168  45.494  49.788  1.00  0.00    -0.271 OA
HETATM   10  C   UNL     1      26.305  41.271  51.252  1.00  0.00     0.035 C 
HETATM   11  C   UNL     1      26.026  40.083  50.332  1.00  0.00     0.002 C 
HETATM   12  C   UNL     1      25.753  40.531  48.898  1.00  0.00     0.002 C 
HETATM   13  C   UNL     1      26.898  41.380  48.345  1.00  0.00     0.027 C 
HETATM   14  H   UNL     1      25.677  43.726  48.252  1.00  0.00     0.163 HD
ENDROOT
BRANCH   1  15
HETATM   15  C   UNL     1      25.799  44.756  52.545  1.00  0.00     0.146 C 
BRANCH  15  16
HETATM   16  C   UNL     1      26.594  44.389  53.766  1.00  0.00     0.224 C 
HETATM   17  N   UNL     1      27.727  45.142  53.950  1.00  0.00    -0.327 N 
HETATM   18  H   UNL     1      27.821  46.013  53.434  1.00  0.00     0.169 HD
HETATM   19  O   UNL     1      26.277  43.347  54.341  1.00  0.00    -0.273 OA
BRANCH  17  20
HETATM   20  C   UNL     1      28.836  44.810  54.760  1.00  0.00     0.034 A 
HETATM   21  C   UNL     1      29.225  45.540  55.884  1.00  0.00     0.030 A 
HETATM   22  C   UNL     1      30.296  45.109  56.675  1.00  0.00     0.009 A 
HETATM   23  C   UNL     1      30.997  43.944  56.352  1.00  0.00    -0.062 A 
HETATM   24  C   UNL     1      32.128  43.463  57.211  1.00  0.00     0.048 C 
HETATM   25  C   UNL     1      30.611  43.217  55.223  1.00  0.00     0.009 A 
HETATM   26  C   UNL     1      29.546  43.650  54.429  1.00  0.00     0.030 A 
ENDBRANCH  17  20
ENDBRANCH  15  16
ENDBRANCH   1  15
TORSDOF 3
ENDMDL
MODEL 7
REMARK VINA RESULT:      -7.7      3.805      8.422
REMARK  3 active torsions:
REMARK  status: ('A' for Active; 'I' for Inactive)
REMARK    1  A    between atoms: C_5  and  N_6 
REMARK       I    between atoms: N_6  and  C_7 
REMARK    2  A    between atoms: C_7  and  C_8 
REMARK    3  A    between atoms: C_8  and  C_9 
ROOT
HETATM    1  C   UNL     1      25.207  45.771  51.516  1.00  0.00     0.286 C 
HETATM    2  N   UNL     1      25.497  44.276  51.307  1.00  0.00    -0.056 N 
HETATM    3  H   UNL     1      24.606  43.778  51.430  1.00  0.00     0.278 HD
HETATM    4  H   UNL     1      25.718  44.107  50.301  1.00  0.00     0.278 HD
HETATM    5  C   UNL     1      26.521  43.626  52.186  1.00  0.00     0.209 C 
HETATM    6  C   UNL     1      26.339  44.108  53.643  1.00  0.00     0.115 C 
HETATM    7  N   UNL     1      26.314  45.562  53.735  1.00  0.00    -0.353 N 
HETATM    8  C   UNL     1      25.706  46.382  52.829  1.00  0.00     0.249 C 
HETATM    9  O   UNL     1      25.568  47.576  53.078  1.00  0.00    -0.271 OA
HETATM   10  C   UNL     1      27.923  43.882  51.636  1.00  0.00     0.035 C 
HETATM   11  C   UNL     1      28.985  43.290  52.561  1.00  0.00     0.002 C 
HETATM   12  C   UNL     1      28.835  43.800  53.993  1.00  0.00     0.002 C 
HETATM   13  C   UNL     1      27.434  43.529  54.543  1.00  0.00     0.027 C 
HETATM   14  H   UNL     1      26.525  46.013  54.624  1.00  0.00     0.163 HD
ENDROOT
BRANCH   1  15
HETATM   15  C   UNL     1      25.697  46.602  50.325  1.00  0.00     0.146 C 
BRANCH  15  16
HETATM   16  C   UNL     1      24.457  47.059  49.609  1.00  0.00     0.224 C 
HETATM   17  N   UNL     1      24.395  48.413  49.395  1.00  0.00    -0.327 N 
HETATM   18  H   UNL     1      25.246  48.960  49.491  1.00  0.00     0.169 HD
HETATM   19  O   UNL     1      23.555  46.231  49.482  1.00  0.00    -0.273 OA
BRANCH  17  20
HETATM   20  C   UNL     1      23.237  49.165  49.096  1.00  0.00     0.034 A 
HETATM   21  C   UNL     1      21.939  48.655  49.156  1.00  0.00     0.030 A 
HETATM   22  C   UNL     1      20.839  49.483  48.910  1.00  0.00     0.009 A 
HETATM   23  C   UNL     1      21.018  50.832  48.594  1.00  0.00    -0.062 A 
HETATM   24  C   UNL     1      19.841  51.729  48.354  1.00  0.00     0.048 C 
HETATM   25  C   UNL     1      22.317  51.341  48.526  1.00  0.00     0.009 A 
HETATM   26  C   UNL     1      23.417  50.514  48.767  1.00  0.00     0.030 A 
ENDBRANCH  17  20
ENDBRANCH  15  16
ENDBRANCH   1  15
TORSDOF 3
ENDMDL
MODEL 8
REMARK VINA RESULT:      -7.5     10.477     14.442
REMARK  3 active torsions:
REMARK  status: ('A' for Active; 'I' for Inactive)
REMARK    1  A    between atoms: C_5  and  N_6 
REMARK       I    between atoms: N_6  and  C_7 
REMARK    2  A    between atoms: C_7  and  C_8 
REMARK    3  A    between atoms: C_8  and  C_9 
ROOT
HETATM    1  C   UNL     1      18.489  50.351  49.421  1.00  0.00     0.286 C 
HETATM    2  N   UNL     1      19.156  50.480  48.043  1.00  0.00    -0.056 N 
HETATM    3  H   UNL     1      18.526  50.037  47.361  1.00  0.00     0.278 HD
HETATM    4  H   UNL     1      19.146  51.481  47.749  1.00  0.00     0.278 HD
HETATM    5  C   UNL     1      20.524  49.894  47.862  1.00  0.00     0.209 C 
HETATM    6  C   UNL     1      20.593  48.511  48.548  1.00  0.00     0.115 C 
HETATM    7  N   UNL     1      20.150  48.570  49.935  1.00  0.00    -0.353 N 
HETATM    8  C   UNL     1      19.104  49.328  50.380  1.00  0.00     0.249 C 
HETATM    9  O   UNL     1      18.679  49.176  51.521  1.00  0.00    -0.271 OA
HETATM   10  C   UNL     1      21.584  50.873  48.366  1.00  0.00     0.035 C 
HETATM   11  C   UNL     1      22.980  50.261  48.259  1.00  0.00     0.002 C 
HETATM   12  C   UNL     1      23.063  48.915  48.975  1.00  0.00     0.002 C 
HETATM   13  C   UNL     1      22.009  47.936  48.458  1.00  0.00     0.027 C 
HETATM   14  H   UNL     1      20.439  47.843  50.587  1.00  0.00     0.163 HD
ENDROOT
BRANCH   1  15
HETATM   15  C   UNL     1      18.370  51.716  50.108  1.00  0.00     0.146 C 
BRANCH  15  16
HETATM   16  C   UNL     1      17.132  52.352  49.542  1.00  0.00     0.224 C 
HETATM   17  N   UNL     1      16.666  53.423  50.263  1.00  0.00    -0.327 N 
HETATM   18  H   UNL     1      17.285  53.857  50.942  1.00  0.00     0.169 HD
HETATM   19  O   UNL     1      16.558  51.738  48.642  1.00  0.00    -0.273 OA
BRANCH  17  20
HETATM   20  C   UNL     1      15.368  53.976  50.203  1.00  0.00     0.034 A 
HETATM   21  C   UNL     1      14.198  53.241  50.397  1.00  0.00     0.030 A 
HETATM   22  C   UNL     1      12.951  53.874  50.389  1.00  0.00     0.009 A 
HETATM   23  C   UNL     1      12.853  55.252  50.181  1.00  0.00    -0.062 A 
HETATM   24  C   UNL     1      11.521  55.941  50.197  1.00  0.00     0.048 C 
HETATM   25  C   UNL     1      14.024  55.988  49.980  1.00  0.00     0.009 A 
HETATM   26  C   UNL     1      15.270  55.355  49.983  1.00  0.00     0.030 A 
ENDBRANCH  17  20
ENDBRANCH  15  16
ENDBRANCH   1  15
TORSDOF 3
ENDMDL
MODEL 9
REMARK VINA RESULT:      -7.4      3.626      5.303
REMARK  3 active torsions:
REMARK  status: ('A' for Active; 'I' for Inactive)
REMARK    1  A    between atoms: C_5  and  N_6 
REMARK       I    between atoms: N_6  and  C_7 
REMARK    2  A    between atoms: C_7  and  C_8 
REMARK    3  A    between atoms: C_8  and  C_9 
ROOT
HETATM    1  C   UNL     1      28.287  40.381  50.065  1.00  0.00     0.286 C 
HETATM    2  N   UNL     1      28.587  38.929  50.466  1.00  0.00    -0.056 N 
HETATM    3  H   UNL     1      29.594  38.874  50.666  1.00  0.00     0.278 HD
HETATM    4  H   UNL     1      28.158  38.735  51.398  1.00  0.00     0.278 HD
HETATM    5  C   UNL     1      28.244  37.841  49.494  1.00  0.00     0.209 C 
HETATM    6  C   UNL     1      28.651  38.272  48.066  1.00  0.00     0.115 C 
HETATM    7  N   UNL     1      28.103  39.576  47.716  1.00  0.00    -0.353 N 
HETATM    8  C   UNL     1      28.011  40.631  48.579  1.00  0.00     0.249 C 
HETATM    9  O   UNL     1      27.716  41.744  48.156  1.00  0.00    -0.271 OA
HETATM   10  C   UNL     1      26.766  37.475  49.617  1.00  0.00     0.035 C 
HETATM   11  C   UNL     1      26.381  36.420  48.581  1.00  0.00     0.002 C 
HETATM   12  C   UNL     1      26.741  36.862  47.165  1.00  0.00     0.002 C 
HETATM   13  C   UNL     1      28.224  37.215  47.044  1.00  0.00     0.027 C 
HETATM   14  H   UNL     1      28.009  39.835  46.736  1.00  0.00     0.163 HD
ENDROOT
BRANCH   1  15
HETATM   15  C   UNL     1      27.160  40.970  50.919  1.00  0.00     0.146 C 
BRANCH  15  16
HETATM   16  C   UNL     1      27.740  42.193  51.572  1.00  0.00     0.224 C 
HETATM   17  N   UNL     1      28.541  41.930  52.655  1.00  0.00    -0.327 N 
HETATM   18  H   UNL     1      28.884  40.982  52.786  1.00  0.00     0.169 HD
HETATM   19  O   UNL     1      27.283  43.280  51.216  1.00  0.00    -0.273 OA
BRANCH  17  20
HETATM   20  C   UNL     1      28.915  42.842  53.667  1.00  0.00     0.034 A 
HETATM   21  C   UNL     1      30.172  42.860  54.274  1.00  0.00     0.030 A 
HETATM   22  C   UNL     1      30.488  43.838  55.223  1.00  0.00     0.009 A 
HETATM   23  C   UNL     1      29.552  44.811  55.582  1.00  0.00    -0.062 A 
HETATM   24  C   UNL     1      29.895  45.878  56.579  1.00  0.00     0.048 C 
HETATM   25  C   UNL     1      28.292  44.789  54.979  1.00  0.00     0.009 A 
HETATM   26  C   UNL     1      27.973  43.809  54.036  1.00  0.00     0.030 A 
ENDBRANCH  17  20
ENDBRANCH  15  16
ENDBRANCH   1  15
TORSDOF 3
ENDMDL
MODEL 10
REMARK VINA RESULT:      -7.3      3.356      6.635
REMARK  3 active torsions:
REMARK  status: ('A' for Active; 'I' for Inactive)
REMARK    1  A    between atoms: C_5  and  N_6 
REMARK       I    between atoms: N_6  and  C_7 
REMARK    2  A    between atoms: C_7  and  C_8 
REMARK    3  A    between atoms: C_8  and  C_9 
ROOT
HETATM    1  C   UNL     1      26.812  43.328  52.294  1.00  0.00     0.286 C 
HETATM    2  N   UNL     1      26.470  43.362  53.791  1.00  0.00    -0.056 N 
HETATM    3  H   UNL     1      25.511  43.004  53.889  1.00  0.00     0.278 HD
HETATM    4  H   UNL     1      27.037  42.641  54.289  1.00  0.00     0.278 HD
HETATM    5  C   UNL     1      26.552  44.677  54.505  1.00  0.00     0.209 C 
HETATM    6  C   UNL     1      25.941  45.788  53.621  1.00  0.00     0.115 C 
HETATM    7  N   UNL     1      26.522  45.801  52.285  1.00  0.00    -0.353 N 
HETATM    8  C   UNL     1      26.846  44.680  51.575  1.00  0.00     0.249 C 
HETATM    9  O   UNL     1      27.152  44.773  50.390  1.00  0.00    -0.271 OA
HETATM   10  C   UNL     1      27.995  44.960  54.920  1.00  0.00     0.035 C 
HETATM   11  C   UNL     1      28.110  46.332  55.583  1.00  0.00     0.002 C 
HETATM   12  C   UNL     1      27.547  47.438  54.693  1.00  0.00     0.002 C 
HETATM   13  C   UNL     1      26.099  47.156  54.291  1.00  0.00     0.027 C 
HETATM   14  H   UNL     1      26.466  46.646  51.720  1.00  0.00     0.163 HD
ENDROOT
BRANCH   1  15
HETATM   15  C   UNL     1      28.113  42.560  52.039  1.00  0.00     0.146 C 
BRANCH  15  16
HETATM   16  C   UNL     1      27.719  41.339  51.257  1.00  0.00     0.224 C 
HETATM   17  N   UNL     1      28.729  40.807  50.493  1.00  0.00    -0.327 N 
HETATM   18  H   UNL     1      29.685  41.092  50.685  1.00  0.00     0.169 HD
HETATM   19  O   UNL     1      26.518  41.073  51.214  1.00  0.00    -0.273 OA
BRANCH  17  20
HETATM   20  C   UNL     1      28.581  39.921  49.402  1.00  0.00     0.034 A 
HETATM   21  C   UNL     1      28.113  40.305  48.145  1.00  0.00     0.030 A 
HETATM   22  C   UNL     1      28.058  39.381  47.095  1.00  0.00     0.009 A 
HETATM   23  C   UNL     1      28.465  38.059  47.288  1.00  0.00    -0.062 A 
HETATM   24  C   UNL     1      28.433  37.071  46.161  1.00  0.00     0.048 C 
HETATM   25  C   UNL     1      28.927  37.673  48.550  1.00  0.00     0.009 A 
HETATM   26  C   UNL     1      28.976  38.593  49.600  1.00  0.00     0.030 A 
ENDBRANCH  17  20
ENDBRANCH  15  16
ENDBRANCH   1  15
TORSDOF 3
ENDMDL
