MODEL 1
REMARK VINA RESULT:     -11.6      0.000      0.000
REMARK  6 active torsions:
REMARK  status: ('A' for Active; 'I' for Inactive)
REMARK    1  A    between atoms: C_4  and  C_5 
REMARK    2  A    between atoms: C_8  and  C_9 
REMARK    3  A    between atoms: C_9  and  N_10 
REMARK       I    between atoms: N_10  and  C_11 
REMARK       I    between atoms: C_11  and  N_12 
REMARK    4  A    between atoms: N_12  and  C_13 
REMARK    5  A    between atoms: C_16  and  C_17 
REMARK    6  A    between atoms: C_29  and  C_30 
ROOT
HETATM    1  C   UNL     1      26.199  44.398  52.054  1.00  0.00     0.068 C 
HETATM    2  C   UNL     1      27.071  44.011  50.820  1.00  0.00     0.001 C 
HETATM    3  C   UNL     1      27.488  45.245  49.986  1.00  0.00     0.040 C 
HETATM    4  C   UNL     1      26.261  46.088  49.600  1.00  0.00     0.206 C 
HETATM    5  N   UNL     1      25.030  45.306  50.058  1.00  0.00    -0.065 N 
HETATM    6  H   UNL     1      24.200  45.874  49.778  1.00  0.00     0.280 HD
HETATM    7  C   UNL     1      24.946  45.145  51.562  1.00  0.00     0.246 C 
HETATM    8  C   UNL     1      26.184  43.143  49.890  1.00  0.00     0.033 C 
HETATM    9  C   UNL     1      24.981  43.956  49.386  1.00  0.00     0.236 C 
ENDROOT
BRANCH   4  10
HETATM   10  C   UNL     1      26.311  47.542  50.143  1.00  0.00     0.157 C 
BRANCH  10  11
HETATM   11  N   UNL     1      25.559  48.536  49.375  1.00  0.00    -0.341 N 
HETATM   12  C   UNL     1      24.187  48.650  49.402  1.00  0.00     0.320 C 
HETATM   13  N   UNL     1      23.760  49.746  48.699  1.00  0.00    -0.309 N 
HETATM   14  O   UNL     1      23.486  47.812  49.960  1.00  0.00    -0.247 OA
HETATM   15  H   UNL     1      24.451  50.211  48.126  1.00  0.00     0.170 HD
HETATM   16  H   UNL     1      26.041  49.417  49.241  1.00  0.00     0.164 HD
BRANCH  13  17
HETATM   17  C   UNL     1      22.438  50.219  48.559  1.00  0.00     0.036 A 
HETATM   18  C   UNL     1      21.686  50.105  47.387  1.00  0.00     0.030 A 
HETATM   19  C   UNL     1      20.376  50.601  47.327  1.00  0.00     0.017 A 
HETATM   20  C   UNL     1      19.800  51.214  48.443  1.00  0.00     0.009 A 
HETATM   21  C   UNL     1      20.550  51.321  49.619  1.00  0.00     0.017 A 
HETATM   22  C   UNL     1      21.856  50.824  49.678  1.00  0.00     0.030 A 
BRANCH  20  23
HETATM   23  C   UNL     1      18.414  51.766  48.430  1.00  0.00     0.155 C 
HETATM   24  C   UNL     1      17.866  52.403  49.680  1.00  0.00     0.096 C 
HETATM   25  O   UNL     1      17.739  51.690  47.405  1.00  0.00    -0.293 OA
ENDBRANCH  20  23
ENDBRANCH  13  17
ENDBRANCH  10  11
ENDBRANCH   4  10
BRANCH   1  26
HETATM   26  C   UNL     1      26.874  45.197  53.152  1.00  0.00     0.045 A 
HETATM   27  N   UNL     1      26.295  46.341  53.553  1.00  0.00    -0.238 NA
HETATM   28  C   UNL     1      26.860  46.996  54.587  1.00  0.00     0.123 A 
HETATM   29  C   UNL     1      26.274  48.312  54.993  1.00  0.00     0.093 C 
HETATM   30  N   UNL     1      27.898  46.535  55.295  1.00  0.00    -0.233 NA
HETATM   31  C   UNL     1      28.440  45.362  54.911  1.00  0.00     0.072 A 
HETATM   32  C   UNL     1      27.983  44.680  53.798  1.00  0.00     0.060 A 
BRANCH  31  33
HETATM   33  C   UNL     1      29.533  44.863  55.759  1.00  0.00     0.010 A 
HETATM   34  C   UNL     1      30.382  43.796  55.400  1.00  0.00     0.023 A 
HETATM   35 BR   UNL     1      30.173  42.812  53.778  1.00  0.00    -0.050 Br
HETATM   36  C   UNL     1      31.406  43.369  56.256  1.00  0.00     0.020 A 
HETATM   37  C   UNL     1      31.592  43.988  57.491  1.00  0.00     0.001 A 
HETATM   38  C   UNL     1      30.754  45.028  57.876  1.00  0.00     0.001 A 
HETATM   39  C   UNL     1      29.737  45.457  57.021  1.00  0.00     0.015 A 
ENDBRANCH  31  33
ENDBRANCH   1  26
TORSDOF 6
ENDMDL
MODEL 2
REMARK VINA RESULT:     -10.2      3.636     10.816
REMARK  6 active torsions:
REMARK  status: ('A' for Active; 'I' for Inactive)
REMARK    1  A    between atoms: C_4  and  C_5 
REMARK    2  A    between atoms: C_8  and  C_9 
REMARK    3  A    between atoms: C_9  and  N_10 
REMARK       I    between atoms: N_10  and  C_11 
REMARK       I    between atoms: C_11  and  N_12 
REMARK    4  A    between atoms: N_12  and  C_13 
REMARK    5  A    between atoms: C_16  and  C_17 
REMARK    6  A    between atoms: C_29  and  C_30 
ROOT
HETATM    1  C   UNL     1      21.401  46.195  47.051  1.00  0.00     0.068 C 
HETATM    2  C   UNL     1      20.552  45.169  47.862  1.00  0.00     0.001 C 
HETATM    3  C   UNL     1      21.268  44.702  49.150  1.00  0.00     0.040 C 
HETATM    4  C   UNL     1      22.680  44.180  48.836  1.00  0.00     0.206 C 
HETATM    5  N   UNL     1      22.814  44.167  47.313  1.00  0.00    -0.065 N 
HETATM    6  H   UNL     1      23.767  43.797  47.104  1.00  0.00     0.280 HD
HETATM    7  C   UNL     1      22.752  45.549  46.693  1.00  0.00     0.246 C 
HETATM    8  C   UNL     1      20.395  43.907  46.975  1.00  0.00     0.033 C 
HETATM    9  C   UNL     1      21.767  43.273  46.697  1.00  0.00     0.236 C 
ENDROOT
BRANCH   4  10
HETATM   10  C   UNL     1      23.809  44.971  49.552  1.00  0.00     0.157 C 
BRANCH  10  11
HETATM   11  N   UNL     1      24.364  44.345  50.752  1.00  0.00    -0.341 N 
HETATM   12  C   UNL     1      25.635  44.586  51.226  1.00  0.00     0.320 C 
HETATM   13  N   UNL     1      25.845  43.975  52.434  1.00  0.00    -0.309 N 
HETATM   14  O   UNL     1      26.449  45.231  50.574  1.00  0.00    -0.247 OA
HETATM   15  H   UNL     1      25.143  43.310  52.731  1.00  0.00     0.170 HD
HETATM   16  H   UNL     1      23.686  44.153  51.480  1.00  0.00     0.164 HD
BRANCH  13  17
HETATM   17  C   UNL     1      26.994  44.049  53.250  1.00  0.00     0.036 A 
HETATM   18  C   UNL     1      28.105  43.211  53.114  1.00  0.00     0.030 A 
HETATM   19  C   UNL     1      29.211  43.348  53.964  1.00  0.00     0.017 A 
HETATM   20  C   UNL     1      29.221  44.329  54.960  1.00  0.00     0.009 A 
HETATM   21  C   UNL     1      28.112  45.173  55.091  1.00  0.00     0.017 A 
HETATM   22  C   UNL     1      27.011  45.037  54.240  1.00  0.00     0.030 A 
BRANCH  20  23
HETATM   23  C   UNL     1      30.368  44.511  55.897  1.00  0.00     0.155 C 
HETATM   24  C   UNL     1      31.183  43.311  56.301  1.00  0.00     0.096 C 
HETATM   25  O   UNL     1      30.629  45.633  56.327  1.00  0.00    -0.293 OA
ENDBRANCH  20  23
ENDBRANCH  13  17
ENDBRANCH  10  11
ENDBRANCH   4  10
BRANCH   1  26
HETATM   26  C   UNL     1      21.634  47.551  47.686  1.00  0.00     0.045 A 
HETATM   27  N   UNL     1      22.891  48.026  47.730  1.00  0.00    -0.238 NA
HETATM   28  C   UNL     1      23.071  49.268  48.220  1.00  0.00     0.123 A 
HETATM   29  C   UNL     1      24.472  49.779  48.350  1.00  0.00     0.093 C 
HETATM   30  N   UNL     1      22.077  50.090  48.576  1.00  0.00    -0.233 NA
HETATM   31  C   UNL     1      20.817  49.619  48.482  1.00  0.00     0.072 A 
HETATM   32  C   UNL     1      20.555  48.320  48.085  1.00  0.00     0.060 A 
BRANCH  31  33
HETATM   33  C   UNL     1      19.756  50.580  48.818  1.00  0.00     0.010 A 
HETATM   34  C   UNL     1      18.777  50.355  49.808  1.00  0.00     0.023 A 
HETATM   35 BR   UNL     1      18.667  48.728  50.799  1.00  0.00    -0.050 Br
HETATM   36  C   UNL     1      17.791  51.314  50.080  1.00  0.00     0.020 A 
HETATM   37  C   UNL     1      17.756  52.506  49.360  1.00  0.00     0.001 A 
HETATM   38  C   UNL     1      18.697  52.742  48.364  1.00  0.00     0.001 A 
HETATM   39  C   UNL     1      19.683  51.788  48.097  1.00  0.00     0.015 A 
ENDBRANCH  31  33
ENDBRANCH   1  26
TORSDOF 6
ENDMDL
MODEL 3
REMARK VINA RESULT:     -10.0      3.860     10.098
REMARK  6 active torsions:
REMARK  status: ('A' for Active; 'I' for Inactive)
REMARK    1  A    between atoms: C_4  and  C_5 
REMARK    2  A    between atoms: C_8  and  C_9 
REMARK    3  A    between atoms: C_9  and  N_10 
REMARK       I    between atoms: N_10  and  C_11 
REMARK       I    between atoms: C_11  and  N_12 
REMARK    4  A    between atoms: N_12  and  C_13 
REMARK    5  A    between atoms: C_16  and  C_17 
REMARK    6  A    between atoms: C_29  and  C_30 
ROOT
HETATM    1  C   UNL     1      20.624  45.982  46.216  1.00  0.00     0.068 C 
HETATM    2  C   UNL     1      19.995  44.687  46.816  1.00  0.00     0.001 C 
HETATM    3  C   UNL     1      21.008  43.878  47.659  1.00  0.00     0.040 C 
HETATM    4  C   UNL     1      22.288  43.594  46.856  1.00  0.00     0.206 C 
HETATM    5  N   UNL     1      22.034  44.091  45.432  1.00  0.00    -0.065 N 
HETATM    6  H   UNL     1      22.899  43.881  44.887  1.00  0.00     0.280 HD
HETATM    7  C   UNL     1      21.833  45.591  45.347  1.00  0.00     0.246 C 
HETATM    8  C   UNL     1      19.604  43.777  45.622  1.00  0.00     0.033 C 
HETATM    9  C   UNL     1      20.854  43.373  44.825  1.00  0.00     0.236 C 
ENDROOT
BRANCH   4  10
HETATM   10  C   UNL     1      23.571  44.188  47.500  1.00  0.00     0.157 C 
BRANCH  10  11
HETATM   11  N   UNL     1      23.466  44.551  48.914  1.00  0.00    -0.341 N 
HETATM   12  C   UNL     1      24.548  44.680  49.756  1.00  0.00     0.320 C 
HETATM   13  N   UNL     1      24.174  45.159  50.984  1.00  0.00    -0.309 N 
HETATM   14  O   UNL     1      25.674  44.342  49.407  1.00  0.00    -0.247 OA
HETATM   15  H   UNL     1      23.181  45.187  51.174  1.00  0.00     0.170 HD
HETATM   16  H   UNL     1      22.700  45.177  49.132  1.00  0.00     0.164 HD
BRANCH  13  17
HETATM   17  C   UNL     1      25.010  45.479  52.075  1.00  0.00     0.036 A 
HETATM   18  C   UNL     1      25.442  44.553  53.028  1.00  0.00     0.030 A 
HETATM   19  C   UNL     1      26.274  44.950  54.085  1.00  0.00     0.017 A 
HETATM   20  C   UNL     1      26.686  46.281  54.199  1.00  0.00     0.009 A 
HETATM   21  C   UNL     1      26.260  47.207  53.241  1.00  0.00     0.017 A 
HETATM   22  C   UNL     1      25.433  46.808  52.185  1.00  0.00     0.030 A 
BRANCH  20  23
HETATM   23  C   UNL     1      27.563  46.758  55.308  1.00  0.00     0.155 C 
HETATM   24  C   UNL     1      28.883  46.072  55.546  1.00  0.00     0.096 C 
HETATM   25  O   UNL     1      27.196  47.696  56.012  1.00  0.00    -0.293 OA
ENDBRANCH  20  23
ENDBRANCH  13  17
ENDBRANCH  10  11
ENDBRANCH   4  10
BRANCH   1  26
HETATM   26  C   UNL     1      21.026  47.069  47.194  1.00  0.00     0.045 A 
HETATM   27  N   UNL     1      22.316  47.147  47.562  1.00  0.00    -0.238 NA
HETATM   28  C   UNL     1      22.674  48.170  48.364  1.00  0.00     0.123 A 
HETATM   29  C   UNL     1      24.090  48.225  48.847  1.00  0.00     0.093 C 
HETATM   30  N   UNL     1      21.853  49.158  48.739  1.00  0.00    -0.233 NA
HETATM   31  C   UNL     1      20.572  49.092  48.323  1.00  0.00     0.072 A 
HETATM   32  C   UNL     1      20.102  48.023  47.583  1.00  0.00     0.060 A 
BRANCH  31  33
HETATM   33  C   UNL     1      19.725  50.233  48.702  1.00  0.00     0.010 A 
HETATM   34  C   UNL     1      18.834  50.222  49.795  1.00  0.00     0.023 A 
HETATM   35 BR   UNL     1      18.565  48.683  50.891  1.00  0.00    -0.050 Br
HETATM   36  C   UNL     1      18.055  51.346  50.102  1.00  0.00     0.020 A 
HETATM   37  C   UNL     1      18.138  52.494  49.316  1.00  0.00     0.001 A 
HETATM   38  C   UNL     1      18.993  52.521  48.221  1.00  0.00     0.001 A 
HETATM   39  C   UNL     1      19.774  51.403  47.918  1.00  0.00     0.015 A 
ENDBRANCH  31  33
ENDBRANCH   1  26
TORSDOF 6
ENDMDL
MODEL 4
REMARK VINA RESULT:     -10.0      5.003      8.884
REMARK  6 active torsions:
REMARK  status: ('A' for Active; 'I' for Inactive)
REMARK    1  A    between atoms: C_4  and  C_5 
REMARK    2  A    between atoms: C_8  and  C_9 
REMARK    3  A    between atoms: C_9  and  N_10 
REMARK       I    between atoms: N_10  and  C_11 
REMARK       I    between atoms: C_11  and  N_12 
REMARK    4  A    between atoms: N_12  and  C_13 
REMARK    5  A    between atoms: C_16  and  C_17 
REMARK    6  A    between atoms: C_29  and  C_30 
ROOT
HETATM    1  C   UNL     1      26.823  44.732  51.444  1.00  0.00     0.068 C 
HETATM    2  C   UNL     1      25.289  44.770  51.726  1.00  0.00     0.001 C 
HETATM    3  C   UNL     1      24.600  43.423  51.406  1.00  0.00     0.040 C 
HETATM    4  C   UNL     1      24.924  42.966  49.974  1.00  0.00     0.206 C 
HETATM    5  N   UNL     1      25.704  44.105  49.315  1.00  0.00    -0.065 N 
HETATM    6  H   UNL     1      25.907  43.796  48.339  1.00  0.00     0.280 HD
HETATM    7  C   UNL     1      27.047  44.368  49.965  1.00  0.00     0.246 C 
HETATM    8  C   UNL     1      24.674  45.810  50.754  1.00  0.00     0.033 C 
HETATM    9  C   UNL     1      24.878  45.368  49.296  1.00  0.00     0.236 C 
ENDROOT
BRANCH   4  10
HETATM   10  C   UNL     1      25.654  41.596  49.910  1.00  0.00     0.157 C 
BRANCH  10  11
HETATM   11  N   UNL     1      25.693  40.955  48.595  1.00  0.00    -0.341 N 
HETATM   12  C   UNL     1      26.746  41.071  47.715  1.00  0.00     0.320 C 
HETATM   13  N   UNL     1      26.578  40.262  46.622  1.00  0.00    -0.309 N 
HETATM   14  O   UNL     1      27.665  41.858  47.917  1.00  0.00    -0.247 OA
HETATM   15  H   UNL     1      25.668  39.836  46.511  1.00  0.00     0.170 HD
HETATM   16  H   UNL     1      25.215  40.063  48.548  1.00  0.00     0.164 HD
BRANCH  13  17
HETATM   17  C   UNL     1      27.474  40.065  45.549  1.00  0.00     0.036 A 
HETATM   18  C   UNL     1      27.950  41.092  44.730  1.00  0.00     0.030 A 
HETATM   19  C   UNL     1      28.841  40.816  43.683  1.00  0.00     0.017 A 
HETATM   20  C   UNL     1      29.269  39.507  43.445  1.00  0.00     0.009 A 
HETATM   21  C   UNL     1      28.798  38.479  44.270  1.00  0.00     0.017 A 
HETATM   22  C   UNL     1      27.912  38.758  45.316  1.00  0.00     0.030 A 
BRANCH  20  23
HETATM   23  C   UNL     1      30.208  39.158  42.339  1.00  0.00     0.155 C 
HETATM   24  C   UNL     1      31.061  37.923  42.464  1.00  0.00     0.096 C 
HETATM   25  O   UNL     1      30.275  39.882  41.347  1.00  0.00    -0.293 OA
ENDBRANCH  20  23
ENDBRANCH  13  17
ENDBRANCH  10  11
ENDBRANCH   4  10
BRANCH   1  26
HETATM   26  C   UNL     1      27.663  43.831  52.327  1.00  0.00     0.045 A 
HETATM   27  N   UNL     1      27.978  42.607  51.870  1.00  0.00    -0.238 NA
HETATM   28  C   UNL     1      28.796  41.850  52.628  1.00  0.00     0.123 A 
HETATM   29  C   UNL     1      29.092  40.456  52.171  1.00  0.00     0.093 C 
HETATM   30  N   UNL     1      29.385  42.271  53.753  1.00  0.00    -0.233 NA
HETATM   31  C   UNL     1      29.097  43.518  54.176  1.00  0.00     0.072 A 
HETATM   32  C   UNL     1      28.189  44.320  53.510  1.00  0.00     0.060 A 
BRANCH  31  33
HETATM   33  C   UNL     1      29.820  43.960  55.378  1.00  0.00     0.010 A 
HETATM   34  C   UNL     1      29.614  45.207  56.005  1.00  0.00     0.023 A 
HETATM   35 BR   UNL     1      28.406  46.517  55.323  1.00  0.00    -0.050 Br
HETATM   36  C   UNL     1      30.338  45.568  57.150  1.00  0.00     0.020 A 
HETATM   37  C   UNL     1      31.289  44.699  57.681  1.00  0.00     0.001 A 
HETATM   38  C   UNL     1      31.525  43.473  57.069  1.00  0.00     0.001 A 
HETATM   39  C   UNL     1      30.800  43.112  55.931  1.00  0.00     0.015 A 
ENDBRANCH  31  33
ENDBRANCH   1  26
TORSDOF 6
ENDMDL
MODEL 5
REMARK VINA RESULT:      -9.7      5.198      7.910
REMARK  6 active torsions:
REMARK  status: ('A' for Active; 'I' for Inactive)
REMARK    1  A    between atoms: C_4  and  C_5 
REMARK    2  A    between atoms: C_8  and  C_9 
REMARK    3  A    between atoms: C_9  and  N_10 
REMARK       I    between atoms: N_10  and  C_11 
REMARK       I    between atoms: C_11  and  N_12 
REMARK    4  A    between atoms: N_12  and  C_13 
REMARK    5  A    between atoms: C_16  and  C_17 
REMARK    6  A    between atoms: C_29  and  C_30 
ROOT
HETATM    1  C   UNL     1      20.327  46.583  48.391  1.00  0.00     0.068 C 
HETATM    2  C   UNL     1      20.587  45.891  47.018  1.00  0.00     0.001 C 
HETATM    3  C   UNL     1      20.170  46.781  45.824  1.00  0.00     0.040 C 
HETATM    4  C   UNL     1      18.717  47.261  45.977  1.00  0.00     0.206 C 
HETATM    5  N   UNL     1      18.146  46.546  47.202  1.00  0.00    -0.065 N 
HETATM    6  H   UNL     1      17.155  46.862  47.292  1.00  0.00     0.280 HD
HETATM    7  C   UNL     1      18.832  46.933  48.497  1.00  0.00     0.246 C 
HETATM    8  C   UNL     1      19.675  44.639  46.961  1.00  0.00     0.033 C 
HETATM    9  C   UNL     1      18.196  45.050  47.013  1.00  0.00     0.236 C 
ENDROOT
BRANCH   4  10
HETATM   10  C   UNL     1      18.576  48.807  46.038  1.00  0.00     0.157 C 
BRANCH  10  11
HETATM   11  N   UNL     1      17.406  49.313  46.757  1.00  0.00    -0.341 N 
HETATM   12  C   UNL     1      17.346  50.557  47.345  1.00  0.00     0.320 C 
HETATM   13  N   UNL     1      16.093  50.823  47.831  1.00  0.00    -0.309 N 
HETATM   14  O   UNL     1      18.340  51.270  47.437  1.00  0.00    -0.247 OA
HETATM   15  H   UNL     1      15.446  50.046  47.859  1.00  0.00     0.170 HD
HETATM   16  H   UNL     1      16.517  48.985  46.400  1.00  0.00     0.164 HD
BRANCH  13  17
HETATM   17  C   UNL     1      15.637  52.014  48.435  1.00  0.00     0.036 A 
HETATM   18  C   UNL     1      14.906  53.000  47.767  1.00  0.00     0.030 A 
HETATM   19  C   UNL     1      14.488  54.158  48.438  1.00  0.00     0.017 A 
HETATM   20  C   UNL     1      14.794  54.341  49.790  1.00  0.00     0.009 A 
HETATM   21  C   UNL     1      15.520  53.350  50.461  1.00  0.00     0.017 A 
HETATM   22  C   UNL     1      15.933  52.195  49.790  1.00  0.00     0.030 A 
BRANCH  20  23
HETATM   23  C   UNL     1      14.382  55.558  50.549  1.00  0.00     0.155 C 
HETATM   24  C   UNL     1      14.933  55.781  51.932  1.00  0.00     0.096 C 
HETATM   25  O   UNL     1      13.597  56.355  50.038  1.00  0.00    -0.293 OA
ENDBRANCH  20  23
ENDBRANCH  13  17
ENDBRANCH  10  11
ENDBRANCH   4  10
BRANCH   1  26
HETATM   26  C   UNL     1      21.164  47.806  48.716  1.00  0.00     0.045 A 
HETATM   27  N   UNL     1      20.551  48.867  49.269  1.00  0.00    -0.238 NA
HETATM   28  C   UNL     1      21.321  49.912  49.630  1.00  0.00     0.123 A 
HETATM   29  C   UNL     1      20.645  51.132  50.174  1.00  0.00     0.093 C 
HETATM   30  N   UNL     1      22.657  49.925  49.560  1.00  0.00    -0.233 NA
HETATM   31  C   UNL     1      23.263  48.835  49.046  1.00  0.00     0.072 A 
HETATM   32  C   UNL     1      22.538  47.763  48.559  1.00  0.00     0.060 A 
BRANCH  31  33
HETATM   33  C   UNL     1      24.733  48.867  49.052  1.00  0.00     0.010 A 
HETATM   34  C   UNL     1      25.537  47.939  49.746  1.00  0.00     0.023 A 
HETATM   35 BR   UNL     1      24.805  46.549  50.830  1.00  0.00    -0.050 Br
HETATM   36  C   UNL     1      26.935  48.026  49.710  1.00  0.00     0.020 A 
HETATM   37  C   UNL     1      27.556  49.048  48.995  1.00  0.00     0.001 A 
HETATM   38  C   UNL     1      26.785  49.988  48.321  1.00  0.00     0.001 A 
HETATM   39  C   UNL     1      25.391  49.898  48.352  1.00  0.00     0.015 A 
ENDBRANCH  31  33
ENDBRANCH   1  26
TORSDOF 6
ENDMDL
MODEL 6
REMARK VINA RESULT:      -9.6      4.371     10.872
REMARK  6 active torsions:
REMARK  status: ('A' for Active; 'I' for Inactive)
REMARK    1  A    between atoms: C_4  and  C_5 
REMARK    2  A    between atoms: C_8  and  C_9 
REMARK    3  A    between atoms: C_9  and  N_10 
REMARK       I    between atoms: N_10  and  C_11 
REMARK       I    between atoms: C_11  and  N_12 
REMARK    4  A    between atoms: N_12  and  C_13 
REMARK    5  A    between atoms: C_16  and  C_17 
REMARK    6  A    between atoms: C_29  and  C_30 
ROOT
HETATM    1  C   UNL     1      19.317  49.518  48.226  1.00  0.00     0.068 C 
HETATM    2  C   UNL     1      20.125  50.829  47.982  1.00  0.00     0.001 C 
HETATM    3  C   UNL     1      21.622  50.553  47.708  1.00  0.00     0.040 C 
HETATM    4  C   UNL     1      22.233  49.683  48.819  1.00  0.00     0.206 C 
HETATM    5  N   UNL     1      21.158  49.527  49.896  1.00  0.00    -0.065 N 
HETATM    6  H   UNL     1      21.582  48.950  50.654  1.00  0.00     0.280 HD
HETATM    7  C   UNL     1      19.936  48.767  49.419  1.00  0.00     0.246 C 
HETATM    8  C   UNL     1      20.072  51.648  49.298  1.00  0.00     0.033 C 
HETATM    9  C   UNL     1      20.753  50.875  50.438  1.00  0.00     0.236 C 
ENDROOT
BRANCH   4  10
HETATM   10  C   UNL     1      22.800  48.330  48.308  1.00  0.00     0.157 C 
BRANCH  10  11
HETATM   11  N   UNL     1      23.171  47.363  49.341  1.00  0.00    -0.341 N 
HETATM   12  C   UNL     1      24.323  47.445  50.092  1.00  0.00     0.320 C 
HETATM   13  N   UNL     1      24.352  46.489  51.073  1.00  0.00    -0.309 N 
HETATM   14  O   UNL     1      25.199  48.262  49.831  1.00  0.00    -0.247 OA
HETATM   15  H   UNL     1      23.649  45.764  51.017  1.00  0.00     0.170 HD
HETATM   16  H   UNL     1      22.388  46.953  49.835  1.00  0.00     0.164 HD
BRANCH  13  17
HETATM   17  C   UNL     1      25.334  46.307  52.070  1.00  0.00     0.036 A 
HETATM   18  C   UNL     1      25.613  47.239  53.072  1.00  0.00     0.030 A 
HETATM   19  C   UNL     1      26.605  46.984  54.030  1.00  0.00     0.017 A 
HETATM   20  C   UNL     1      27.329  45.789  53.997  1.00  0.00     0.009 A 
HETATM   21  C   UNL     1      27.045  44.852  52.997  1.00  0.00     0.017 A 
HETATM   22  C   UNL     1      26.052  45.107  52.046  1.00  0.00     0.030 A 
BRANCH  20  23
HETATM   23  C   UNL     1      28.402  45.472  54.985  1.00  0.00     0.155 C 
HETATM   24  C   UNL     1      29.233  44.231  54.792  1.00  0.00     0.096 C 
HETATM   25  O   UNL     1      28.588  46.222  55.941  1.00  0.00    -0.293 OA
ENDBRANCH  20  23
ENDBRANCH  13  17
ENDBRANCH  10  11
ENDBRANCH   4  10
BRANCH   1  26
HETATM   26  C   UNL     1      19.163  48.574  47.050  1.00  0.00     0.045 A 
HETATM   27  N   UNL     1      18.754  49.084  45.875  1.00  0.00    -0.238 NA
HETATM   28  C   UNL     1      18.705  48.250  44.818  1.00  0.00     0.123 A 
HETATM   29  C   UNL     1      18.176  48.783  43.523  1.00  0.00     0.093 C 
HETATM   30  N   UNL     1      19.122  46.979  44.839  1.00  0.00    -0.233 NA
HETATM   31  C   UNL     1      19.575  46.493  46.013  1.00  0.00     0.072 A 
HETATM   32  C   UNL     1      19.562  47.255  47.168  1.00  0.00     0.060 A 
BRANCH  31  33
HETATM   33  C   UNL     1      20.086  45.115  45.973  1.00  0.00     0.010 A 
HETATM   34  C   UNL     1      19.296  43.993  45.644  1.00  0.00     0.023 A 
HETATM   35 BR   UNL     1      17.428  44.119  45.273  1.00  0.00    -0.050 Br
HETATM   36  C   UNL     1      19.846  42.704  45.624  1.00  0.00     0.020 A 
HETATM   37  C   UNL     1      21.188  42.509  45.945  1.00  0.00     0.001 A 
HETATM   38  C   UNL     1      21.981  43.597  46.293  1.00  0.00     0.001 A 
HETATM   39  C   UNL     1      21.435  44.882  46.308  1.00  0.00     0.015 A 
ENDBRANCH  31  33
ENDBRANCH   1  26
TORSDOF 6
ENDMDL
MODEL 7
REMARK VINA RESULT:      -9.5      4.888     12.762
REMARK  6 active torsions:
REMARK  status: ('A' for Active; 'I' for Inactive)
REMARK    1  A    between atoms: C_4  and  C_5 
REMARK    2  A    between atoms: C_8  and  C_9 
REMARK    3  A    between atoms: C_9  and  N_10 
REMARK       I    between atoms: N_10  and  C_11 
REMARK       I    between atoms: C_11  and  N_12 
REMARK    4  A    between atoms: N_12  and  C_13 
REMARK    5  A    between atoms: C_16  and  C_17 
REMARK    6  A    between atoms: C_29  and  C_30 
ROOT
HETATM    1  C   UNL     1      18.778  50.085  48.037  1.00  0.00     0.068 C 
HETATM    2  C   UNL     1      19.706  51.286  48.394  1.00  0.00     0.001 C 
HETATM    3  C   UNL     1      21.205  50.923  48.282  1.00  0.00     0.040 C 
HETATM    4  C   UNL     1      21.529  49.664  49.103  1.00  0.00     0.206 C 
HETATM    5  N   UNL     1      20.258  49.303  49.874  1.00  0.00    -0.065 N 
HETATM    6  H   UNL     1      20.488  48.459  50.442  1.00  0.00     0.280 HD
HETATM    7  C   UNL     1      19.103  48.909  48.976  1.00  0.00     0.246 C 
HETATM    8  C   UNL     1      19.455  51.626  49.886  1.00  0.00     0.033 C 
HETATM    9  C   UNL     1      19.849  50.439  50.779  1.00  0.00     0.236 C 
ENDROOT
BRANCH   4  10
HETATM   10  C   UNL     1      22.090  48.493  48.251  1.00  0.00     0.157 C 
BRANCH  10  11
HETATM   11  N   UNL     1      22.541  47.318  48.998  1.00  0.00    -0.341 N 
HETATM   12  C   UNL     1      23.787  47.207  49.574  1.00  0.00     0.320 C 
HETATM   13  N   UNL     1      23.893  46.064  50.323  1.00  0.00    -0.309 N 
HETATM   14  O   UNL     1      24.667  48.034  49.362  1.00  0.00    -0.247 OA
HETATM   15  H   UNL     1      23.148  45.388  50.222  1.00  0.00     0.170 HD
HETATM   16  H   UNL     1      21.809  46.836  49.506  1.00  0.00     0.164 HD
BRANCH  13  17
HETATM   17  C   UNL     1      24.989  45.646  51.108  1.00  0.00     0.036 A 
HETATM   18  C   UNL     1      25.418  46.303  52.263  1.00  0.00     0.030 A 
HETATM   19  C   UNL     1      26.518  45.825  52.991  1.00  0.00     0.017 A 
HETATM   20  C   UNL     1      27.200  44.680  52.570  1.00  0.00     0.009 A 
HETATM   21  C   UNL     1      26.765  44.017  51.417  1.00  0.00     0.017 A 
HETATM   22  C   UNL     1      25.666  44.494  50.695  1.00  0.00     0.030 A 
BRANCH  20  23
HETATM   23  C   UNL     1      28.381  44.134  53.302  1.00  0.00     0.155 C 
HETATM   24  C   UNL     1      28.540  44.439  54.768  1.00  0.00     0.096 C 
HETATM   25  O   UNL     1      29.206  43.450  52.699  1.00  0.00    -0.293 OA
ENDBRANCH  20  23
ENDBRANCH  13  17
ENDBRANCH  10  11
ENDBRANCH   4  10
BRANCH   1  26
HETATM   26  C   UNL     1      18.790  49.609  46.597  1.00  0.00     0.045 A 
HETATM   27  N   UNL     1      18.716  48.288  46.363  1.00  0.00    -0.238 NA
HETATM   28  C   UNL     1      18.641  47.886  45.079  1.00  0.00     0.123 A 
HETATM   29  C   UNL     1      18.638  46.415  44.799  1.00  0.00     0.093 C 
HETATM   30  N   UNL     1      18.543  48.715  44.033  1.00  0.00    -0.233 NA
HETATM   31  C   UNL     1      18.572  50.039  44.286  1.00  0.00     0.072 A 
HETATM   32  C   UNL     1      18.748  50.531  45.566  1.00  0.00     0.060 A 
BRANCH  31  33
HETATM   33  C   UNL     1      18.393  50.910  43.114  1.00  0.00     0.010 A 
HETATM   34  C   UNL     1      17.285  51.763  42.931  1.00  0.00     0.023 A 
HETATM   35 BR   UNL     1      15.830  51.844  44.164  1.00  0.00    -0.050 Br
HETATM   36  C   UNL     1      17.175  52.568  41.789  1.00  0.00     0.020 A 
HETATM   37  C   UNL     1      18.159  52.527  40.804  1.00  0.00     0.001 A 
HETATM   38  C   UNL     1      19.250  51.678  40.952  1.00  0.00     0.001 A 
HETATM   39  C   UNL     1      19.363  50.879  42.092  1.00  0.00     0.015 A 
ENDBRANCH  31  33
ENDBRANCH   1  26
TORSDOF 6
ENDMDL
MODEL 8
REMARK VINA RESULT:      -9.4      4.817     12.030
REMARK  6 active torsions:
REMARK  status: ('A' for Active; 'I' for Inactive)
REMARK    1  A    between atoms: C_4  and  C_5 
REMARK    2  A    between atoms: C_8  and  C_9 
REMARK    3  A    between atoms: C_9  and  N_10 
REMARK       I    between atoms: N_10  and  C_11 
REMARK       I    between atoms: C_11  and  N_12 
REMARK    4  A    between atoms: N_12  and  C_13 
REMARK    5  A    between atoms: C_16  and  C_17 
REMARK    6  A    between atoms: C_29  and  C_30 
ROOT
HETATM    1  C   UNL     1      19.682  49.320  48.029  1.00  0.00     0.068 C 
HETATM    2  C   UNL     1      20.431  50.662  47.763  1.00  0.00     0.001 C 
HETATM    3  C   UNL     1      21.963  50.472  47.685  1.00  0.00     0.040 C 
HETATM    4  C   UNL     1      22.491  49.740  48.930  1.00  0.00     0.206 C 
HETATM    5  N   UNL     1      21.308  49.594  49.888  1.00  0.00    -0.065 N 
HETATM    6  H   UNL     1      21.675  49.112  50.737  1.00  0.00     0.280 HD
HETATM    7  C   UNL     1      20.201  48.713  49.345  1.00  0.00     0.246 C 
HETATM    8  C   UNL     1      20.171  51.577  48.987  1.00  0.00     0.033 C 
HETATM    9  C   UNL     1      20.759  50.949  50.260  1.00  0.00     0.236 C 
ENDROOT
BRANCH   4  10
HETATM   10  C   UNL     1      23.198  48.395  48.607  1.00  0.00     0.157 C 
BRANCH  10  11
HETATM   11  N   UNL     1      23.434  47.508  49.746  1.00  0.00    -0.341 N 
HETATM   12  C   UNL     1      24.658  47.358  50.361  1.00  0.00     0.320 C 
HETATM   13  N   UNL     1      24.564  46.573  51.480  1.00  0.00    -0.309 N 
HETATM   14  O   UNL     1      25.677  47.848  49.886  1.00  0.00    -0.247 OA
HETATM   15  H   UNL     1      23.692  46.078  51.613  1.00  0.00     0.170 HD
HETATM   16  H   UNL     1      22.645  47.409  50.374  1.00  0.00     0.164 HD
BRANCH  13  17
HETATM   17  C   UNL     1      25.589  46.252  52.396  1.00  0.00     0.036 A 
HETATM   18  C   UNL     1      26.325  45.065  52.362  1.00  0.00     0.030 A 
HETATM   19  C   UNL     1      27.330  44.820  53.309  1.00  0.00     0.017 A 
HETATM   20  C   UNL     1      27.612  45.763  54.301  1.00  0.00     0.009 A 
HETATM   21  C   UNL     1      26.880  46.956  54.331  1.00  0.00     0.017 A 
HETATM   22  C   UNL     1      25.880  47.199  53.384  1.00  0.00     0.030 A 
BRANCH  20  23
HETATM   23  C   UNL     1      28.664  45.548  55.338  1.00  0.00     0.155 C 
HETATM   24  C   UNL     1      29.614  44.390  55.189  1.00  0.00     0.096 C 
HETATM   25  O   UNL     1      28.736  46.314  56.297  1.00  0.00    -0.293 OA
ENDBRANCH  20  23
ENDBRANCH  13  17
ENDBRANCH  10  11
ENDBRANCH   4  10
BRANCH   1  26
HETATM   26  C   UNL     1      19.727  48.276  46.930  1.00  0.00     0.045 A 
HETATM   27  N   UNL     1      20.715  47.365  46.959  1.00  0.00    -0.238 NA
HETATM   28  C   UNL     1      20.693  46.393  46.026  1.00  0.00     0.123 A 
HETATM   29  C   UNL     1      21.829  45.418  45.996  1.00  0.00     0.093 C 
HETATM   30  N   UNL     1      19.708  46.222  45.136  1.00  0.00    -0.233 NA
HETATM   31  C   UNL     1      18.698  47.116  45.149  1.00  0.00     0.072 A 
HETATM   32  C   UNL     1      18.698  48.201  46.007  1.00  0.00     0.060 A 
BRANCH  31  33
HETATM   33  C   UNL     1      17.606  46.850  44.201  1.00  0.00     0.010 A 
HETATM   34  C   UNL     1      17.630  47.239  42.845  1.00  0.00     0.023 A 
HETATM   35 BR   UNL     1      19.072  48.229  42.081  1.00  0.00    -0.050 Br
HETATM   36  C   UNL     1      16.554  46.953  41.993  1.00  0.00     0.020 A 
HETATM   37  C   UNL     1      15.430  46.290  42.481  1.00  0.00     0.001 A 
HETATM   38  C   UNL     1      15.374  45.916  43.819  1.00  0.00     0.001 A 
HETATM   39  C   UNL     1      16.448  46.196  44.667  1.00  0.00     0.015 A 
ENDBRANCH  31  33
ENDBRANCH   1  26
TORSDOF 6
ENDMDL
MODEL 9
REMARK VINA RESULT:      -9.0      3.788      9.959
REMARK  6 active torsions:
REMARK  status: ('A' for Active; 'I' for Inactive)
REMARK    1  A    between atoms: C_4  and  C_5 
REMARK    2  A    between atoms: C_8  and  C_9 
REMARK    3  A    between atoms: C_9  and  N_10 
REMARK       I    between atoms: N_10  and  C_11 
REMARK       I    between atoms: C_11  and  N_12 
REMARK    4  A    between atoms: N_12  and  C_13 
REMARK    5  A    between atoms: C_16  and  C_17 
REMARK    6  A    between atoms: C_29  and  C_30 
ROOT
HETATM    1  C   UNL     1      19.437  48.328  48.097  1.00  0.00     0.068 C 
HETATM    2  C   UNL     1      19.636  49.792  47.597  1.00  0.00     0.001 C 
HETATM    3  C   UNL     1      21.130  50.173  47.477  1.00  0.00     0.040 C 
HETATM    4  C   UNL     1      21.876  49.894  48.792  1.00  0.00     0.206 C 
HETATM    5  N   UNL     1      20.820  49.473  49.815  1.00  0.00    -0.065 N 
HETATM    6  H   UNL     1      21.329  49.301  50.710  1.00  0.00     0.280 HD
HETATM    7  C   UNL     1      20.128  48.172  49.463  1.00  0.00     0.246 C 
HETATM    8  C   UNL     1      19.039  50.727  48.679  1.00  0.00     0.033 C 
HETATM    9  C   UNL     1      19.802  50.570  50.004  1.00  0.00     0.236 C 
ENDROOT
BRANCH   4  10
HETATM   10  C   UNL     1      23.037  48.872  48.643  1.00  0.00     0.157 C 
BRANCH  10  11
HETATM   11  N   UNL     1      23.223  47.949  49.763  1.00  0.00    -0.341 N 
HETATM   12  C   UNL     1      24.455  47.529  50.215  1.00  0.00     0.320 C 
HETATM   13  N   UNL     1      24.342  46.778  51.356  1.00  0.00    -0.309 N 
HETATM   14  O   UNL     1      25.484  47.783  49.597  1.00  0.00    -0.247 OA
HETATM   15  H   UNL     1      23.408  46.489  51.614  1.00  0.00     0.170 HD
HETATM   16  H   UNL     1      22.524  48.025  50.492  1.00  0.00     0.164 HD
BRANCH  13  17
HETATM   17  C   UNL     1      25.384  46.235  52.136  1.00  0.00     0.036 A 
HETATM   18  C   UNL     1      25.923  44.960  51.942  1.00  0.00     0.030 A 
HETATM   19  C   UNL     1      26.960  44.491  52.761  1.00  0.00     0.017 A 
HETATM   20  C   UNL     1      27.473  45.294  53.784  1.00  0.00     0.009 A 
HETATM   21  C   UNL     1      26.939  46.574  53.973  1.00  0.00     0.017 A 
HETATM   22  C   UNL     1      25.906  47.041  53.153  1.00  0.00     0.030 A 
BRANCH  20  23
HETATM   23  C   UNL     1      28.569  44.840  54.689  1.00  0.00     0.155 C 
HETATM   24  C   UNL     1      29.443  43.690  54.263  1.00  0.00     0.096 C 
HETATM   25  O   UNL     1      28.741  45.407  55.767  1.00  0.00    -0.293 OA
ENDBRANCH  20  23
ENDBRANCH  13  17
ENDBRANCH  10  11
ENDBRANCH   4  10
BRANCH   1  26
HETATM   26  C   UNL     1      19.882  47.216  47.167  1.00  0.00     0.045 A 
HETATM   27  N   UNL     1      19.610  47.336  45.856  1.00  0.00    -0.238 NA
HETATM   28  C   UNL     1      20.086  46.382  45.032  1.00  0.00     0.123 A 
HETATM   29  C   UNL     1      19.724  46.458  43.581  1.00  0.00     0.093 C 
HETATM   30  N   UNL     1      20.886  45.381  45.418  1.00  0.00    -0.233 NA
HETATM   31  C   UNL     1      21.191  45.300  46.729  1.00  0.00     0.072 A 
HETATM   32  C   UNL     1      20.659  46.180  47.654  1.00  0.00     0.060 A 
BRANCH  31  33
HETATM   33  C   UNL     1      22.126  44.226  47.095  1.00  0.00     0.010 A 
HETATM   34  C   UNL     1      21.946  42.872  46.742  1.00  0.00     0.023 A 
HETATM   35 BR   UNL     1      20.413  42.250  45.791  1.00  0.00    -0.050 Br
HETATM   36  C   UNL     1      22.877  41.897  47.123  1.00  0.00     0.020 A 
HETATM   37  C   UNL     1      23.996  42.251  47.876  1.00  0.00     0.001 A 
HETATM   38  C   UNL     1      24.184  43.575  48.254  1.00  0.00     0.001 A 
HETATM   39  C   UNL     1      23.258  44.548  47.870  1.00  0.00     0.015 A 
ENDBRANCH  31  33
ENDBRANCH   1  26
TORSDOF 6
ENDMDL
MODEL 10
REMARK VINA RESULT:      -8.9      6.020     12.670
REMARK  6 active torsions:
REMARK  status: ('A' for Active; 'I' for Inactive)
REMARK    1  A    between atoms: C_4  and  C_5 
REMARK    2  A    between atoms: C_8  and  C_9 
REMARK    3  A    between atoms: C_9  and  N_10 
REMARK       I    between atoms: N_10  and  C_11 
REMARK       I    between atoms: C_11  and  N_12 
REMARK    4  A    between atoms: N_12  and  C_13 
REMARK    5  A    between atoms: C_16  and  C_17 
REMARK    6  A    between atoms: C_29  and  C_30 
ROOT
HETATM    1  C   UNL     1      19.779  51.124  49.263  1.00  0.00     0.068 C 
HETATM    2  C   UNL     1      20.801  51.143  48.085  1.00  0.00     0.001 C 
HETATM    3  C   UNL     1      20.864  49.789  47.341  1.00  0.00     0.040 C 
HETATM    4  C   UNL     1      21.119  48.633  48.323  1.00  0.00     0.206 C 
HETATM    5  N   UNL     1      21.375  49.268  49.691  1.00  0.00    -0.065 N 
HETATM    6  H   UNL     1      21.564  48.481  50.350  1.00  0.00     0.280 HD
HETATM    7  C   UNL     1      20.173  50.006  50.245  1.00  0.00     0.246 C 
HETATM    8  C   UNL     1      22.205  51.360  48.705  1.00  0.00     0.033 C 
HETATM    9  C   UNL     1      22.569  50.188  49.631  1.00  0.00     0.236 C 
ENDROOT
BRANCH   4  10
HETATM   10  C   UNL     1      19.989  47.568  48.336  1.00  0.00     0.157 C 
BRANCH  10  11
HETATM   11  N   UNL     1      20.330  46.283  48.947  1.00  0.00    -0.341 N 
HETATM   12  C   UNL     1      21.488  45.587  48.677  1.00  0.00     0.320 C 
HETATM   13  N   UNL     1      21.614  44.488  49.485  1.00  0.00    -0.309 N 
HETATM   14  O   UNL     1      22.245  45.931  47.775  1.00  0.00    -0.247 OA
HETATM   15  H   UNL     1      20.800  44.233  50.029  1.00  0.00     0.170 HD
HETATM   16  H   UNL     1      19.993  46.164  49.895  1.00  0.00     0.164 HD
BRANCH  13  17
HETATM   17  C   UNL     1      22.692  43.579  49.543  1.00  0.00     0.036 A 
HETATM   18  C   UNL     1      22.851  42.498  48.673  1.00  0.00     0.030 A 
HETATM   19  C   UNL     1      23.952  41.639  48.794  1.00  0.00     0.017 A 
HETATM   20  C   UNL     1      24.911  41.854  49.788  1.00  0.00     0.009 A 
HETATM   21  C   UNL     1      24.756  42.941  50.655  1.00  0.00     0.017 A 
HETATM   22  C   UNL     1      23.658  43.799  50.530  1.00  0.00     0.030 A 
BRANCH  20  23
HETATM   23  C   UNL     1      26.096  40.965  49.967  1.00  0.00     0.155 C 
HETATM   24  C   UNL     1      26.285  39.799  49.033  1.00  0.00     0.096 C 
HETATM   25  O   UNL     1      26.896  41.193  50.872  1.00  0.00    -0.293 OA
ENDBRANCH  20  23
ENDBRANCH  13  17
ENDBRANCH  10  11
ENDBRANCH   4  10
BRANCH   1  26
HETATM   26  C   UNL     1      18.312  50.994  48.901  1.00  0.00     0.045 A 
HETATM   27  N   UNL     1      17.855  49.788  48.524  1.00  0.00    -0.238 NA
HETATM   28  C   UNL     1      16.533  49.669  48.288  1.00  0.00     0.123 A 
HETATM   29  C   UNL     1      16.021  48.353  47.791  1.00  0.00     0.093 C 
HETATM   30  N   UNL     1      15.639  50.643  48.493  1.00  0.00    -0.233 NA
HETATM   31  C   UNL     1      16.106  51.835  48.917  1.00  0.00     0.072 A 
HETATM   32  C   UNL     1      17.459  52.068  49.084  1.00  0.00     0.060 A 
BRANCH  31  33
HETATM   33  C   UNL     1      15.081  52.853  49.193  1.00  0.00     0.010 A 
HETATM   34  C   UNL     1      14.393  53.568  48.191  1.00  0.00     0.023 A 
HETATM   35 BR   UNL     1      14.758  53.347  46.331  1.00  0.00    -0.050 Br
HETATM   36  C   UNL     1      13.426  54.527  48.524  1.00  0.00     0.020 A 
HETATM   37  C   UNL     1      13.140  54.800  49.860  1.00  0.00     0.001 A 
HETATM   38  C   UNL     1      13.821  54.124  50.865  1.00  0.00     0.001 A 
HETATM   39  C   UNL     1      14.781  53.165  50.535  1.00  0.00     0.015 A 
ENDBRANCH  31  33
ENDBRANCH   1  26
TORSDOF 6
ENDMDL
