MODEL 1
REMARK VINA RESULT:     -11.1      0.000      0.000
REMARK  6 active torsions:
REMARK  status: ('A' for Active; 'I' for Inactive)
REMARK    1  A    between atoms: C_8  and  C_9 
REMARK       I    between atoms: C_9  and  N_10 
REMARK    2  A    between atoms: N_10  and  N_11 
REMARK       I    between atoms: N_11  and  C_12 
REMARK    3  A    between atoms: C_12  and  C_13 
REMARK    4  A    between atoms: C_13  and  C_14 
REMARK    5  A    between atoms: C_14  and  N_15 
REMARK    6  A    between atoms: C_28  and  O_29 
ROOT
HETATM    1  N   UNL     1      24.215  46.538  50.284  1.00  0.00    -0.267 N 
HETATM    2  C   UNL     1      25.109  46.521  51.335  1.00  0.00     0.237 C 
HETATM    3  O   UNL     1      25.303  47.505  52.047  1.00  0.00    -0.272 OA
HETATM    4  H   UNL     1      23.916  45.705  49.778  1.00  0.00     0.190 HD
ENDROOT
BRANCH   1   5
HETATM    5  N   UNL     1      23.453  47.697  50.100  1.00  0.00    -0.263 N 
HETATM    6  C   UNL     1      22.677  47.798  48.965  1.00  0.00     0.272 C 
HETATM    7  O   UNL     1      22.673  46.930  48.090  1.00  0.00    -0.266 OA
HETATM    8  H   UNL     1      23.335  48.275  50.930  1.00  0.00     0.190 HD
BRANCH   6   9
HETATM    9  C   UNL     1      21.793  48.992  48.831  1.00  0.00     0.067 A 
HETATM   10  C   UNL     1      20.575  49.091  49.522  1.00  0.00     0.032 A 
HETATM   11  C   UNL     1      19.748  50.221  49.376  1.00  0.00    -0.025 A 
HETATM   12  C   UNL     1      18.523  50.323  50.055  1.00  0.00     0.012 A 
HETATM   13  C   UNL     1      20.158  51.278  48.531  1.00  0.00    -0.023 A 
HETATM   14  C   UNL     1      17.713  51.449  49.902  1.00  0.00     0.001 A 
HETATM   15  C   UNL     1      18.116  52.489  49.070  1.00  0.00     0.001 A 
HETATM   16  C   UNL     1      19.332  52.405  48.388  1.00  0.00     0.012 A 
HETATM   17  C   UNL     1      21.383  51.182  47.857  1.00  0.00     0.049 A 
HETATM   18  C   UNL     1      22.191  50.056  48.011  1.00  0.00     0.082 A 
BRANCH  18  19
HETATM   19  O   UNL     1      23.374  50.073  47.317  1.00  0.00    -0.360 OA
HETATM   20  H   UNL     1      23.416  49.260  46.765  1.00  0.00     0.217 HD
ENDBRANCH  18  19
ENDBRANCH   6   9
ENDBRANCH   1   5
BRANCH   2  21
HETATM   21  C   UNL     1      25.815  45.199  51.508  1.00  0.00     0.125 C 
BRANCH  21  22
HETATM   22  C   UNL     1      25.602  44.661  52.918  1.00  0.00     0.145 C 
BRANCH  22  23
HETATM   23  N   UNL     1      26.852  44.525  53.641  1.00  0.00    -0.279 N 
HETATM   24  C   UNL     1      27.675  43.436  53.548  1.00  0.00     0.261 A 
HETATM   25  O   UNL     1      27.545  42.435  52.871  1.00  0.00    -0.267 OA
HETATM   26  C   UNL     1      28.810  43.697  54.430  1.00  0.00     0.048 A 
HETATM   27  C   UNL     1      28.631  44.953  54.982  1.00  0.00     0.048 A 
HETATM   28  C   UNL     1      29.909  42.916  54.732  1.00  0.00     0.018 A 
HETATM   29  C   UNL     1      27.382  45.495  54.449  1.00  0.00     0.261 A 
HETATM   30  C   UNL     1      29.539  45.500  55.867  1.00  0.00     0.018 A 
HETATM   31  O   UNL     1      26.954  46.605  54.696  1.00  0.00    -0.267 OA
HETATM   32  C   UNL     1      30.658  44.726  56.192  1.00  0.00     0.001 A 
HETATM   33  C   UNL     1      30.842  43.446  55.628  1.00  0.00     0.001 A 
ENDBRANCH  22  23
ENDBRANCH  21  22
ENDBRANCH   2  21
TORSDOF 6
ENDMDL
MODEL 2
REMARK VINA RESULT:     -11.1      0.061      1.597
REMARK  6 active torsions:
REMARK  status: ('A' for Active; 'I' for Inactive)
REMARK    1  A    between atoms: C_8  and  C_9 
REMARK       I    between atoms: C_9  and  N_10 
REMARK    2  A    between atoms: N_10  and  N_11 
REMARK       I    between atoms: N_11  and  C_12 
REMARK    3  A    between atoms: C_12  and  C_13 
REMARK    4  A    between atoms: C_13  and  C_14 
REMARK    5  A    between atoms: C_14  and  N_15 
REMARK    6  A    between atoms: C_28  and  O_29 
ROOT
HETATM    1  N   UNL     1      24.204  46.498  50.272  1.00  0.00    -0.267 N 
HETATM    2  C   UNL     1      25.162  46.506  51.264  1.00  0.00     0.237 C 
HETATM    3  O   UNL     1      25.413  47.511  51.926  1.00  0.00    -0.272 OA
HETATM    4  H   UNL     1      23.863  45.651  49.816  1.00  0.00     0.190 HD
ENDROOT
BRANCH   1   5
HETATM    5  N   UNL     1      23.445  47.660  50.094  1.00  0.00    -0.263 N 
HETATM    6  C   UNL     1      22.680  47.775  48.953  1.00  0.00     0.272 C 
HETATM    7  O   UNL     1      22.683  46.917  48.068  1.00  0.00    -0.266 OA
HETATM    8  H   UNL     1      23.320  48.228  50.929  1.00  0.00     0.190 HD
BRANCH   6   9
HETATM    9  C   UNL     1      21.799  48.972  48.825  1.00  0.00     0.067 A 
HETATM   10  C   UNL     1      20.578  49.069  49.512  1.00  0.00     0.032 A 
HETATM   11  C   UNL     1      19.755  50.202  49.371  1.00  0.00    -0.025 A 
HETATM   12  C   UNL     1      18.528  50.301  50.046  1.00  0.00     0.012 A 
HETATM   13  C   UNL     1      20.170  51.264  48.535  1.00  0.00    -0.023 A 
HETATM   14  C   UNL     1      17.720  51.430  49.899  1.00  0.00     0.001 A 
HETATM   15  C   UNL     1      18.129  52.476  49.076  1.00  0.00     0.001 A 
HETATM   16  C   UNL     1      19.347  52.394  48.398  1.00  0.00     0.012 A 
HETATM   17  C   UNL     1      21.397  51.170  47.865  1.00  0.00     0.049 A 
HETATM   18  C   UNL     1      22.202  50.041  48.014  1.00  0.00     0.082 A 
BRANCH  18  19
HETATM   19  O   UNL     1      23.388  50.061  47.325  1.00  0.00    -0.360 OA
HETATM   20  H   UNL     1      23.604  50.997  47.115  1.00  0.00     0.217 HD
ENDBRANCH  18  19
ENDBRANCH   6   9
ENDBRANCH   1   5
BRANCH   2  21
HETATM   21  C   UNL     1      25.862  45.181  51.440  1.00  0.00     0.125 C 
BRANCH  21  22
HETATM   22  C   UNL     1      25.630  44.638  52.846  1.00  0.00     0.145 C 
BRANCH  22  23
HETATM   23  N   UNL     1      26.869  44.511  53.589  1.00  0.00    -0.279 N 
HETATM   24  C   UNL     1      27.350  45.464  54.443  1.00  0.00     0.261 A 
HETATM   25  O   UNL     1      26.862  46.535  54.749  1.00  0.00    -0.267 OA
HETATM   26  C   UNL     1      28.609  44.947  54.976  1.00  0.00     0.048 A 
HETATM   27  C   UNL     1      28.802  43.685  54.442  1.00  0.00     0.048 A 
HETATM   28  C   UNL     1      29.514  45.518  55.850  1.00  0.00     0.018 A 
HETATM   29  C   UNL     1      27.665  43.397  53.571  1.00  0.00     0.261 A 
HETATM   30  C   UNL     1      29.911  42.922  54.750  1.00  0.00     0.018 A 
HETATM   31  O   UNL     1      27.499  42.346  52.983  1.00  0.00    -0.267 OA
HETATM   32  C   UNL     1      30.845  43.480  55.630  1.00  0.00     0.001 A 
HETATM   33  C   UNL     1      30.648  44.766  56.176  1.00  0.00     0.001 A 
ENDBRANCH  22  23
ENDBRANCH  21  22
ENDBRANCH   2  21
TORSDOF 6
ENDMDL
MODEL 3
REMARK VINA RESULT:     -10.9      1.555     11.064
REMARK  6 active torsions:
REMARK  status: ('A' for Active; 'I' for Inactive)
REMARK    1  A    between atoms: C_8  and  C_9 
REMARK       I    between atoms: C_9  and  N_10 
REMARK    2  A    between atoms: N_10  and  N_11 
REMARK       I    between atoms: N_11  and  C_12 
REMARK    3  A    between atoms: C_12  and  C_13 
REMARK    4  A    between atoms: C_13  and  C_14 
REMARK    5  A    between atoms: C_14  and  N_15 
REMARK    6  A    between atoms: C_28  and  O_29 
ROOT
HETATM    1  N   UNL     1      24.894  46.218  51.307  1.00  0.00    -0.267 N 
HETATM    2  C   UNL     1      25.000  47.317  50.480  1.00  0.00     0.237 C 
HETATM    3  O   UNL     1      26.007  48.022  50.450  1.00  0.00    -0.272 OA
HETATM    4  H   UNL     1      24.146  45.528  51.244  1.00  0.00     0.190 HD
ENDROOT
BRANCH   1   5
HETATM    5  N   UNL     1      26.019  45.862  52.059  1.00  0.00    -0.263 N 
HETATM    6  C   UNL     1      25.935  44.761  52.884  1.00  0.00     0.272 C 
HETATM    7  O   UNL     1      24.893  44.117  53.019  1.00  0.00    -0.266 OA
HETATM    8  H   UNL     1      26.893  46.292  51.762  1.00  0.00     0.190 HD
BRANCH   6   9
HETATM    9  C   UNL     1      27.171  44.334  53.602  1.00  0.00     0.067 A 
HETATM   10  C   UNL     1      27.825  45.176  54.515  1.00  0.00     0.032 A 
HETATM   11  C   UNL     1      28.996  44.760  55.176  1.00  0.00    -0.025 A 
HETATM   12  C   UNL     1      29.661  45.601  56.082  1.00  0.00     0.012 A 
HETATM   13  C   UNL     1      29.514  43.468  54.926  1.00  0.00    -0.023 A 
HETATM   14  C   UNL     1      30.821  45.176  56.732  1.00  0.00     0.001 A 
HETATM   15  C   UNL     1      31.331  43.904  56.485  1.00  0.00     0.001 A 
HETATM   16  C   UNL     1      30.681  43.055  55.588  1.00  0.00     0.012 A 
HETATM   17  C   UNL     1      28.848  42.625  54.026  1.00  0.00     0.049 A 
HETATM   18  C   UNL     1      27.689  43.051  53.379  1.00  0.00     0.082 A 
BRANCH  18  19
HETATM   19  O   UNL     1      27.111  42.141  52.531  1.00  0.00    -0.360 OA
HETATM   20  H   UNL     1      27.823  41.735  51.987  1.00  0.00     0.217 HD
ENDBRANCH  18  19
ENDBRANCH   6   9
ENDBRANCH   1   5
BRANCH   2  21
HETATM   21  C   UNL     1      23.770  47.566  49.643  1.00  0.00     0.125 C 
BRANCH  21  22
HETATM   22  C   UNL     1      23.941  48.829  48.806  1.00  0.00     0.145 C 
BRANCH  22  23
HETATM   23  N   UNL     1      22.670  49.468  48.523  1.00  0.00    -0.279 N 
HETATM   24  C   UNL     1      21.726  48.954  47.678  1.00  0.00     0.261 A 
HETATM   25  O   UNL     1      21.749  47.915  47.046  1.00  0.00    -0.267 OA
HETATM   26  C   UNL     1      20.613  49.901  47.674  1.00  0.00     0.048 A 
HETATM   27  C   UNL     1      20.929  50.922  48.552  1.00  0.00     0.048 A 
HETATM   28  C   UNL     1      19.424  49.883  46.970  1.00  0.00     0.018 A 
HETATM   29  C   UNL     1      22.244  50.625  49.118  1.00  0.00     0.261 A 
HETATM   30  C   UNL     1      20.076  51.985  48.776  1.00  0.00     0.018 A 
HETATM   31  O   UNL     1      22.795  51.300  49.965  1.00  0.00    -0.267 OA
HETATM   32  C   UNL     1      18.867  51.992  48.072  1.00  0.00     0.001 A 
HETATM   33  C   UNL     1      18.543  50.950  47.178  1.00  0.00     0.001 A 
ENDBRANCH  22  23
ENDBRANCH  21  22
ENDBRANCH   2  21
TORSDOF 6
ENDMDL
MODEL 4
REMARK VINA RESULT:     -10.7      1.590     10.884
REMARK  6 active torsions:
REMARK  status: ('A' for Active; 'I' for Inactive)
REMARK    1  A    between atoms: C_8  and  C_9 
REMARK       I    between atoms: C_9  and  N_10 
REMARK    2  A    between atoms: N_10  and  N_11 
REMARK       I    between atoms: N_11  and  C_12 
REMARK    3  A    between atoms: C_12  and  C_13 
REMARK    4  A    between atoms: C_13  and  C_14 
REMARK    5  A    between atoms: C_14  and  N_15 
REMARK    6  A    between atoms: C_28  and  O_29 
ROOT
HETATM    1  N   UNL     1      24.343  46.418  50.965  1.00  0.00    -0.267 N 
HETATM    2  C   UNL     1      24.285  47.440  50.040  1.00  0.00     0.237 C 
HETATM    3  O   UNL     1      25.068  48.387  50.059  1.00  0.00    -0.272 OA
HETATM    4  H   UNL     1      23.817  45.548  50.885  1.00  0.00     0.190 HD
ENDROOT
BRANCH   1   5
HETATM    5  N   UNL     1      25.393  46.439  51.889  1.00  0.00    -0.263 N 
HETATM    6  C   UNL     1      25.490  45.404  52.795  1.00  0.00     0.272 C 
HETATM    7  O   UNL     1      24.658  44.496  52.850  1.00  0.00    -0.266 OA
HETATM    8  H   UNL     1      26.149  47.085  51.671  1.00  0.00     0.190 HD
BRANCH   6   9
HETATM    9  C   UNL     1      26.671  45.387  53.707  1.00  0.00     0.067 A 
HETATM   10  C   UNL     1      27.633  44.367  53.651  1.00  0.00     0.032 A 
HETATM   11  C   UNL     1      28.736  44.361  54.526  1.00  0.00    -0.025 A 
HETATM   12  C   UNL     1      29.696  43.338  54.484  1.00  0.00     0.012 A 
HETATM   13  C   UNL     1      28.883  45.406  55.467  1.00  0.00    -0.023 A 
HETATM   14  C   UNL     1      30.786  43.344  55.356  1.00  0.00     0.001 A 
HETATM   15  C   UNL     1      30.930  44.373  56.282  1.00  0.00     0.001 A 
HETATM   16  C   UNL     1      29.985  45.398  56.337  1.00  0.00     0.012 A 
HETATM   17  C   UNL     1      27.929  46.432  55.507  1.00  0.00     0.049 A 
HETATM   18  C   UNL     1      26.841  46.424  54.634  1.00  0.00     0.082 A 
BRANCH  18  19
HETATM   19  O   UNL     1      25.977  47.483  54.750  1.00  0.00    -0.360 OA
HETATM   20  H   UNL     1      25.062  47.144  54.628  1.00  0.00     0.217 HD
ENDBRANCH  18  19
ENDBRANCH   6   9
ENDBRANCH   1   5
BRANCH   2  21
HETATM   21  C   UNL     1      23.175  47.281  49.031  1.00  0.00     0.125 C 
BRANCH  21  22
HETATM   22  C   UNL     1      23.038  48.543  48.187  1.00  0.00     0.145 C 
BRANCH  22  23
HETATM   23  N   UNL     1      21.794  49.240  48.452  1.00  0.00    -0.279 N 
HETATM   24  C   UNL     1      21.679  50.305  49.303  1.00  0.00     0.261 A 
HETATM   25  O   UNL     1      22.543  50.861  49.953  1.00  0.00    -0.267 OA
HETATM   26  C   UNL     1      20.273  50.702  49.284  1.00  0.00     0.048 A 
HETATM   27  C   UNL     1      19.617  49.876  48.390  1.00  0.00     0.048 A 
HETATM   28  C   UNL     1      19.613  51.695  49.983  1.00  0.00     0.018 A 
HETATM   29  C   UNL     1      20.606  48.953  47.835  1.00  0.00     0.261 A 
HETATM   30  C   UNL     1      18.264  49.993  48.142  1.00  0.00     0.018 A 
HETATM   31  O   UNL     1      20.367  48.124  46.979  1.00  0.00    -0.267 OA
HETATM   32  C   UNL     1      17.571  50.989  48.840  1.00  0.00     0.001 A 
HETATM   33  C   UNL     1      18.241  51.833  49.752  1.00  0.00     0.001 A 
ENDBRANCH  22  23
ENDBRANCH  21  22
ENDBRANCH   2  21
TORSDOF 6
ENDMDL
MODEL 5
REMARK VINA RESULT:     -10.7      2.064     10.592
REMARK  6 active torsions:
REMARK  status: ('A' for Active; 'I' for Inactive)
REMARK    1  A    between atoms: C_8  and  C_9 
REMARK       I    between atoms: C_9  and  N_10 
REMARK    2  A    between atoms: N_10  and  N_11 
REMARK       I    between atoms: N_11  and  C_12 
REMARK    3  A    between atoms: C_12  and  C_13 
REMARK    4  A    between atoms: C_13  and  C_14 
REMARK    5  A    between atoms: C_14  and  N_15 
REMARK    6  A    between atoms: C_28  and  O_29 
ROOT
HETATM    1  N   UNL     1      25.369  45.248  51.582  1.00  0.00    -0.267 N 
HETATM    2  C   UNL     1      24.445  44.278  51.252  1.00  0.00     0.237 C 
HETATM    3  O   UNL     1      24.441  43.168  51.780  1.00  0.00    -0.272 OA
HETATM    4  H   UNL     1      25.306  46.220  51.283  1.00  0.00     0.190 HD
ENDROOT
BRANCH   1   5
HETATM    5  N   UNL     1      26.264  44.963  52.619  1.00  0.00    -0.263 N 
HETATM    6  C   UNL     1      27.494  44.431  52.297  1.00  0.00     0.272 C 
HETATM    7  O   UNL     1      27.808  44.151  51.138  1.00  0.00    -0.266 OA
HETATM    8  H   UNL     1      26.042  45.395  53.514  1.00  0.00     0.190 HD
BRANCH   6   9
HETATM    9  C   UNL     1      28.475  44.227  53.402  1.00  0.00     0.067 A 
HETATM   10  C   UNL     1      28.479  45.040  54.547  1.00  0.00     0.032 A 
HETATM   11  C   UNL     1      29.419  44.840  55.575  1.00  0.00    -0.025 A 
HETATM   12  C   UNL     1      29.436  45.657  56.718  1.00  0.00     0.012 A 
HETATM   13  C   UNL     1      30.365  43.796  55.460  1.00  0.00    -0.023 A 
HETATM   14  C   UNL     1      30.373  45.448  57.731  1.00  0.00     0.001 A 
HETATM   15  C   UNL     1      31.304  44.420  57.617  1.00  0.00     0.001 A 
HETATM   16  C   UNL     1      31.301  43.598  56.488  1.00  0.00     0.012 A 
HETATM   17  C   UNL     1      30.346  42.976  54.323  1.00  0.00     0.049 A 
HETATM   18  C   UNL     1      29.409  43.186  53.312  1.00  0.00     0.082 A 
BRANCH  18  19
HETATM   19  O   UNL     1      29.471  42.318  52.253  1.00  0.00    -0.360 OA
HETATM   20  H   UNL     1      28.696  41.715  52.307  1.00  0.00     0.217 HD
ENDBRANCH  18  19
ENDBRANCH   6   9
ENDBRANCH   1   5
BRANCH   2  21
HETATM   21  C   UNL     1      23.468  44.711  50.187  1.00  0.00     0.125 C 
BRANCH  21  22
HETATM   22  C   UNL     1      24.161  45.589  49.152  1.00  0.00     0.145 C 
BRANCH  22  23
HETATM   23  N   UNL     1      23.461  46.843  48.947  1.00  0.00    -0.279 N 
HETATM   24  C   UNL     1      23.793  48.016  49.567  1.00  0.00     0.261 A 
HETATM   25  O   UNL     1      24.695  48.237  50.352  1.00  0.00    -0.267 OA
HETATM   26  C   UNL     1      22.845  49.020  49.090  1.00  0.00     0.048 A 
HETATM   27  C   UNL     1      22.011  48.407  48.172  1.00  0.00     0.048 A 
HETATM   28  C   UNL     1      22.713  50.356  49.420  1.00  0.00     0.018 A 
HETATM   29  C   UNL     1      22.429  47.010  48.062  1.00  0.00     0.261 A 
HETATM   30  C   UNL     1      20.997  49.091  47.533  1.00  0.00     0.018 A 
HETATM   31  O   UNL     1      21.933  46.203  47.301  1.00  0.00    -0.267 OA
HETATM   32  C   UNL     1      20.840  50.444  47.853  1.00  0.00     0.001 A 
HETATM   33  C   UNL     1      21.691  51.071  48.788  1.00  0.00     0.001 A 
ENDBRANCH  22  23
ENDBRANCH  21  22
ENDBRANCH   2  21
TORSDOF 6
ENDMDL
MODEL 6
REMARK VINA RESULT:     -10.5      2.152     10.424
REMARK  6 active torsions:
REMARK  status: ('A' for Active; 'I' for Inactive)
REMARK    1  A    between atoms: C_8  and  C_9 
REMARK       I    between atoms: C_9  and  N_10 
REMARK    2  A    between atoms: N_10  and  N_11 
REMARK       I    between atoms: N_11  and  C_12 
REMARK    3  A    between atoms: C_12  and  C_13 
REMARK    4  A    between atoms: C_13  and  C_14 
REMARK    5  A    between atoms: C_14  and  N_15 
REMARK    6  A    between atoms: C_28  and  O_29 
ROOT
HETATM    1  N   UNL     1      25.884  44.882  51.294  1.00  0.00    -0.267 N 
HETATM    2  C   UNL     1      26.259  44.960  49.969  1.00  0.00     0.237 C 
HETATM    3  O   UNL     1      27.432  45.094  49.625  1.00  0.00    -0.272 OA
HETATM    4  H   UNL     1      24.951  44.615  51.607  1.00  0.00     0.190 HD
ENDROOT
BRANCH   1   5
HETATM    5  N   UNL     1      26.901  44.867  52.255  1.00  0.00    -0.263 N 
HETATM    6  C   UNL     1      26.703  45.562  53.429  1.00  0.00     0.272 C 
HETATM    7  O   UNL     1      25.689  46.233  53.635  1.00  0.00    -0.266 OA
HETATM    8  H   UNL     1      27.609  44.148  52.126  1.00  0.00     0.190 HD
BRANCH   6   9
HETATM    9  C   UNL     1      27.751  45.454  54.486  1.00  0.00     0.067 A 
HETATM   10  C   UNL     1      28.677  44.400  54.505  1.00  0.00     0.032 A 
HETATM   11  C   UNL     1      29.653  44.309  55.515  1.00  0.00    -0.025 A 
HETATM   12  C   UNL     1      30.575  43.251  55.547  1.00  0.00     0.012 A 
HETATM   13  C   UNL     1      29.708  45.303  56.520  1.00  0.00    -0.023 A 
HETATM   14  C   UNL     1      31.538  43.173  56.553  1.00  0.00     0.001 A 
HETATM   15  C   UNL     1      31.593  44.151  57.542  1.00  0.00     0.001 A 
HETATM   16  C   UNL     1      30.683  45.210  57.526  1.00  0.00     0.012 A 
HETATM   17  C   UNL     1      28.792  46.363  56.487  1.00  0.00     0.049 A 
HETATM   18  C   UNL     1      27.831  46.440  55.479  1.00  0.00     0.082 A 
BRANCH  18  19
HETATM   19  O   UNL     1      26.995  47.525  55.535  1.00  0.00    -0.360 OA
HETATM   20  H   UNL     1      26.656  47.697  54.628  1.00  0.00     0.217 HD
ENDBRANCH  18  19
ENDBRANCH   6   9
ENDBRANCH   1   5
BRANCH   2  21
HETATM   21  C   UNL     1      25.101  44.877  49.006  1.00  0.00     0.125 C 
BRANCH  21  22
HETATM   22  C   UNL     1      23.798  45.249  49.705  1.00  0.00     0.145 C 
BRANCH  22  23
HETATM   23  N   UNL     1      23.331  46.566  49.316  1.00  0.00    -0.279 N 
HETATM   24  C   UNL     1      23.888  47.736  49.756  1.00  0.00     0.261 A 
HETATM   25  O   UNL     1      24.836  47.900  50.499  1.00  0.00    -0.267 OA
HETATM   26  C   UNL     1      23.125  48.817  49.135  1.00  0.00     0.048 A 
HETATM   27  C   UNL     1      22.169  48.239  48.319  1.00  0.00     0.048 A 
HETATM   28  C   UNL     1      23.246  50.187  49.264  1.00  0.00     0.018 A 
HETATM   29  C   UNL     1      22.323  46.789  48.417  1.00  0.00     0.261 A 
HETATM   30  C   UNL     1      21.279  48.997  47.585  1.00  0.00     0.018 A 
HETATM   31  O   UNL     1      21.669  45.984  47.784  1.00  0.00    -0.267 OA
HETATM   32  C   UNL     1      21.378  50.388  47.701  1.00  0.00     0.001 A 
HETATM   33  C   UNL     1      22.354  50.978  48.533  1.00  0.00     0.001 A 
ENDBRANCH  22  23
ENDBRANCH  21  22
ENDBRANCH   2  21
TORSDOF 6
ENDMDL
MODEL 7
REMARK VINA RESULT:     -10.4      1.460      2.466
REMARK  6 active torsions:
REMARK  status: ('A' for Active; 'I' for Inactive)
REMARK    1  A    between atoms: C_8  and  C_9 
REMARK       I    between atoms: C_9  and  N_10 
REMARK    2  A    between atoms: N_10  and  N_11 
REMARK       I    between atoms: N_11  and  C_12 
REMARK    3  A    between atoms: C_12  and  C_13 
REMARK    4  A    between atoms: C_13  and  C_14 
REMARK    5  A    between atoms: C_14  and  N_15 
REMARK    6  A    between atoms: C_28  and  O_29 
ROOT
HETATM    1  N   UNL     1      25.074  46.230  50.491  1.00  0.00    -0.267 N 
HETATM    2  C   UNL     1      25.593  45.175  49.770  1.00  0.00     0.237 C 
HETATM    3  O   UNL     1      25.013  44.694  48.798  1.00  0.00    -0.272 OA
HETATM    4  H   UNL     1      25.596  46.749  51.197  1.00  0.00     0.190 HD
ENDROOT
BRANCH   1   5
HETATM    5  N   UNL     1      23.890  46.812  50.025  1.00  0.00    -0.263 N 
HETATM    6  C   UNL     1      23.950  48.083  49.494  1.00  0.00     0.272 C 
HETATM    7  O   UNL     1      24.995  48.737  49.464  1.00  0.00    -0.266 OA
HETATM    8  H   UNL     1      23.115  46.167  49.885  1.00  0.00     0.190 HD
BRANCH   6   9
HETATM    9  C   UNL     1      22.701  48.651  48.908  1.00  0.00     0.067 A 
HETATM   10  C   UNL     1      22.204  49.904  49.299  1.00  0.00     0.032 A 
HETATM   11  C   UNL     1      21.019  50.421  48.743  1.00  0.00    -0.025 A 
HETATM   12  C   UNL     1      20.510  51.669  49.138  1.00  0.00     0.012 A 
HETATM   13  C   UNL     1      20.325  49.671  47.766  1.00  0.00    -0.023 A 
HETATM   14  C   UNL     1      19.334  52.170  48.578  1.00  0.00     0.001 A 
HETATM   15  C   UNL     1      18.651  51.432  47.616  1.00  0.00     0.001 A 
HETATM   16  C   UNL     1      19.143  50.189  47.212  1.00  0.00     0.012 A 
HETATM   17  C   UNL     1      20.834  48.428  47.366  1.00  0.00     0.049 A 
HETATM   18  C   UNL     1      22.009  47.929  47.926  1.00  0.00     0.082 A 
BRANCH  18  19
HETATM   19  O   UNL     1      22.425  46.711  47.452  1.00  0.00    -0.360 OA
HETATM   20  H   UNL     1      22.455  46.083  48.208  1.00  0.00     0.217 HD
ENDBRANCH  18  19
ENDBRANCH   6   9
ENDBRANCH   1   5
BRANCH   2  21
HETATM   21  C   UNL     1      26.916  44.674  50.297  1.00  0.00     0.125 C 
BRANCH  21  22
HETATM   22  C   UNL     1      26.696  43.664  51.417  1.00  0.00     0.145 C 
BRANCH  22  23
HETATM   23  N   UNL     1      27.580  43.900  52.542  1.00  0.00    -0.279 N 
HETATM   24  C   UNL     1      27.429  44.926  53.433  1.00  0.00     0.261 A 
HETATM   25  O   UNL     1      26.568  45.784  53.473  1.00  0.00    -0.267 OA
HETATM   26  C   UNL     1      28.521  44.805  54.396  1.00  0.00     0.048 A 
HETATM   27  C   UNL     1      29.255  43.682  54.057  1.00  0.00     0.048 A 
HETATM   28  C   UNL     1      28.855  45.597  55.477  1.00  0.00     0.018 A 
HETATM   29  C   UNL     1      28.629  43.086  52.878  1.00  0.00     0.261 A 
HETATM   30  C   UNL     1      30.365  43.287  54.777  1.00  0.00     0.018 A 
HETATM   31  O   UNL     1      28.999  42.055  52.351  1.00  0.00    -0.267 OA
HETATM   32  C   UNL     1      30.726  44.076  55.875  1.00  0.00     0.001 A 
HETATM   33  C   UNL     1      29.977  45.221  56.222  1.00  0.00     0.001 A 
ENDBRANCH  22  23
ENDBRANCH  21  22
ENDBRANCH   2  21
TORSDOF 6
ENDMDL
MODEL 8
REMARK VINA RESULT:     -10.3      2.018     10.542
REMARK  6 active torsions:
REMARK  status: ('A' for Active; 'I' for Inactive)
REMARK    1  A    between atoms: C_8  and  C_9 
REMARK       I    between atoms: C_9  and  N_10 
REMARK    2  A    between atoms: N_10  and  N_11 
REMARK       I    between atoms: N_11  and  C_12 
REMARK    3  A    between atoms: C_12  and  C_13 
REMARK    4  A    between atoms: C_13  and  C_14 
REMARK    5  A    between atoms: C_14  and  N_15 
REMARK    6  A    between atoms: C_28  and  O_29 
ROOT
HETATM    1  N   UNL     1      26.016  44.494  51.030  1.00  0.00    -0.267 N 
HETATM    2  C   UNL     1      26.224  44.989  49.760  1.00  0.00     0.237 C 
HETATM    3  O   UNL     1      27.315  45.424  49.396  1.00  0.00    -0.272 OA
HETATM    4  H   UNL     1      25.178  43.986  51.314  1.00  0.00     0.190 HD
ENDROOT
BRANCH   1   5
HETATM    5  N   UNL     1      27.122  44.412  51.883  1.00  0.00    -0.263 N 
HETATM    6  C   UNL     1      26.914  44.539  53.240  1.00  0.00     0.272 C 
HETATM    7  O   UNL     1      25.802  44.773  53.718  1.00  0.00    -0.266 OA
HETATM    8  H   UNL     1      27.964  44.021  51.465  1.00  0.00     0.190 HD
BRANCH   6   9
HETATM    9  C   UNL     1      28.086  44.348  54.144  1.00  0.00     0.067 A 
HETATM   10  C   UNL     1      28.294  45.164  55.267  1.00  0.00     0.032 A 
HETATM   11  C   UNL     1      29.411  44.976  56.104  1.00  0.00    -0.025 A 
HETATM   12  C   UNL     1      29.632  45.795  57.222  1.00  0.00     0.012 A 
HETATM   13  C   UNL     1      30.330  43.941  55.815  1.00  0.00    -0.023 A 
HETATM   14  C   UNL     1      30.742  45.598  58.044  1.00  0.00     0.001 A 
HETATM   15  C   UNL     1      31.647  44.579  57.760  1.00  0.00     0.001 A 
HETATM   16  C   UNL     1      31.442  43.755  56.651  1.00  0.00     0.012 A 
HETATM   17  C   UNL     1      30.108  43.118  54.702  1.00  0.00     0.049 A 
HETATM   18  C   UNL     1      28.998  43.317  53.882  1.00  0.00     0.082 A 
BRANCH  18  19
HETATM   19  O   UNL     1      28.871  42.446  52.830  1.00  0.00    -0.360 OA
HETATM   20  H   UNL     1      28.770  41.538  53.195  1.00  0.00     0.217 HD
ENDBRANCH  18  19
ENDBRANCH   6   9
ENDBRANCH   1   5
BRANCH   2  21
HETATM   21  C   UNL     1      24.994  44.952  48.887  1.00  0.00     0.125 C 
BRANCH  21  22
HETATM   22  C   UNL     1      23.761  45.359  49.686  1.00  0.00     0.145 C 
BRANCH  22  23
HETATM   23  N   UNL     1      23.269  46.666  49.296  1.00  0.00    -0.279 N 
HETATM   24  C   UNL     1      22.170  46.866  48.506  1.00  0.00     0.261 A 
HETATM   25  O   UNL     1      21.420  46.044  48.016  1.00  0.00    -0.267 OA
HETATM   26  C   UNL     1      22.025  48.312  48.355  1.00  0.00     0.048 A 
HETATM   27  C   UNL     1      23.025  48.913  49.098  1.00  0.00     0.048 A 
HETATM   28  C   UNL     1      21.105  49.050  47.636  1.00  0.00     0.018 A 
HETATM   29  C   UNL     1      23.808  47.849  49.726  1.00  0.00     0.261 A 
HETATM   30  C   UNL     1      23.164  50.285  49.165  1.00  0.00     0.018 A 
HETATM   31  O   UNL     1      24.735  48.037  50.488  1.00  0.00    -0.267 OA
HETATM   32  C   UNL     1      22.247  51.055  48.442  1.00  0.00     0.001 A 
HETATM   33  C   UNL     1      21.225  50.443  47.685  1.00  0.00     0.001 A 
ENDBRANCH  22  23
ENDBRANCH  21  22
ENDBRANCH   2  21
TORSDOF 6
ENDMDL
MODEL 9
REMARK VINA RESULT:     -10.3      1.834     10.098
REMARK  6 active torsions:
REMARK  status: ('A' for Active; 'I' for Inactive)
REMARK    1  A    between atoms: C_8  and  C_9 
REMARK       I    between atoms: C_9  and  N_10 
REMARK    2  A    between atoms: N_10  and  N_11 
REMARK       I    between atoms: N_11  and  C_12 
REMARK    3  A    between atoms: C_12  and  C_13 
REMARK    4  A    between atoms: C_13  and  C_14 
REMARK    5  A    between atoms: C_14  and  N_15 
REMARK    6  A    between atoms: C_28  and  O_29 
ROOT
HETATM    1  N   UNL     1      24.094  45.311  51.295  1.00  0.00    -0.267 N 
HETATM    2  C   UNL     1      23.862  44.362  50.322  1.00  0.00     0.237 C 
HETATM    3  O   UNL     1      24.622  43.413  50.136  1.00  0.00    -0.272 OA
HETATM    4  H   UNL     1      23.412  46.014  51.579  1.00  0.00     0.190 HD
ENDROOT
BRANCH   1   5
HETATM    5  N   UNL     1      25.189  45.115  52.143  1.00  0.00    -0.263 N 
HETATM    6  C   UNL     1      25.771  46.219  52.729  1.00  0.00     0.272 C 
HETATM    7  O   UNL     1      25.393  47.368  52.490  1.00  0.00    -0.266 OA
HETATM    8  H   UNL     1      25.326  44.158  52.461  1.00  0.00     0.190 HD
BRANCH   6   9
HETATM    9  C   UNL     1      26.871  45.988  53.710  1.00  0.00     0.067 A 
HETATM   10  C   UNL     1      27.739  44.890  53.602  1.00  0.00     0.032 A 
HETATM   11  C   UNL     1      28.766  44.682  54.542  1.00  0.00    -0.025 A 
HETATM   12  C   UNL     1      29.631  43.580  54.448  1.00  0.00     0.012 A 
HETATM   13  C   UNL     1      28.934  45.601  55.604  1.00  0.00    -0.023 A 
HETATM   14  C   UNL     1      30.645  43.386  55.386  1.00  0.00     0.001 A 
HETATM   15  C   UNL     1      30.811  44.290  56.431  1.00  0.00     0.001 A 
HETATM   16  C   UNL     1      29.960  45.392  56.539  1.00  0.00     0.012 A 
HETATM   17  C   UNL     1      28.076  46.705  55.697  1.00  0.00     0.049 A 
HETATM   18  C   UNL     1      27.062  46.898  54.758  1.00  0.00     0.082 A 
BRANCH  18  19
HETATM   19  O   UNL     1      26.291  48.018  54.936  1.00  0.00    -0.360 OA
HETATM   20  H   UNL     1      25.523  47.960  54.325  1.00  0.00     0.217 HD
ENDBRANCH  18  19
ENDBRANCH   6   9
ENDBRANCH   1   5
BRANCH   2  21
HETATM   21  C   UNL     1      22.609  44.611  49.519  1.00  0.00     0.125 C 
BRANCH  21  22
HETATM   22  C   UNL     1      22.938  45.382  48.245  1.00  0.00     0.145 C 
BRANCH  22  23
HETATM   23  N   UNL     1      22.494  46.761  48.317  1.00  0.00    -0.279 N 
HETATM   24  C   UNL     1      21.264  47.192  47.901  1.00  0.00     0.261 A 
HETATM   25  O   UNL     1      20.345  46.547  47.434  1.00  0.00    -0.267 OA
HETATM   26  C   UNL     1      21.225  48.632  48.142  1.00  0.00     0.048 A 
HETATM   27  C   UNL     1      22.425  48.991  48.731  1.00  0.00     0.048 A 
HETATM   28  C   UNL     1      20.235  49.559  47.876  1.00  0.00     0.018 A 
HETATM   29  C   UNL     1      23.229  47.777  48.867  1.00  0.00     0.261 A 
HETATM   30  C   UNL     1      22.705  50.295  49.086  1.00  0.00     0.018 A 
HETATM   31  O   UNL     1      24.323  47.734  49.393  1.00  0.00    -0.267 OA
HETATM   32  C   UNL     1      21.720  51.254  48.823  1.00  0.00     0.001 A 
HETATM   33  C   UNL     1      20.496  50.888  48.224  1.00  0.00     0.001 A 
ENDBRANCH  22  23
ENDBRANCH  21  22
ENDBRANCH   2  21
TORSDOF 6
ENDMDL
MODEL 10
REMARK VINA RESULT:     -10.1      1.427      2.193
REMARK  6 active torsions:
REMARK  status: ('A' for Active; 'I' for Inactive)
REMARK    1  A    between atoms: C_8  and  C_9 
REMARK       I    between atoms: C_9  and  N_10 
REMARK    2  A    between atoms: N_10  and  N_11 
REMARK       I    between atoms: N_11  and  C_12 
REMARK    3  A    between atoms: C_12  and  C_13 
REMARK    4  A    between atoms: C_13  and  C_14 
REMARK    5  A    between atoms: C_14  and  N_15 
REMARK    6  A    between atoms: C_28  and  O_29 
ROOT
HETATM    1  N   UNL     1      23.619  46.454  49.427  1.00  0.00    -0.267 N 
HETATM    2  C   UNL     1      24.811  46.744  50.057  1.00  0.00     0.237 C 
HETATM    3  O   UNL     1      24.964  47.756  50.739  1.00  0.00    -0.272 OA
HETATM    4  H   UNL     1      23.410  45.558  48.989  1.00  0.00     0.190 HD
ENDROOT
BRANCH   1   5
HETATM    5  N   UNL     1      22.537  47.309  49.663  1.00  0.00    -0.263 N 
HETATM    6  C   UNL     1      21.940  47.925  48.584  1.00  0.00     0.272 C 
HETATM    7  O   UNL     1      22.359  47.788  47.432  1.00  0.00    -0.266 OA
HETATM    8  H   UNL     1      22.112  47.226  50.584  1.00  0.00     0.190 HD
BRANCH   6   9
HETATM    9  C   UNL     1      20.725  48.752  48.839  1.00  0.00     0.067 A 
HETATM   10  C   UNL     1      20.664  50.107  48.478  1.00  0.00     0.032 A 
HETATM   11  C   UNL     1      19.513  50.876  48.735  1.00  0.00    -0.025 A 
HETATM   12  C   UNL     1      19.449  52.234  48.387  1.00  0.00     0.012 A 
HETATM   13  C   UNL     1      18.397  50.269  49.356  1.00  0.00    -0.023 A 
HETATM   14  C   UNL     1      18.302  52.985  48.647  1.00  0.00     0.001 A 
HETATM   15  C   UNL     1      17.203  52.388  49.258  1.00  0.00     0.001 A 
HETATM   16  C   UNL     1      17.249  51.038  49.610  1.00  0.00     0.012 A 
HETATM   17  C   UNL     1      18.456  48.912  49.699  1.00  0.00     0.049 A 
HETATM   18  C   UNL     1      19.604  48.163  49.438  1.00  0.00     0.082 A 
BRANCH  18  19
HETATM   19  O   UNL     1      19.548  46.842  49.802  1.00  0.00    -0.360 OA
HETATM   20  H   UNL     1      19.869  46.303  49.044  1.00  0.00     0.217 HD
ENDBRANCH  18  19
ENDBRANCH   6   9
ENDBRANCH   1   5
BRANCH   2  21
HETATM   21  C   UNL     1      25.890  45.717  49.814  1.00  0.00     0.125 C 
BRANCH  21  22
HETATM   22  C   UNL     1      25.640  44.473  50.660  1.00  0.00     0.145 C 
BRANCH  22  23
HETATM   23  N   UNL     1      26.702  44.249  51.621  1.00  0.00    -0.279 N 
HETATM   24  C   UNL     1      27.698  43.325  51.460  1.00  0.00     0.261 A 
HETATM   25  O   UNL     1      27.895  42.566  50.530  1.00  0.00    -0.267 OA
HETATM   26  C   UNL     1      28.548  43.419  52.645  1.00  0.00     0.048 A 
HETATM   27  C   UNL     1      28.040  44.427  53.445  1.00  0.00     0.048 A 
HETATM   28  C   UNL     1      29.669  42.695  53.004  1.00  0.00     0.018 A 
HETATM   29  C   UNL     1      26.867  44.978  52.769  1.00  0.00     0.261 A 
HETATM   30  C   UNL     1      28.621  44.768  54.650  1.00  0.00     0.018 A 
HETATM   31  O   UNL     1      26.213  45.915  53.181  1.00  0.00    -0.267 OA
HETATM   32  C   UNL     1      29.756  44.047  55.038  1.00  0.00     0.001 A 
HETATM   33  C   UNL     1      30.275  43.019  54.222  1.00  0.00     0.001 A 
ENDBRANCH  22  23
ENDBRANCH  21  22
ENDBRANCH   2  21
TORSDOF 6
ENDMDL
