MODEL 1
REMARK VINA RESULT:      -8.0      0.000      0.000
REMARK  6 active torsions:
REMARK  status: ('A' for Active; 'I' for Inactive)
REMARK    1  A    between atoms: N_4  and  C_5 
REMARK    2  A    between atoms: C_5  and  C_6 
REMARK    3  A    between atoms: C_6  and  C_7 
REMARK    4  A    between atoms: C_7  and  N_8 
REMARK       I    between atoms: N_8  and  C_9 
REMARK       I    between atoms: C_9  and  N_10 
REMARK    5  A    between atoms: N_10  and  C_11 
REMARK    6  A    between atoms: C_12  and  O_13 
ROOT
HETATM    1  N   UNL     1      24.716  45.137  51.395  1.00  0.00    -0.343 N 
HETATM    2  C   UNL     1      24.567  45.915  50.268  1.00  0.00     0.320 C 
HETATM    3  N   UNL     1      24.211  47.205  50.612  1.00  0.00    -0.306 N 
HETATM    4  O   UNL     1      24.673  45.474  49.131  1.00  0.00    -0.247 OA
HETATM    5  H   UNL     1      25.077  45.620  52.211  1.00  0.00     0.164 HD
HETATM    6  H   UNL     1      23.526  47.220  51.354  1.00  0.00     0.171 HD
ENDROOT
BRANCH   1   7
HETATM    7  C   UNL     1      25.030  43.728  51.300  1.00  0.00     0.126 C 
BRANCH   7   8
HETATM    8  C   UNL     1      26.246  43.292  52.120  1.00  0.00     0.041 C 
BRANCH   8   9
HETATM    9  C   UNL     1      27.440  44.237  52.037  1.00  0.00     0.152 C 
BRANCH   9  10
HETATM   10  N   UNL     1      28.156  44.370  53.293  1.00  0.00    -0.272 N 
HETATM   11  N   UNL     1      27.760  45.320  54.167  1.00  0.00    -0.176 NA
HETATM   12  C   UNL     1      28.632  45.214  55.179  1.00  0.00     0.074 A 
HETATM   13  C   UNL     1      28.546  46.127  56.344  1.00  0.00     0.074 C 
HETATM   14  C   UNL     1      29.563  44.175  54.952  1.00  0.00     0.083 A 
HETATM   15  C   UNL     1      29.232  43.637  53.728  1.00  0.00     0.050 A 
HETATM   16 CL   UNL     1      30.825  43.717  55.989  1.00  0.00    -0.080 Cl
HETATM   17  C   UNL     1      29.843  42.531  52.952  1.00  0.00     0.072 C 
ENDBRANCH   9  10
ENDBRANCH   8   9
ENDBRANCH   7   8
ENDBRANCH   1   7
BRANCH   3  18
HETATM   18  C   UNL     1      24.161  48.253  49.663  1.00  0.00     0.071 A 
HETATM   19  C   UNL     1      25.326  48.868  49.155  1.00  0.00     0.095 A 
HETATM   20  C   UNL     1      25.200  49.872  48.186  1.00  0.00     0.041 A 
HETATM   21  C   UNL     1      23.936  50.276  47.748  1.00  0.00     0.026 A 
HETATM   22  C   UNL     1      22.794  49.697  48.292  1.00  0.00     0.036 A 
HETATM   23 CL   UNL     1      21.240  50.215  47.761  1.00  0.00    -0.084 Cl
HETATM   24  C   UNL     1      22.898  48.699  49.257  1.00  0.00     0.056 A 
BRANCH  19  25
HETATM   25  O   UNL     1      26.518  48.500  49.726  1.00  0.00    -0.354 OA
HETATM   26  C   UNL     1      27.713  48.940  49.096  1.00  0.00     0.210 C 
ENDBRANCH  19  25
ENDBRANCH   3  18
TORSDOF 6
ENDMDL
MODEL 2
REMARK VINA RESULT:      -7.7      4.752      7.352
REMARK  6 active torsions:
REMARK  status: ('A' for Active; 'I' for Inactive)
REMARK    1  A    between atoms: N_4  and  C_5 
REMARK    2  A    between atoms: C_5  and  C_6 
REMARK    3  A    between atoms: C_6  and  C_7 
REMARK    4  A    between atoms: C_7  and  N_8 
REMARK       I    between atoms: N_8  and  C_9 
REMARK       I    between atoms: C_9  and  N_10 
REMARK    5  A    between atoms: N_10  and  C_11 
REMARK    6  A    between atoms: C_12  and  O_13 
ROOT
HETATM    1  N   UNL     1      25.174  42.765  51.703  1.00  0.00    -0.343 N 
HETATM    2  C   UNL     1      26.095  43.675  52.174  1.00  0.00     0.320 C 
HETATM    3  N   UNL     1      26.252  43.543  53.540  1.00  0.00    -0.306 N 
HETATM    4  O   UNL     1      26.628  44.518  51.463  1.00  0.00    -0.247 OA
HETATM    5  H   UNL     1      25.159  41.873  52.185  1.00  0.00     0.164 HD
HETATM    6  H   UNL     1      25.368  43.402  54.007  1.00  0.00     0.171 HD
ENDROOT
BRANCH   1   7
HETATM    7  C   UNL     1      24.787  42.740  50.308  1.00  0.00     0.126 C 
BRANCH   7   8
HETATM    8  C   UNL     1      25.426  41.614  49.493  1.00  0.00     0.041 C 
BRANCH   8   9
HETATM    9  C   UNL     1      26.898  41.830  49.155  1.00  0.00     0.152 C 
BRANCH   9  10
HETATM   10  N   UNL     1      27.696  40.622  49.265  1.00  0.00    -0.272 N 
HETATM   11  N   UNL     1      27.815  39.823  48.182  1.00  0.00    -0.176 NA
HETATM   12  C   UNL     1      28.557  38.796  48.617  1.00  0.00     0.074 A 
HETATM   13  C   UNL     1      28.888  37.671  47.710  1.00  0.00     0.074 C 
HETATM   14  C   UNL     1      28.929  38.963  49.970  1.00  0.00     0.083 A 
HETATM   15  C   UNL     1      28.367  40.157  50.368  1.00  0.00     0.050 A 
HETATM   16 CL   UNL     1      29.868  37.891  50.891  1.00  0.00    -0.080 Cl
HETATM   17  C   UNL     1      28.396  40.861  51.673  1.00  0.00     0.072 C 
ENDBRANCH   9  10
ENDBRANCH   8   9
ENDBRANCH   7   8
ENDBRANCH   1   7
BRANCH   3  18
HETATM   18  C   UNL     1      27.259  44.234  54.253  1.00  0.00     0.071 A 
HETATM   19  C   UNL     1      27.059  45.530  54.779  1.00  0.00     0.095 A 
HETATM   20  C   UNL     1      28.089  46.135  55.510  1.00  0.00     0.041 A 
HETATM   21  C   UNL     1      29.307  45.476  55.695  1.00  0.00     0.026 A 
HETATM   22  C   UNL     1      29.510  44.220  55.130  1.00  0.00     0.036 A 
HETATM   23 CL   UNL     1      31.020  43.423  55.345  1.00  0.00    -0.084 Cl
HETATM   24  C   UNL     1      28.499  43.602  54.398  1.00  0.00     0.056 A 
BRANCH  19  25
HETATM   25  O   UNL     1      25.884  46.156  54.450  1.00  0.00    -0.354 OA
HETATM   26  C   UNL     1      25.951  47.520  54.061  1.00  0.00     0.210 C 
ENDBRANCH  19  25
ENDBRANCH   3  18
TORSDOF 6
ENDMDL
MODEL 3
REMARK VINA RESULT:      -7.6      2.644      8.029
REMARK  6 active torsions:
REMARK  status: ('A' for Active; 'I' for Inactive)
REMARK    1  A    between atoms: N_4  and  C_5 
REMARK    2  A    between atoms: C_5  and  C_6 
REMARK    3  A    between atoms: C_6  and  C_7 
REMARK    4  A    between atoms: C_7  and  N_8 
REMARK       I    between atoms: N_8  and  C_9 
REMARK       I    between atoms: C_9  and  N_10 
REMARK    5  A    between atoms: N_10  and  C_11 
REMARK    6  A    between atoms: C_12  and  O_13 
ROOT
HETATM    1  N   UNL     1      27.447  43.227  51.895  1.00  0.00    -0.343 N 
HETATM    2  C   UNL     1      27.872  43.244  53.206  1.00  0.00     0.320 C 
HETATM    3  N   UNL     1      28.735  44.301  53.422  1.00  0.00    -0.306 N 
HETATM    4  O   UNL     1      27.564  42.384  54.021  1.00  0.00    -0.247 OA
HETATM    5  H   UNL     1      27.338  44.138  51.462  1.00  0.00     0.164 HD
HETATM    6  H   UNL     1      29.385  44.417  52.658  1.00  0.00     0.171 HD
ENDROOT
BRANCH   1   7
HETATM    7  C   UNL     1      26.580  42.179  51.399  1.00  0.00     0.126 C 
BRANCH   7   8
HETATM    8  C   UNL     1      25.249  42.674  50.829  1.00  0.00     0.041 C 
BRANCH   8   9
HETATM    9  C   UNL     1      25.356  43.351  49.466  1.00  0.00     0.152 C 
BRANCH   9  10
HETATM   10  N   UNL     1      25.152  44.788  49.521  1.00  0.00    -0.272 N 
HETATM   11  N   UNL     1      26.212  45.583  49.779  1.00  0.00    -0.176 NA
HETATM   12  C   UNL     1      25.692  46.818  49.806  1.00  0.00     0.074 A 
HETATM   13  C   UNL     1      26.553  47.990  50.096  1.00  0.00     0.074 C 
HETATM   14  C   UNL     1      24.304  46.801  49.538  1.00  0.00     0.083 A 
HETATM   15  C   UNL     1      23.976  45.476  49.349  1.00  0.00     0.050 A 
HETATM   16 CL   UNL     1      23.278  48.151  49.479  1.00  0.00    -0.080 Cl
HETATM   17  C   UNL     1      22.678  44.826  49.046  1.00  0.00     0.072 C 
ENDBRANCH   9  10
ENDBRANCH   8   9
ENDBRANCH   7   8
ENDBRANCH   1   7
BRANCH   3  18
HETATM   18  C   UNL     1      29.185  44.655  54.715  1.00  0.00     0.071 A 
HETATM   19  C   UNL     1      28.572  45.675  55.476  1.00  0.00     0.095 A 
HETATM   20  C   UNL     1      29.046  45.942  56.766  1.00  0.00     0.041 A 
HETATM   21  C   UNL     1      30.130  45.226  57.283  1.00  0.00     0.026 A 
HETATM   22  C   UNL     1      30.757  44.258  56.505  1.00  0.00     0.036 A 
HETATM   23 CL   UNL     1      32.103  43.394  57.142  1.00  0.00    -0.084 Cl
HETATM   24  C   UNL     1      30.301  43.979  55.220  1.00  0.00     0.056 A 
BRANCH  19  25
HETATM   25  O   UNL     1      27.597  46.411  54.850  1.00  0.00    -0.354 OA
HETATM   26  C   UNL     1      27.774  47.818  54.789  1.00  0.00     0.210 C 
ENDBRANCH  19  25
ENDBRANCH   3  18
TORSDOF 6
ENDMDL
MODEL 4
REMARK VINA RESULT:      -7.6      2.101      3.006
REMARK  6 active torsions:
REMARK  status: ('A' for Active; 'I' for Inactive)
REMARK    1  A    between atoms: N_4  and  C_5 
REMARK    2  A    between atoms: C_5  and  C_6 
REMARK    3  A    between atoms: C_6  and  C_7 
REMARK    4  A    between atoms: C_7  and  N_8 
REMARK       I    between atoms: N_8  and  C_9 
REMARK       I    between atoms: C_9  and  N_10 
REMARK    5  A    between atoms: N_10  and  C_11 
REMARK    6  A    between atoms: C_12  and  O_13 
ROOT
HETATM    1  N   UNL     1      26.917  44.001  51.771  1.00  0.00    -0.343 N 
HETATM    2  C   UNL     1      26.675  44.841  50.706  1.00  0.00     0.320 C 
HETATM    3  N   UNL     1      25.867  45.893  51.091  1.00  0.00    -0.306 N 
HETATM    4  O   UNL     1      27.078  44.617  49.571  1.00  0.00    -0.247 OA
HETATM    5  H   UNL     1      26.981  44.455  52.676  1.00  0.00     0.164 HD
HETATM    6  H   UNL     1      25.121  45.590  51.699  1.00  0.00     0.171 HD
ENDROOT
BRANCH   1   7
HETATM    7  C   UNL     1      27.691  42.789  51.612  1.00  0.00     0.126 C 
BRANCH   7   8
HETATM    8  C   UNL     1      28.449  42.351  52.867  1.00  0.00     0.041 C 
BRANCH   8   9
HETATM    9  C   UNL     1      29.655  43.217  53.215  1.00  0.00     0.152 C 
BRANCH   9  10
HETATM   10  N   UNL     1      29.384  44.183  54.265  1.00  0.00    -0.272 N 
HETATM   11  N   UNL     1      28.448  45.131  54.047  1.00  0.00    -0.176 NA
HETATM   12  C   UNL     1      28.472  45.873  55.163  1.00  0.00     0.074 A 
HETATM   13  C   UNL     1      27.587  47.056  55.298  1.00  0.00     0.074 C 
HETATM   14  C   UNL     1      29.408  45.374  56.096  1.00  0.00     0.083 A 
HETATM   15  C   UNL     1      29.982  44.273  55.497  1.00  0.00     0.050 A 
HETATM   16 CL   UNL     1      29.740  46.023  57.628  1.00  0.00    -0.080 Cl
HETATM   17  C   UNL     1      31.033  43.341  55.974  1.00  0.00     0.072 C 
ENDBRANCH   9  10
ENDBRANCH   8   9
ENDBRANCH   7   8
ENDBRANCH   1   7
BRANCH   3  18
HETATM   18  C   UNL     1      25.603  46.993  50.241  1.00  0.00     0.071 A 
HETATM   19  C   UNL     1      24.340  47.202  49.645  1.00  0.00     0.095 A 
HETATM   20  C   UNL     1      24.141  48.336  48.848  1.00  0.00     0.041 A 
HETATM   21  C   UNL     1      25.188  49.234  48.623  1.00  0.00     0.026 A 
HETATM   22  C   UNL     1      26.442  48.991  49.175  1.00  0.00     0.036 A 
HETATM   23 CL   UNL     1      27.731  50.092  48.878  1.00  0.00    -0.084 Cl
HETATM   24  C   UNL     1      26.660  47.869  49.970  1.00  0.00     0.056 A 
BRANCH  19  25
HETATM   25  O   UNL     1      23.406  46.211  49.815  1.00  0.00    -0.354 OA
HETATM   26  C   UNL     1      22.966  45.516  48.658  1.00  0.00     0.210 C 
ENDBRANCH  19  25
ENDBRANCH   3  18
TORSDOF 6
ENDMDL
MODEL 5
REMARK VINA RESULT:      -7.6      1.763      2.691
REMARK  6 active torsions:
REMARK  status: ('A' for Active; 'I' for Inactive)
REMARK    1  A    between atoms: N_4  and  C_5 
REMARK    2  A    between atoms: C_5  and  C_6 
REMARK    3  A    between atoms: C_6  and  C_7 
REMARK    4  A    between atoms: C_7  and  N_8 
REMARK       I    between atoms: N_8  and  C_9 
REMARK       I    between atoms: C_9  and  N_10 
REMARK    5  A    between atoms: N_10  and  C_11 
REMARK    6  A    between atoms: C_12  and  O_13 
ROOT
HETATM    1  N   UNL     1      24.593  45.874  49.621  1.00  0.00    -0.343 N 
HETATM    2  C   UNL     1      24.213  47.194  49.733  1.00  0.00     0.320 C 
HETATM    3  N   UNL     1      23.344  47.536  48.715  1.00  0.00    -0.306 N 
HETATM    4  O   UNL     1      24.661  47.950  50.586  1.00  0.00    -0.247 OA
HETATM    5  H   UNL     1      23.883  45.248  49.256  1.00  0.00     0.164 HD
HETATM    6  H   UNL     1      23.630  47.146  47.829  1.00  0.00     0.171 HD
ENDROOT
BRANCH   1   7
HETATM    7  C   UNL     1      25.549  45.287  50.536  1.00  0.00     0.126 C 
BRANCH   7   8
HETATM    8  C   UNL     1      24.937  44.736  51.826  1.00  0.00     0.041 C 
BRANCH   8   9
HETATM    9  C   UNL     1      25.614  45.215  53.105  1.00  0.00     0.152 C 
BRANCH   9  10
HETATM   10  N   UNL     1      26.774  44.422  53.473  1.00  0.00    -0.272 N 
HETATM   11  N   UNL     1      26.846  43.143  53.046  1.00  0.00    -0.176 NA
HETATM   12  C   UNL     1      27.987  42.686  53.581  1.00  0.00     0.074 A 
HETATM   13  C   UNL     1      28.410  41.282  53.362  1.00  0.00     0.074 C 
HETATM   14  C   UNL     1      28.648  43.690  54.324  1.00  0.00     0.083 A 
HETATM   15  C   UNL     1      27.849  44.809  54.234  1.00  0.00     0.050 A 
HETATM   16 CL   UNL     1      30.118  43.519  55.153  1.00  0.00    -0.080 Cl
HETATM   17  C   UNL     1      28.005  46.167  54.809  1.00  0.00     0.072 C 
ENDBRANCH   9  10
ENDBRANCH   8   9
ENDBRANCH   7   8
ENDBRANCH   1   7
BRANCH   3  18
HETATM   18  C   UNL     1      22.667  48.778  48.687  1.00  0.00     0.071 A 
HETATM   19  C   UNL     1      23.152  49.887  47.960  1.00  0.00     0.095 A 
HETATM   20  C   UNL     1      22.406  51.072  47.946  1.00  0.00     0.041 A 
HETATM   21  C   UNL     1      21.210  51.163  48.664  1.00  0.00     0.026 A 
HETATM   22  C   UNL     1      20.768  50.080  49.417  1.00  0.00     0.036 A 
HETATM   23 CL   UNL     1      19.304  50.207  50.314  1.00  0.00    -0.084 Cl
HETATM   24  C   UNL     1      21.496  48.893  49.445  1.00  0.00     0.056 A 
BRANCH  19  25
HETATM   25  O   UNL     1      24.390  49.755  47.385  1.00  0.00    -0.354 OA
HETATM   26  C   UNL     1      25.509  50.239  48.114  1.00  0.00     0.210 C 
ENDBRANCH  19  25
ENDBRANCH   3  18
TORSDOF 6
ENDMDL
MODEL 6
REMARK VINA RESULT:      -7.5      2.163      8.052
REMARK  6 active torsions:
REMARK  status: ('A' for Active; 'I' for Inactive)
REMARK    1  A    between atoms: N_4  and  C_5 
REMARK    2  A    between atoms: C_5  and  C_6 
REMARK    3  A    between atoms: C_6  and  C_7 
REMARK    4  A    between atoms: C_7  and  N_8 
REMARK       I    between atoms: N_8  and  C_9 
REMARK       I    between atoms: C_9  and  N_10 
REMARK    5  A    between atoms: N_10  and  C_11 
REMARK    6  A    between atoms: C_12  and  O_13 
ROOT
HETATM    1  N   UNL     1      25.229  43.481  50.781  1.00  0.00    -0.343 N 
HETATM    2  C   UNL     1      26.441  43.771  51.368  1.00  0.00     0.320 C 
HETATM    3  N   UNL     1      26.417  43.456  52.713  1.00  0.00    -0.306 N 
HETATM    4  O   UNL     1      27.367  44.301  50.767  1.00  0.00    -0.247 OA
HETATM    5  H   UNL     1      24.746  42.673  51.159  1.00  0.00     0.164 HD
HETATM    6  H   UNL     1      25.546  43.727  53.146  1.00  0.00     0.171 HD
ENDROOT
BRANCH   1   7
HETATM    7  C   UNL     1      24.979  43.776  49.386  1.00  0.00     0.126 C 
BRANCH   7   8
HETATM    8  C   UNL     1      24.036  44.957  49.147  1.00  0.00     0.041 C 
BRANCH   8   9
HETATM    9  C   UNL     1      24.166  46.089  50.160  1.00  0.00     0.152 C 
BRANCH   9  10
HETATM   10  N   UNL     1      24.468  47.372  49.551  1.00  0.00    -0.272 N 
HETATM   11  N   UNL     1      25.756  47.773  49.487  1.00  0.00    -0.176 NA
HETATM   12  C   UNL     1      25.690  48.987  48.925  1.00  0.00     0.074 A 
HETATM   13  C   UNL     1      26.923  49.783  48.708  1.00  0.00     0.074 C 
HETATM   14  C   UNL     1      24.358  49.341  48.610  1.00  0.00     0.083 A 
HETATM   15  C   UNL     1      23.583  48.277  49.017  1.00  0.00     0.050 A 
HETATM   16 CL   UNL     1      23.849  50.789  47.889  1.00  0.00    -0.080 Cl
HETATM   17  C   UNL     1      22.117  48.061  48.962  1.00  0.00     0.072 C 
ENDBRANCH   9  10
ENDBRANCH   8   9
ENDBRANCH   7   8
ENDBRANCH   1   7
BRANCH   3  18
HETATM   18  C   UNL     1      27.580  43.492  53.518  1.00  0.00     0.071 A 
HETATM   19  C   UNL     1      28.429  42.374  53.669  1.00  0.00     0.095 A 
HETATM   20  C   UNL     1      29.585  42.496  54.449  1.00  0.00     0.041 A 
HETATM   21  C   UNL     1      29.880  43.702  55.091  1.00  0.00     0.026 A 
HETATM   22  C   UNL     1      29.010  44.782  54.975  1.00  0.00     0.036 A 
HETATM   23 CL   UNL     1      29.371  46.258  55.784  1.00  0.00    -0.084 Cl
HETATM   24  C   UNL     1      27.855  44.680  54.204  1.00  0.00     0.056 A 
BRANCH  19  25
HETATM   25  O   UNL     1      28.004  41.195  53.108  1.00  0.00    -0.354 OA
HETATM   26  C   UNL     1      28.513  40.856  51.826  1.00  0.00     0.210 C 
ENDBRANCH  19  25
ENDBRANCH   3  18
TORSDOF 6
ENDMDL
MODEL 7
REMARK VINA RESULT:      -7.5      2.469      8.859
REMARK  6 active torsions:
REMARK  status: ('A' for Active; 'I' for Inactive)
REMARK    1  A    between atoms: N_4  and  C_5 
REMARK    2  A    between atoms: C_5  and  C_6 
REMARK    3  A    between atoms: C_6  and  C_7 
REMARK    4  A    between atoms: C_7  and  N_8 
REMARK       I    between atoms: N_8  and  C_9 
REMARK       I    between atoms: C_9  and  N_10 
REMARK    5  A    between atoms: N_10  and  C_11 
REMARK    6  A    between atoms: C_12  and  O_13 
ROOT
HETATM    1  N   UNL     1      24.404  45.561  51.169  1.00  0.00    -0.343 N 
HETATM    2  C   UNL     1      25.589  45.879  51.796  1.00  0.00     0.320 C 
HETATM    3  N   UNL     1      25.587  45.418  53.098  1.00  0.00    -0.306 N 
HETATM    4  O   UNL     1      26.471  46.543  51.265  1.00  0.00    -0.247 OA
HETATM    5  H   UNL     1      23.986  44.681  51.451  1.00  0.00     0.164 HD
HETATM    6  H   UNL     1      24.697  45.571  53.549  1.00  0.00     0.171 HD
ENDROOT
BRANCH   1   7
HETATM    7  C   UNL     1      24.134  45.986  49.812  1.00  0.00     0.126 C 
BRANCH   7   8
HETATM    8  C   UNL     1      23.747  47.460  49.674  1.00  0.00     0.041 C 
BRANCH   8   9
HETATM    9  C   UNL     1      22.918  47.786  48.436  1.00  0.00     0.152 C 
BRANCH   9  10
HETATM   10  N   UNL     1      21.804  48.678  48.709  1.00  0.00    -0.272 N 
HETATM   11  N   UNL     1      20.649  48.151  49.168  1.00  0.00    -0.176 NA
HETATM   12  C   UNL     1      19.830  49.207  49.272  1.00  0.00     0.074 A 
HETATM   13  C   UNL     1      18.429  49.029  49.725  1.00  0.00     0.074 C 
HETATM   14  C   UNL     1      20.481  50.405  48.902  1.00  0.00     0.083 A 
HETATM   15  C   UNL     1      21.762  50.041  48.548  1.00  0.00     0.050 A 
HETATM   16 CL   UNL     1      19.796  51.957  48.897  1.00  0.00    -0.080 Cl
HETATM   17  C   UNL     1      22.908  50.850  48.067  1.00  0.00     0.072 C 
ENDBRANCH   9  10
ENDBRANCH   8   9
ENDBRANCH   7   8
ENDBRANCH   1   7
BRANCH   3  18
HETATM   18  C   UNL     1      26.743  45.457  53.913  1.00  0.00     0.071 A 
HETATM   19  C   UNL     1      26.959  46.474  54.870  1.00  0.00     0.095 A 
HETATM   20  C   UNL     1      28.107  46.424  55.670  1.00  0.00     0.041 A 
HETATM   21  C   UNL     1      29.040  45.396  55.505  1.00  0.00     0.026 A 
HETATM   22  C   UNL     1      28.840  44.428  54.526  1.00  0.00     0.036 A 
HETATM   23 CL   UNL     1      30.003  43.175  54.317  1.00  0.00    -0.084 Cl
HETATM   24  C   UNL     1      27.705  44.460  53.719  1.00  0.00     0.056 A 
BRANCH  19  25
HETATM   25  O   UNL     1      26.060  47.511  54.883  1.00  0.00    -0.354 OA
HETATM   26  C   UNL     1      26.349  48.621  55.720  1.00  0.00     0.210 C 
ENDBRANCH  19  25
ENDBRANCH   3  18
TORSDOF 6
ENDMDL
MODEL 8
REMARK VINA RESULT:      -7.4      1.665      2.050
REMARK  6 active torsions:
REMARK  status: ('A' for Active; 'I' for Inactive)
REMARK    1  A    between atoms: N_4  and  C_5 
REMARK    2  A    between atoms: C_5  and  C_6 
REMARK    3  A    between atoms: C_6  and  C_7 
REMARK    4  A    between atoms: C_7  and  N_8 
REMARK       I    between atoms: N_8  and  C_9 
REMARK       I    between atoms: C_9  and  N_10 
REMARK    5  A    between atoms: N_10  and  C_11 
REMARK    6  A    between atoms: C_12  and  O_13 
ROOT
HETATM    1  N   UNL     1      25.170  45.882  49.642  1.00  0.00    -0.343 N 
HETATM    2  C   UNL     1      24.775  47.194  49.789  1.00  0.00     0.320 C 
HETATM    3  N   UNL     1      23.986  47.586  48.725  1.00  0.00    -0.306 N 
HETATM    4  O   UNL     1      25.150  47.907  50.711  1.00  0.00    -0.247 OA
HETATM    5  H   UNL     1      24.494  45.274  49.191  1.00  0.00     0.164 HD
HETATM    6  H   UNL     1      24.343  47.241  47.846  1.00  0.00     0.171 HD
ENDROOT
BRANCH   1   7
HETATM    7  C   UNL     1      26.055  45.252  50.598  1.00  0.00     0.126 C 
BRANCH   7   8
HETATM    8  C   UNL     1      25.347  44.638  51.808  1.00  0.00     0.041 C 
BRANCH   8   9
HETATM    9  C   UNL     1      26.265  43.882  52.764  1.00  0.00     0.152 C 
BRANCH   9  10
HETATM   10  N   UNL     1      26.984  44.752  53.678  1.00  0.00    -0.272 N 
HETATM   11  N   UNL     1      26.480  45.977  53.938  1.00  0.00    -0.176 NA
HETATM   12  C   UNL     1      27.381  46.531  54.760  1.00  0.00     0.074 A 
HETATM   13  C   UNL     1      27.196  47.916  55.256  1.00  0.00     0.074 C 
HETATM   14  C   UNL     1      28.443  45.641  55.039  1.00  0.00     0.083 A 
HETATM   15  C   UNL     1      28.162  44.491  54.333  1.00  0.00     0.050 A 
HETATM   16 CL   UNL     1      29.781  45.956  56.034  1.00  0.00    -0.080 Cl
HETATM   17  C   UNL     1      28.903  43.212  54.217  1.00  0.00     0.072 C 
ENDBRANCH   9  10
ENDBRANCH   8   9
ENDBRANCH   7   8
ENDBRANCH   1   7
BRANCH   3  18
HETATM   18  C   UNL     1      23.306  48.826  48.707  1.00  0.00     0.071 A 
HETATM   19  C   UNL     1      23.788  49.942  47.987  1.00  0.00     0.095 A 
HETATM   20  C   UNL     1      23.039  51.125  47.982  1.00  0.00     0.041 A 
HETATM   21  C   UNL     1      21.844  51.209  48.701  1.00  0.00     0.026 A 
HETATM   22  C   UNL     1      21.404  50.119  49.446  1.00  0.00     0.036 A 
HETATM   23 CL   UNL     1      19.940  50.236  50.344  1.00  0.00    -0.084 Cl
HETATM   24  C   UNL     1      22.135  48.934  49.465  1.00  0.00     0.056 A 
BRANCH  19  25
HETATM   25  O   UNL     1      25.027  49.817  47.411  1.00  0.00    -0.354 OA
HETATM   26  C   UNL     1      26.154  50.207  48.183  1.00  0.00     0.210 C 
ENDBRANCH  19  25
ENDBRANCH   3  18
TORSDOF 6
ENDMDL
MODEL 9
REMARK VINA RESULT:      -7.0     11.461     13.066
REMARK  6 active torsions:
REMARK  status: ('A' for Active; 'I' for Inactive)
REMARK    1  A    between atoms: N_4  and  C_5 
REMARK    2  A    between atoms: C_5  and  C_6 
REMARK    3  A    between atoms: C_6  and  C_7 
REMARK    4  A    between atoms: C_7  and  N_8 
REMARK       I    between atoms: N_8  and  C_9 
REMARK       I    between atoms: C_9  and  N_10 
REMARK    5  A    between atoms: N_10  and  C_11 
REMARK    6  A    between atoms: C_12  and  O_13 
ROOT
HETATM    1  N   UNL     1      30.638  48.724  42.581  1.00  0.00    -0.343 N 
HETATM    2  C   UNL     1      30.131  48.464  41.326  1.00  0.00     0.320 C 
HETATM    3  N   UNL     1      28.840  47.981  41.416  1.00  0.00    -0.306 N 
HETATM    4  O   UNL     1      30.787  48.585  40.300  1.00  0.00    -0.247 OA
HETATM    5  H   UNL     1      29.962  49.054  43.262  1.00  0.00     0.164 HD
HETATM    6  H   UNL     1      28.738  47.319  42.171  1.00  0.00     0.171 HD
ENDROOT
BRANCH   1   7
HETATM    7  C   UNL     1      31.998  49.184  42.761  1.00  0.00     0.126 C 
BRANCH   7   8
HETATM    8  C   UNL     1      32.120  50.631  43.243  1.00  0.00     0.041 C 
BRANCH   8   9
HETATM    9  C   UNL     1      32.335  51.655  42.133  1.00  0.00     0.152 C 
BRANCH   9  10
HETATM   10  N   UNL     1      31.144  51.899  41.338  1.00  0.00    -0.272 N 
HETATM   11  N   UNL     1      29.954  51.997  41.968  1.00  0.00    -0.176 NA
HETATM   12  C   UNL     1      29.074  52.172  40.973  1.00  0.00     0.074 A 
HETATM   13  C   UNL     1      27.625  52.294  41.263  1.00  0.00     0.074 C 
HETATM   14  C   UNL     1      29.717  52.211  39.715  1.00  0.00     0.083 A 
HETATM   15  C   UNL     1      31.060  52.040  39.975  1.00  0.00     0.050 A 
HETATM   16 CL   UNL     1      28.963  52.419  38.209  1.00  0.00    -0.080 Cl
HETATM   17  C   UNL     1      32.230  51.982  39.066  1.00  0.00     0.072 C 
ENDBRANCH   9  10
ENDBRANCH   8   9
ENDBRANCH   7   8
ENDBRANCH   1   7
BRANCH   3  18
HETATM   18  C   UNL     1      28.023  47.794  40.276  1.00  0.00     0.071 A 
HETATM   19  C   UNL     1      27.770  46.517  39.728  1.00  0.00     0.095 A 
HETATM   20  C   UNL     1      26.918  46.406  38.623  1.00  0.00     0.041 A 
HETATM   21  C   UNL     1      26.347  47.547  38.052  1.00  0.00     0.026 A 
HETATM   22  C   UNL     1      26.644  48.804  38.569  1.00  0.00     0.036 A 
HETATM   23 CL   UNL     1      25.953  50.207  37.849  1.00  0.00    -0.084 Cl
HETATM   24  C   UNL     1      27.490  48.936  39.668  1.00  0.00     0.056 A 
BRANCH  19  25
HETATM   25  O   UNL     1      28.464  45.465  40.270  1.00  0.00    -0.354 OA
HETATM   26  C   UNL     1      27.773  44.235  40.433  1.00  0.00     0.210 C 
ENDBRANCH  19  25
ENDBRANCH   3  18
TORSDOF 6
ENDMDL
MODEL 10
REMARK VINA RESULT:      -7.0     12.186     13.587
REMARK  6 active torsions:
REMARK  status: ('A' for Active; 'I' for Inactive)
REMARK    1  A    between atoms: N_4  and  C_5 
REMARK    2  A    between atoms: C_5  and  C_6 
REMARK    3  A    between atoms: C_6  and  C_7 
REMARK    4  A    between atoms: C_7  and  N_8 
REMARK       I    between atoms: N_8  and  C_9 
REMARK       I    between atoms: C_9  and  N_10 
REMARK    5  A    between atoms: N_10  and  C_11 
REMARK    6  A    between atoms: C_12  and  O_13 
ROOT
HETATM    1  N   UNL     1      33.322  51.431  38.983  1.00  0.00    -0.343 N 
HETATM    2  C   UNL     1      31.977  51.431  39.283  1.00  0.00     0.320 C 
HETATM    3  N   UNL     1      31.313  50.478  38.535  1.00  0.00    -0.306 N 
HETATM    4  O   UNL     1      31.463  52.228  40.058  1.00  0.00    -0.247 OA
HETATM    5  H   UNL     1      33.715  50.524  38.754  1.00  0.00     0.164 HD
HETATM    6  H   UNL     1      31.637  50.458  37.579  1.00  0.00     0.171 HD
ENDROOT
BRANCH   1   7
HETATM    7  C   UNL     1      34.228  52.381  39.592  1.00  0.00     0.126 C 
BRANCH   7   8
HETATM    8  C   UNL     1      35.373  51.747  40.384  1.00  0.00     0.041 C 
BRANCH   8   9
HETATM    9  C   UNL     1      35.030  51.402  41.830  1.00  0.00     0.152 C 
BRANCH   9  10
HETATM   10  N   UNL     1      33.963  50.424  41.949  1.00  0.00    -0.272 N 
HETATM   11  N   UNL     1      34.060  49.270  41.255  1.00  0.00    -0.176 NA
HETATM   12  C   UNL     1      32.922  48.623  41.539  1.00  0.00     0.074 A 
HETATM   13  C   UNL     1      32.635  47.302  40.930  1.00  0.00     0.074 C 
HETATM   14  C   UNL     1      32.118  49.361  42.438  1.00  0.00     0.083 A 
HETATM   15  C   UNL     1      32.815  50.522  42.696  1.00  0.00     0.050 A 
HETATM   16 CL   UNL     1      30.606  48.892  43.047  1.00  0.00    -0.080 Cl
HETATM   17  C   UNL     1      32.485  51.687  43.552  1.00  0.00     0.072 C 
ENDBRANCH   9  10
ENDBRANCH   8   9
ENDBRANCH   7   8
ENDBRANCH   1   7
BRANCH   3  18
HETATM   18  C   UNL     1      29.957  50.148  38.766  1.00  0.00     0.071 A 
HETATM   19  C   UNL     1      28.893  50.862  38.172  1.00  0.00     0.095 A 
HETATM   20  C   UNL     1      27.576  50.451  38.415  1.00  0.00     0.041 A 
HETATM   21  C   UNL     1      27.318  49.365  39.256  1.00  0.00     0.026 A 
HETATM   22  C   UNL     1      28.373  48.700  39.874  1.00  0.00     0.036 A 
HETATM   23 CL   UNL     1      28.046  47.375  40.923  1.00  0.00    -0.084 Cl
HETATM   24  C   UNL     1      29.689  49.094  39.647  1.00  0.00     0.056 A 
BRANCH  19  25
HETATM   25  O   UNL     1      29.225  51.988  37.462  1.00  0.00    -0.354 OA
HETATM   26  C   UNL     1      28.781  53.239  37.967  1.00  0.00     0.210 C 
ENDBRANCH  19  25
ENDBRANCH   3  18
TORSDOF 6
ENDMDL
