MODEL 1
REMARK VINA RESULT:      -9.3      0.000      0.000
REMARK  5 active torsions:
REMARK  status: ('A' for Active; 'I' for Inactive)
REMARK       I    between atoms: N_2  and  C_3 
REMARK    1  A    between atoms: C_3  and  C_4 
REMARK    2  A    between atoms: C_6  and  N_7 
REMARK    3  A    between atoms: N_7  and  C_8 
REMARK    4  A    between atoms: C_8  and  C_9 
REMARK    5  A    between atoms: C_19  and  O_20 
ROOT
HETATM    1  C   UNL     1      25.970  46.621  50.290  1.00  0.00     0.033 A 
HETATM    2  C   UNL     1      26.145  46.401  51.662  1.00  0.00     0.043 A 
HETATM    3  C   UNL     1      26.241  45.104  52.183  1.00  0.00     0.043 A 
HETATM    4  C   UNL     1      26.203  44.011  51.285  1.00  0.00     0.089 A 
HETATM    5  C   UNL     1      26.007  44.226  49.917  1.00  0.00     0.039 A 
HETATM    6  C   UNL     1      25.884  45.527  49.424  1.00  0.00     0.020 A 
ENDROOT
BRANCH   3   7
HETATM    7  N   UNL     1      26.498  44.856  53.549  1.00  0.00    -0.286 NA
HETATM    8  H   UNL     1      25.603  44.864  54.041  1.00  0.00     0.128 HD
BRANCH   7   9
HETATM    9  C   UNL     1      27.517  45.647  54.242  1.00  0.00     0.132 C 
BRANCH   9  10
HETATM   10  C   UNL     1      28.718  44.808  54.645  1.00  0.00    -0.034 A 
HETATM   11  C   UNL     1      29.409  44.974  55.884  1.00  0.00    -0.018 A 
HETATM   12  C   UNL     1      30.524  44.137  56.156  1.00  0.00    -0.025 A 
HETATM   13  C   UNL     1      29.072  45.934  56.871  1.00  0.00     0.013 A 
HETATM   14  C   UNL     1      31.248  44.284  57.351  1.00  0.00     0.012 A 
HETATM   15  C   UNL     1      30.914  43.159  55.230  1.00  0.00     0.012 A 
HETATM   16  C   UNL     1      30.892  45.245  58.294  1.00  0.00     0.001 A 
HETATM   17  C   UNL     1      29.804  46.070  58.054  1.00  0.00     0.001 A 
HETATM   18  C   UNL     1      30.226  42.991  54.035  1.00  0.00     0.002 A 
HETATM   19  C   UNL     1      29.139  43.806  53.747  1.00  0.00     0.009 A 
ENDBRANCH   9  10
ENDBRANCH   7   9
ENDBRANCH   3   7
BRANCH   4  20
HETATM   20  O   UNL     1      26.324  42.771  51.873  1.00  0.00    -0.354 OA
HETATM   21  C   UNL     1      27.247  41.866  51.279  1.00  0.00     0.210 C 
ENDBRANCH   4  20
BRANCH   1  22
HETATM   22  C   UNL     1      25.845  47.993  49.724  1.00  0.00     0.251 C 
HETATM   23  N   UNL     1      26.965  48.516  49.110  1.00  0.00    -0.361 N 
HETATM   24  C   UNL     1      26.925  49.813  48.485  1.00  0.00     0.149 C 
HETATM   25  H   UNL     1      27.749  47.913  48.896  1.00  0.00     0.162 HD
HETATM   26  O   UNL     1      24.778  48.592  49.798  1.00  0.00    -0.268 OA
ENDBRANCH   1  22
TORSDOF 5
ENDMDL
MODEL 2
REMARK VINA RESULT:      -8.9      2.475      5.220
REMARK  5 active torsions:
REMARK  status: ('A' for Active; 'I' for Inactive)
REMARK       I    between atoms: N_2  and  C_3 
REMARK    1  A    between atoms: C_3  and  C_4 
REMARK    2  A    between atoms: C_6  and  N_7 
REMARK    3  A    between atoms: N_7  and  C_8 
REMARK    4  A    between atoms: C_8  and  C_9 
REMARK    5  A    between atoms: C_19  and  O_20 
ROOT
HETATM    1  C   UNL     1      27.076  40.661  50.475  1.00  0.00     0.033 A 
HETATM    2  C   UNL     1      27.987  41.551  51.057  1.00  0.00     0.043 A 
HETATM    3  C   UNL     1      27.591  42.829  51.470  1.00  0.00     0.043 A 
HETATM    4  C   UNL     1      26.230  43.193  51.329  1.00  0.00     0.089 A 
HETATM    5  C   UNL     1      25.323  42.314  50.729  1.00  0.00     0.039 A 
HETATM    6  C   UNL     1      25.747  41.056  50.298  1.00  0.00     0.020 A 
ENDROOT
BRANCH   3   7
HETATM    7  N   UNL     1      28.469  43.715  52.131  1.00  0.00    -0.286 NA
HETATM    8  H   UNL     1      29.123  44.081  51.438  1.00  0.00     0.128 HD
BRANCH   7   9
HETATM    9  C   UNL     1      29.147  43.274  53.353  1.00  0.00     0.132 C 
BRANCH   9  10
HETATM   10  C   UNL     1      29.047  44.303  54.467  1.00  0.00    -0.034 A 
HETATM   11  C   UNL     1      29.902  44.304  55.611  1.00  0.00    -0.018 A 
HETATM   12  C   UNL     1      29.716  45.311  56.595  1.00  0.00    -0.025 A 
HETATM   13  C   UNL     1      30.926  43.354  55.850  1.00  0.00     0.013 A 
HETATM   14  C   UNL     1      30.519  45.334  57.748  1.00  0.00     0.012 A 
HETATM   15  C   UNL     1      28.727  46.289  56.426  1.00  0.00     0.012 A 
HETATM   16  C   UNL     1      31.511  44.378  57.954  1.00  0.00     0.001 A 
HETATM   17  C   UNL     1      31.715  43.388  57.004  1.00  0.00     0.001 A 
HETATM   18  C   UNL     1      27.911  46.293  55.301  1.00  0.00     0.002 A 
HETATM   19  C   UNL     1      28.071  45.311  54.332  1.00  0.00     0.009 A 
ENDBRANCH   9  10
ENDBRANCH   7   9
ENDBRANCH   3   7
BRANCH   4  20
HETATM   20  O   UNL     1      25.918  44.457  51.777  1.00  0.00    -0.354 OA
HETATM   21  C   UNL     1      24.767  45.072  51.211  1.00  0.00     0.210 C 
ENDBRANCH   4  20
BRANCH   1  22
HETATM   22  C   UNL     1      27.488  39.305  50.012  1.00  0.00     0.251 C 
HETATM   23  N   UNL     1      26.514  38.328  50.011  1.00  0.00    -0.361 N 
HETATM   24  C   UNL     1      26.802  37.001  49.528  1.00  0.00     0.149 C 
HETATM   25  H   UNL     1      25.543  38.584  50.134  1.00  0.00     0.162 HD
HETATM   26  O   UNL     1      28.638  39.110  49.636  1.00  0.00    -0.268 OA
ENDBRANCH   1  22
TORSDOF 5
ENDMDL
MODEL 3
REMARK VINA RESULT:      -8.8      1.828      2.782
REMARK  5 active torsions:
REMARK  status: ('A' for Active; 'I' for Inactive)
REMARK       I    between atoms: N_2  and  C_3 
REMARK    1  A    between atoms: C_3  and  C_4 
REMARK    2  A    between atoms: C_6  and  N_7 
REMARK    3  A    between atoms: N_7  and  C_8 
REMARK    4  A    between atoms: C_8  and  C_9 
REMARK    5  A    between atoms: C_19  and  O_20 
ROOT
HETATM    1  C   UNL     1      24.200  46.451  49.969  1.00  0.00     0.033 A 
HETATM    2  C   UNL     1      24.759  46.000  51.171  1.00  0.00     0.043 A 
HETATM    3  C   UNL     1      24.946  44.634  51.419  1.00  0.00     0.043 A 
HETATM    4  C   UNL     1      24.597  43.711  50.404  1.00  0.00     0.089 A 
HETATM    5  C   UNL     1      24.018  44.156  49.211  1.00  0.00     0.039 A 
HETATM    6  C   UNL     1      23.814  45.522  49.000  1.00  0.00     0.020 A 
ENDROOT
BRANCH   3   7
HETATM    7  N   UNL     1      25.581  44.157  52.586  1.00  0.00    -0.286 NA
HETATM    8  H   UNL     1      25.177  44.650  53.384  1.00  0.00     0.128 HD
BRANCH   7   9
HETATM    9  C   UNL     1      27.045  44.119  52.641  1.00  0.00     0.132 C 
BRANCH   9  10
HETATM   10  C   UNL     1      27.596  44.951  53.787  1.00  0.00    -0.034 A 
HETATM   11  C   UNL     1      28.748  44.576  54.544  1.00  0.00    -0.018 A 
HETATM   12  C   UNL     1      29.173  45.427  55.598  1.00  0.00    -0.025 A 
HETATM   13  C   UNL     1      29.500  43.393  54.331  1.00  0.00     0.013 A 
HETATM   14  C   UNL     1      30.285  45.083  56.384  1.00  0.00     0.012 A 
HETATM   15  C   UNL     1      28.483  46.618  55.866  1.00  0.00     0.012 A 
HETATM   16  C   UNL     1      30.995  43.907  56.152  1.00  0.00     0.001 A 
HETATM   17  C   UNL     1      30.603  43.063  55.124  1.00  0.00     0.001 A 
HETATM   18  C   UNL     1      27.375  46.986  55.113  1.00  0.00     0.002 A 
HETATM   19  C   UNL     1      26.938  46.162  54.084  1.00  0.00     0.009 A 
ENDBRANCH   9  10
ENDBRANCH   7   9
ENDBRANCH   3   7
BRANCH   4  20
HETATM   20  O   UNL     1      24.829  42.390  50.716  1.00  0.00    -0.354 OA
HETATM   21  C   UNL     1      25.046  41.501  49.627  1.00  0.00     0.210 C 
ENDBRANCH   4  20
BRANCH   1  22
HETATM   22  C   UNL     1      23.976  47.900  49.701  1.00  0.00     0.251 C 
HETATM   23  N   UNL     1      22.667  48.310  49.561  1.00  0.00    -0.361 N 
HETATM   24  C   UNL     1      22.348  49.700  49.355  1.00  0.00     0.149 C 
HETATM   25  H   UNL     1      21.914  47.687  49.823  1.00  0.00     0.162 HD
HETATM   26  O   UNL     1      24.932  48.665  49.637  1.00  0.00    -0.268 OA
ENDBRANCH   1  22
TORSDOF 5
ENDMDL
MODEL 4
REMARK VINA RESULT:      -8.7      1.610      2.436
REMARK  5 active torsions:
REMARK  status: ('A' for Active; 'I' for Inactive)
REMARK       I    between atoms: N_2  and  C_3 
REMARK    1  A    between atoms: C_3  and  C_4 
REMARK    2  A    between atoms: C_6  and  N_7 
REMARK    3  A    between atoms: N_7  and  C_8 
REMARK    4  A    between atoms: C_8  and  C_9 
REMARK    5  A    between atoms: C_19  and  O_20 
ROOT
HETATM    1  C   UNL     1      25.394  45.145  51.053  1.00  0.00     0.033 A 
HETATM    2  C   UNL     1      26.224  44.779  52.119  1.00  0.00     0.043 A 
HETATM    3  C   UNL     1      26.691  43.466  52.259  1.00  0.00     0.043 A 
HETATM    4  C   UNL     1      26.340  42.516  51.270  1.00  0.00     0.089 A 
HETATM    5  C   UNL     1      25.494  42.873  50.215  1.00  0.00     0.039 A 
HETATM    6  C   UNL     1      25.017  44.182  50.113  1.00  0.00     0.020 A 
ENDROOT
BRANCH   3   7
HETATM    7  N   UNL     1      27.593  43.089  53.277  1.00  0.00    -0.286 NA
HETATM    8  H   UNL     1      27.086  43.102  54.164  1.00  0.00     0.128 HD
BRANCH   7   9
HETATM    9  C   UNL     1      28.890  43.764  53.372  1.00  0.00     0.132 C 
BRANCH   9  10
HETATM   10  C   UNL     1      28.998  44.623  54.620  1.00  0.00    -0.034 A 
HETATM   11  C   UNL     1      29.963  44.393  55.648  1.00  0.00    -0.018 A 
HETATM   12  C   UNL     1      29.971  45.257  56.776  1.00  0.00    -0.025 A 
HETATM   13  C   UNL     1      30.916  43.344  55.637  1.00  0.00     0.013 A 
HETATM   14  C   UNL     1      30.886  45.050  57.822  1.00  0.00     0.012 A 
HETATM   15  C   UNL     1      29.062  46.321  56.856  1.00  0.00     0.012 A 
HETATM   16  C   UNL     1      31.802  44.002  57.781  1.00  0.00     0.001 A 
HETATM   17  C   UNL     1      31.818  43.150  56.687  1.00  0.00     0.001 A 
HETATM   18  C   UNL     1      28.139  46.551  55.844  1.00  0.00     0.002 A 
HETATM   19  C   UNL     1      28.109  45.711  54.737  1.00  0.00     0.009 A 
ENDBRANCH   9  10
ENDBRANCH   7   9
ENDBRANCH   3   7
BRANCH   4  20
HETATM   20  O   UNL     1      26.855  41.254  51.468  1.00  0.00    -0.354 OA
HETATM   21  C   UNL     1      27.745  40.760  50.475  1.00  0.00     0.210 C 
ENDBRANCH   4  20
BRANCH   1  22
HETATM   22  C   UNL     1      24.873  46.533  50.903  1.00  0.00     0.251 C 
HETATM   23  N   UNL     1      24.178  46.814  49.745  1.00  0.00    -0.361 N 
HETATM   24  C   UNL     1      23.589  48.112  49.534  1.00  0.00     0.149 C 
HETATM   25  H   UNL     1      23.884  46.058  49.140  1.00  0.00     0.162 HD
HETATM   26  O   UNL     1      25.052  47.355  51.796  1.00  0.00    -0.268 OA
ENDBRANCH   1  22
TORSDOF 5
ENDMDL
MODEL 5
REMARK VINA RESULT:      -8.6      2.605      3.602
REMARK  5 active torsions:
REMARK  status: ('A' for Active; 'I' for Inactive)
REMARK       I    between atoms: N_2  and  C_3 
REMARK    1  A    between atoms: C_3  and  C_4 
REMARK    2  A    between atoms: C_6  and  N_7 
REMARK    3  A    between atoms: N_7  and  C_8 
REMARK    4  A    between atoms: C_8  and  C_9 
REMARK    5  A    between atoms: C_19  and  O_20 
ROOT
HETATM    1  C   UNL     1      26.843  42.802  50.033  1.00  0.00     0.033 A 
HETATM    2  C   UNL     1      27.325  42.845  51.347  1.00  0.00     0.043 A 
HETATM    3  C   UNL     1      28.075  41.790  51.881  1.00  0.00     0.043 A 
HETATM    4  C   UNL     1      28.378  40.687  51.046  1.00  0.00     0.089 A 
HETATM    5  C   UNL     1      27.880  40.631  49.740  1.00  0.00     0.039 A 
HETATM    6  C   UNL     1      27.109  41.683  49.240  1.00  0.00     0.020 A 
ENDROOT
BRANCH   3   7
HETATM    7  N   UNL     1      28.641  41.843  53.172  1.00  0.00    -0.286 NA
HETATM    8  H   UNL     1      27.886  42.015  53.837  1.00  0.00     0.128 HD
BRANCH   7   9
HETATM    9  C   UNL     1      29.798  42.709  53.414  1.00  0.00     0.132 C 
BRANCH   9  10
HETATM   10  C   UNL     1      29.469  43.855  54.355  1.00  0.00    -0.034 A 
HETATM   11  C   UNL     1      30.155  44.077  55.589  1.00  0.00    -0.018 A 
HETATM   12  C   UNL     1      29.760  45.178  56.395  1.00  0.00    -0.025 A 
HETATM   13  C   UNL     1      31.202  43.261  56.085  1.00  0.00     0.013 A 
HETATM   14  C   UNL     1      30.390  45.417  57.628  1.00  0.00     0.012 A 
HETATM   15  C   UNL     1      28.735  46.034  55.968  1.00  0.00     0.012 A 
HETATM   16  C   UNL     1      31.410  44.588  58.088  1.00  0.00     0.001 A 
HETATM   17  C   UNL     1      31.817  43.511  57.315  1.00  0.00     0.001 A 
HETATM   18  C   UNL     1      28.086  45.823  54.758  1.00  0.00     0.002 A 
HETATM   19  C   UNL     1      28.451  44.746  53.960  1.00  0.00     0.009 A 
ENDBRANCH   9  10
ENDBRANCH   7   9
ENDBRANCH   3   7
BRANCH   4  20
HETATM   20  O   UNL     1      29.136  39.702  51.638  1.00  0.00    -0.354 OA
HETATM   21  C   UNL     1      29.496  38.592  50.824  1.00  0.00     0.210 C 
ENDBRANCH   4  20
BRANCH   1  22
HETATM   22  C   UNL     1      26.026  43.908  49.459  1.00  0.00     0.251 C 
HETATM   23  N   UNL     1      24.782  43.570  48.966  1.00  0.00    -0.361 N 
HETATM   24  C   UNL     1      23.898  44.579  48.442  1.00  0.00     0.149 C 
HETATM   25  H   UNL     1      24.391  42.660  49.171  1.00  0.00     0.162 HD
HETATM   26  O   UNL     1      26.460  45.055  49.460  1.00  0.00    -0.268 OA
ENDBRANCH   1  22
TORSDOF 5
ENDMDL
MODEL 6
REMARK VINA RESULT:      -8.5      1.927      2.082
REMARK  5 active torsions:
REMARK  status: ('A' for Active; 'I' for Inactive)
REMARK       I    between atoms: N_2  and  C_3 
REMARK    1  A    between atoms: C_3  and  C_4 
REMARK    2  A    between atoms: C_6  and  N_7 
REMARK    3  A    between atoms: N_7  and  C_8 
REMARK    4  A    between atoms: C_8  and  C_9 
REMARK    5  A    between atoms: C_19  and  O_20 
ROOT
HETATM    1  C   UNL     1      24.148  44.987  49.728  1.00  0.00     0.033 A 
HETATM    2  C   UNL     1      24.636  44.889  51.037  1.00  0.00     0.043 A 
HETATM    3  C   UNL     1      25.269  43.725  51.491  1.00  0.00     0.043 A 
HETATM    4  C   UNL     1      25.449  42.656  50.581  1.00  0.00     0.089 A 
HETATM    5  C   UNL     1      24.944  42.742  49.280  1.00  0.00     0.039 A 
HETATM    6  C   UNL     1      24.289  43.902  48.859  1.00  0.00     0.020 A 
ENDROOT
BRANCH   3   7
HETATM    7  N   UNL     1      25.842  43.630  52.778  1.00  0.00    -0.286 NA
HETATM    8  H   UNL     1      25.090  43.429  53.439  1.00  0.00     0.128 HD
BRANCH   7   9
HETATM    9  C   UNL     1      26.724  44.699  53.252  1.00  0.00     0.132 C 
BRANCH   9  10
HETATM   10  C   UNL     1      28.084  44.173  53.679  1.00  0.00    -0.034 A 
HETATM   11  C   UNL     1      28.762  44.620  54.854  1.00  0.00    -0.018 A 
HETATM   12  C   UNL     1      30.034  44.063  55.155  1.00  0.00    -0.025 A 
HETATM   13  C   UNL     1      28.264  45.601  55.746  1.00  0.00     0.013 A 
HETATM   14  C   UNL     1      30.747  44.492  56.287  1.00  0.00     0.012 A 
HETATM   15  C   UNL     1      30.590  43.082  54.322  1.00  0.00     0.012 A 
HETATM   16  C   UNL     1      30.230  45.466  57.137  1.00  0.00     0.001 A 
HETATM   17  C   UNL     1      28.987  46.020  56.867  1.00  0.00     0.001 A 
HETATM   18  C   UNL     1      29.916  42.639  53.191  1.00  0.00     0.002 A 
HETATM   19  C   UNL     1      28.676  43.178  52.874  1.00  0.00     0.009 A 
ENDBRANCH   9  10
ENDBRANCH   7   9
ENDBRANCH   3   7
BRANCH   4  20
HETATM   20  O   UNL     1      26.099  41.557  51.098  1.00  0.00    -0.354 OA
HETATM   21  C   UNL     1      26.218  40.423  50.247  1.00  0.00     0.210 C 
ENDBRANCH   4  20
BRANCH   1  22
HETATM   22  C   UNL     1      23.453  46.211  49.238  1.00  0.00     0.251 C 
HETATM   23  N   UNL     1      23.730  47.389  49.900  1.00  0.00    -0.361 N 
HETATM   24  C   UNL     1      23.149  48.634  49.464  1.00  0.00     0.149 C 
HETATM   25  H   UNL     1      24.507  47.432  50.546  1.00  0.00     0.162 HD
HETATM   26  O   UNL     1      22.695  46.141  48.277  1.00  0.00    -0.268 OA
ENDBRANCH   1  22
TORSDOF 5
ENDMDL
MODEL 7
REMARK VINA RESULT:      -8.4      2.714      4.711
REMARK  5 active torsions:
REMARK  status: ('A' for Active; 'I' for Inactive)
REMARK       I    between atoms: N_2  and  C_3 
REMARK    1  A    between atoms: C_3  and  C_4 
REMARK    2  A    between atoms: C_6  and  N_7 
REMARK    3  A    between atoms: N_7  and  C_8 
REMARK    4  A    between atoms: C_8  and  C_9 
REMARK    5  A    between atoms: C_19  and  O_20 
ROOT
HETATM    1  C   UNL     1      23.069  47.413  48.879  1.00  0.00     0.033 A 
HETATM    2  C   UNL     1      23.898  46.494  49.534  1.00  0.00     0.043 A 
HETATM    3  C   UNL     1      25.209  46.828  49.898  1.00  0.00     0.043 A 
HETATM    4  C   UNL     1      25.671  48.139  49.628  1.00  0.00     0.089 A 
HETATM    5  C   UNL     1      24.853  49.052  48.955  1.00  0.00     0.039 A 
HETATM    6  C   UNL     1      23.559  48.686  48.576  1.00  0.00     0.020 A 
ENDROOT
BRANCH   3   7
HETATM    7  N   UNL     1      26.037  45.950  50.629  1.00  0.00    -0.286 NA
HETATM    8  H   UNL     1      26.366  45.226  49.989  1.00  0.00     0.128 HD
BRANCH   7   9
HETATM    9  C   UNL     1      25.550  45.391  51.893  1.00  0.00     0.132 C 
BRANCH   9  10
HETATM   10  C   UNL     1      26.313  45.931  53.091  1.00  0.00    -0.034 A 
HETATM   11  C   UNL     1      27.430  45.259  53.675  1.00  0.00    -0.018 A 
HETATM   12  C   UNL     1      28.066  45.853  54.798  1.00  0.00    -0.025 A 
HETATM   13  C   UNL     1      27.949  44.020  53.224  1.00  0.00     0.013 A 
HETATM   14  C   UNL     1      29.152  45.213  55.419  1.00  0.00     0.012 A 
HETATM   15  C   UNL     1      27.613  47.082  55.298  1.00  0.00     0.012 A 
HETATM   16  C   UNL     1      29.630  43.991  54.954  1.00  0.00     0.001 A 
HETATM   17  C   UNL     1      29.029  43.394  53.856  1.00  0.00     0.001 A 
HETATM   18  C   UNL     1      26.538  47.738  54.712  1.00  0.00     0.002 A 
HETATM   19  C   UNL     1      25.896  47.169  53.620  1.00  0.00     0.009 A 
ENDBRANCH   9  10
ENDBRANCH   7   9
ENDBRANCH   3   7
BRANCH   4  20
HETATM   20  O   UNL     1      26.962  48.394  50.034  1.00  0.00    -0.354 OA
HETATM   21  C   UNL     1      27.793  49.103  49.123  1.00  0.00     0.210 C 
ENDBRANCH   4  20
BRANCH   1  22
HETATM   22  C   UNL     1      21.680  47.065  48.468  1.00  0.00     0.251 C 
HETATM   23  N   UNL     1      21.204  45.834  48.870  1.00  0.00    -0.361 N 
HETATM   24  C   UNL     1      19.854  45.432  48.568  1.00  0.00     0.149 C 
HETATM   25  H   UNL     1      21.711  45.301  49.564  1.00  0.00     0.162 HD
HETATM   26  O   UNL     1      21.012  47.867  47.824  1.00  0.00    -0.268 OA
ENDBRANCH   1  22
TORSDOF 5
ENDMDL
MODEL 8
REMARK VINA RESULT:      -8.0      2.227      3.214
REMARK  5 active torsions:
REMARK  status: ('A' for Active; 'I' for Inactive)
REMARK       I    between atoms: N_2  and  C_3 
REMARK    1  A    between atoms: C_3  and  C_4 
REMARK    2  A    between atoms: C_6  and  N_7 
REMARK    3  A    between atoms: N_7  and  C_8 
REMARK    4  A    between atoms: C_8  and  C_9 
REMARK    5  A    between atoms: C_19  and  O_20 
ROOT
HETATM    1  C   UNL     1      23.990  46.460  49.541  1.00  0.00     0.033 A 
HETATM    2  C   UNL     1      24.995  45.888  50.329  1.00  0.00     0.043 A 
HETATM    3  C   UNL     1      25.225  44.506  50.324  1.00  0.00     0.043 A 
HETATM    4  C   UNL     1      24.444  43.696  49.465  1.00  0.00     0.089 A 
HETATM    5  C   UNL     1      23.425  44.262  48.692  1.00  0.00     0.039 A 
HETATM    6  C   UNL     1      23.196  45.639  48.737  1.00  0.00     0.020 A 
ENDROOT
BRANCH   3   7
HETATM    7  N   UNL     1      26.282  43.913  51.046  1.00  0.00    -0.286 NA
HETATM    8  H   UNL     1      26.671  43.164  50.472  1.00  0.00     0.128 HD
BRANCH   7   9
HETATM    9  C   UNL     1      26.056  43.487  52.430  1.00  0.00     0.132 C 
BRANCH   9  10
HETATM   10  C   UNL     1      27.162  43.953  53.361  1.00  0.00    -0.034 A 
HETATM   11  C   UNL     1      27.184  45.247  53.966  1.00  0.00    -0.018 A 
HETATM   12  C   UNL     1      28.272  45.580  54.817  1.00  0.00    -0.025 A 
HETATM   13  C   UNL     1      26.197  46.245  53.767  1.00  0.00     0.013 A 
HETATM   14  C   UNL     1      28.346  46.850  55.412  1.00  0.00     0.012 A 
HETATM   15  C   UNL     1      29.284  44.643  55.067  1.00  0.00     0.012 A 
HETATM   16  C   UNL     1      27.361  47.809  55.186  1.00  0.00     0.001 A 
HETATM   17  C   UNL     1      26.286  47.506  54.364  1.00  0.00     0.001 A 
HETATM   18  C   UNL     1      29.247  43.379  54.490  1.00  0.00     0.002 A 
HETATM   19  C   UNL     1      28.196  43.039  53.647  1.00  0.00     0.009 A 
ENDBRANCH   9  10
ENDBRANCH   7   9
ENDBRANCH   3   7
BRANCH   4  20
HETATM   20  O   UNL     1      24.744  42.352  49.503  1.00  0.00    -0.354 OA
HETATM   21  C   UNL     1      25.189  41.759  48.289  1.00  0.00     0.210 C 
ENDBRANCH   4  20
BRANCH   1  22
HETATM   22  C   UNL     1      23.721  47.926  49.552  1.00  0.00     0.251 C 
HETATM   23  N   UNL     1      22.405  48.317  49.415  1.00  0.00    -0.361 N 
HETATM   24  C   UNL     1      22.040  49.710  49.470  1.00  0.00     0.149 C 
HETATM   25  H   UNL     1      21.666  47.632  49.501  1.00  0.00     0.162 HD
HETATM   26  O   UNL     1      24.646  48.718  49.700  1.00  0.00    -0.268 OA
ENDBRANCH   1  22
TORSDOF 5
ENDMDL
MODEL 9
REMARK VINA RESULT:      -7.9      3.018      5.689
REMARK  5 active torsions:
REMARK  status: ('A' for Active; 'I' for Inactive)
REMARK       I    between atoms: N_2  and  C_3 
REMARK    1  A    between atoms: C_3  and  C_4 
REMARK    2  A    between atoms: C_6  and  N_7 
REMARK    3  A    between atoms: N_7  and  C_8 
REMARK    4  A    between atoms: C_8  and  C_9 
REMARK    5  A    between atoms: C_19  and  O_20 
ROOT
HETATM    1  C   UNL     1      27.290  40.218  49.764  1.00  0.00     0.033 A 
HETATM    2  C   UNL     1      27.148  41.203  50.749  1.00  0.00     0.043 A 
HETATM    3  C   UNL     1      26.020  42.032  50.791  1.00  0.00     0.043 A 
HETATM    4  C   UNL     1      24.994  41.824  49.838  1.00  0.00     0.089 A 
HETATM    5  C   UNL     1      25.142  40.856  48.839  1.00  0.00     0.039 A 
HETATM    6  C   UNL     1      26.290  40.061  48.800  1.00  0.00     0.020 A 
ENDROOT
BRANCH   3   7
HETATM    7  N   UNL     1      25.814  42.976  51.819  1.00  0.00    -0.286 NA
HETATM    8  H   UNL     1      24.807  43.058  51.971  1.00  0.00     0.128 HD
BRANCH   7   9
HETATM    9  C   UNL     1      26.469  44.285  51.733  1.00  0.00     0.132 C 
BRANCH   9  10
HETATM   10  C   UNL     1      27.344  44.568  52.942  1.00  0.00    -0.034 A 
HETATM   11  C   UNL     1      27.155  45.695  53.799  1.00  0.00    -0.018 A 
HETATM   12  C   UNL     1      28.037  45.866  54.899  1.00  0.00    -0.025 A 
HETATM   13  C   UNL     1      26.150  46.679  53.623  1.00  0.00     0.013 A 
HETATM   14  C   UNL     1      27.903  46.974  55.752  1.00  0.00     0.012 A 
HETATM   15  C   UNL     1      29.053  44.930  55.141  1.00  0.00     0.012 A 
HETATM   16  C   UNL     1      26.908  47.927  55.543  1.00  0.00     0.001 A 
HETATM   17  C   UNL     1      26.031  47.778  54.480  1.00  0.00     0.001 A 
HETATM   18  C   UNL     1      29.219  43.826  54.314  1.00  0.00     0.002 A 
HETATM   19  C   UNL     1      28.373  43.647  53.227  1.00  0.00     0.009 A 
ENDBRANCH   9  10
ENDBRANCH   7   9
ENDBRANCH   3   7
BRANCH   4  20
HETATM   20  O   UNL     1      23.911  42.665  49.958  1.00  0.00    -0.354 OA
HETATM   21  C   UNL     1      22.971  42.659  48.891  1.00  0.00     0.210 C 
ENDBRANCH   4  20
BRANCH   1  22
HETATM   22  C   UNL     1      28.494  39.343  49.695  1.00  0.00     0.251 C 
HETATM   23  N   UNL     1      28.781  38.592  50.816  1.00  0.00    -0.361 N 
HETATM   24  C   UNL     1      29.893  37.675  50.825  1.00  0.00     0.149 C 
HETATM   25  H   UNL     1      28.095  38.508  51.555  1.00  0.00     0.162 HD
HETATM   26  O   UNL     1      29.162  39.300  48.668  1.00  0.00    -0.268 OA
ENDBRANCH   1  22
TORSDOF 5
ENDMDL
MODEL 10
REMARK VINA RESULT:      -7.9      2.561      4.922
REMARK  5 active torsions:
REMARK  status: ('A' for Active; 'I' for Inactive)
REMARK       I    between atoms: N_2  and  C_3 
REMARK    1  A    between atoms: C_3  and  C_4 
REMARK    2  A    between atoms: C_6  and  N_7 
REMARK    3  A    between atoms: N_7  and  C_8 
REMARK    4  A    between atoms: C_8  and  C_9 
REMARK    5  A    between atoms: C_19  and  O_20 
ROOT
HETATM    1  C   UNL     1      23.503  44.625  49.736  1.00  0.00     0.033 A 
HETATM    2  C   UNL     1      24.385  45.101  50.714  1.00  0.00     0.043 A 
HETATM    3  C   UNL     1      24.745  46.454  50.771  1.00  0.00     0.043 A 
HETATM    4  C   UNL     1      24.162  47.347  49.840  1.00  0.00     0.089 A 
HETATM    5  C   UNL     1      23.298  46.871  48.848  1.00  0.00     0.039 A 
HETATM    6  C   UNL     1      22.977  45.513  48.794  1.00  0.00     0.020 A 
ENDROOT
BRANCH   3   7
HETATM    7  N   UNL     1      25.566  46.974  51.794  1.00  0.00    -0.286 NA
HETATM    8  H   UNL     1      26.538  46.878  51.493  1.00  0.00     0.128 HD
BRANCH   7   9
HETATM    9  C   UNL     1      25.366  46.524  53.173  1.00  0.00     0.132 C 
BRANCH   9  10
HETATM   10  C   UNL     1      26.682  46.272  53.890  1.00  0.00    -0.034 A 
HETATM   11  C   UNL     1      27.353  45.011  53.874  1.00  0.00    -0.018 A 
HETATM   12  C   UNL     1      28.577  44.886  54.585  1.00  0.00    -0.025 A 
HETATM   13  C   UNL     1      26.877  43.854  53.208  1.00  0.00     0.013 A 
HETATM   14  C   UNL     1      29.257  43.657  54.616  1.00  0.00     0.012 A 
HETATM   15  C   UNL     1      29.115  45.988  55.264  1.00  0.00     0.012 A 
HETATM   16  C   UNL     1      28.754  42.538  53.956  1.00  0.00     0.001 A 
HETATM   17  C   UNL     1      27.564  42.637  53.251  1.00  0.00     0.001 A 
HETATM   18  C   UNL     1      28.466  47.216  55.259  1.00  0.00     0.002 A 
HETATM   19  C   UNL     1      27.263  47.356  54.578  1.00  0.00     0.009 A 
ENDBRANCH   9  10
ENDBRANCH   7   9
ENDBRANCH   3   7
BRANCH   4  20
HETATM   20  O   UNL     1      24.551  48.661  49.974  1.00  0.00    -0.354 OA
HETATM   21  C   UNL     1      24.390  49.498  48.836  1.00  0.00     0.210 C 
ENDBRANCH   4  20
BRANCH   1  22
HETATM   22  C   UNL     1      23.128  43.185  49.650  1.00  0.00     0.251 C 
HETATM   23  N   UNL     1      23.197  42.599  48.404  1.00  0.00    -0.361 N 
HETATM   24  C   UNL     1      22.906  41.198  48.231  1.00  0.00     0.149 C 
HETATM   25  H   UNL     1      23.663  43.081  47.646  1.00  0.00     0.162 HD
HETATM   26  O   UNL     1      22.799  42.577  50.663  1.00  0.00    -0.268 OA
ENDBRANCH   1  22
TORSDOF 5
ENDMDL
