MODEL 1
REMARK VINA RESULT:      -8.3      0.000      0.000
REMARK  10 active torsions:
REMARK  status: ('A' for Active; 'I' for Inactive)
REMARK    1  A    between atoms: C_4  and  C_5 
REMARK    2  A    between atoms: C_7  and  C_8 
REMARK    3  A    between atoms: C_8  and  C_9 
REMARK       I    between atoms: C_9  and  N_10 
REMARK    4  A    between atoms: N_10  and  C_11 
REMARK    5  A    between atoms: C_11  and  C_12 
REMARK    6  A    between atoms: C_12  and  N_13 
REMARK    7  A    between atoms: C_24  and  C_25 
REMARK    8  A    between atoms: C_25  and  O_26 
REMARK    9  A    between atoms: O_26  and  C_27 
REMARK   10  A    between atoms: C_27  and  C_28 
ROOT
HETATM    1  C   UNL     1      26.339  43.236  50.428  1.00  0.00     0.166 C 
HETATM    2  N   UNL     1      25.106  42.652  49.791  1.00  0.00    -0.318 N 
HETATM    3  C   UNL     1      23.885  43.017  49.519  1.00  0.00     0.011 C 
HETATM    4  C   UNL     1      25.402  41.263  49.145  1.00  0.00     0.170 C 
HETATM    5  S   UNL     1      24.168  40.744  48.053  1.00  0.00    -0.086 SA
HETATM    6  C   UNL     1      23.145  42.142  48.514  1.00  0.00     0.135 C 
HETATM    7  N   UNL     1      26.415  40.521  49.391  1.00  0.00    -0.229 NA
HETATM    8  C   UNL     1      27.352  40.943  50.299  1.00  0.00     0.048 C 
HETATM    9  C   UNL     1      28.434  39.912  50.535  1.00  0.00     0.071 C 
HETATM   10  C   UNL     1      27.344  42.184  50.832  1.00  0.00     0.069 C 
ENDROOT
BRANCH   3  11
HETATM   11  C   UNL     1      23.204  44.261  50.033  1.00  0.00     0.156 C 
BRANCH  11  12
HETATM   12  C   UNL     1      23.149  45.371  48.992  1.00  0.00     0.223 C 
HETATM   13  N   UNL     1      23.153  46.649  49.485  1.00  0.00    -0.359 N 
HETATM   14  H   UNL     1      22.961  46.767  50.479  1.00  0.00     0.162 HD
HETATM   15  O   UNL     1      23.135  45.134  47.785  1.00  0.00    -0.273 OA
BRANCH  13  16
HETATM   16  C   UNL     1      22.921  47.845  48.667  1.00  0.00     0.150 C 
BRANCH  16  17
HETATM   17  C   UNL     1      21.444  48.257  48.455  1.00  0.00     0.253 C 
BRANCH  17  18
HETATM   18  N   UNL     1      20.828  48.897  49.686  1.00  0.00    -0.077 N 
HETATM   19  H   UNL     1      21.314  48.488  50.509  1.00  0.00     0.279 HD
HETATM   20  C   UNL     1      21.038  50.386  49.763  1.00  0.00     0.269 C 
HETATM   21  C   UNL     1      19.369  48.559  49.829  1.00  0.00     0.269 C 
ENDBRANCH  17  18
ENDBRANCH  16  17
ENDBRANCH  13  16
ENDBRANCH  11  12
ENDBRANCH   3  11
BRANCH   1  22
HETATM   22  C   UNL     1      26.029  44.327  51.446  1.00  0.00    -0.024 A 
HETATM   23  C   UNL     1      25.557  43.892  52.714  1.00  0.00     0.017 A 
HETATM   24  C   UNL     1      25.304  44.786  53.759  1.00  0.00    -0.061 A 
HETATM   25  C   UNL     1      24.794  44.289  55.083  1.00  0.00     0.048 C 
HETATM   26  C   UNL     1      25.463  46.148  53.524  1.00  0.00     0.007 A 
HETATM   27  C   UNL     1      25.899  46.603  52.277  1.00  0.00     0.008 A 
HETATM   28  C   UNL     1      26.210  45.711  51.234  1.00  0.00    -0.053 A 
HETATM   29  C   UNL     1      26.646  46.317  49.926  1.00  0.00     0.049 C 
ENDBRANCH   1  22
BRANCH  10  30
HETATM   30  C   UNL     1      28.459  42.627  51.702  1.00  0.00     0.294 C 
HETATM   31  O   UNL     1      29.363  43.331  51.289  1.00  0.00    -0.259 OA
BRANCH  30  32
HETATM   32  O   UNL     1      28.275  42.182  52.962  1.00  0.00    -0.313 OA
BRANCH  32  33
HETATM   33  C   UNL     1      29.474  42.004  53.733  1.00  0.00     0.217 C 
BRANCH  33  34
HETATM   34  C   UNL     1      29.633  43.203  54.636  1.00  0.00    -0.034 A 
HETATM   35  C   UNL     1      30.742  43.310  55.490  1.00  0.00     0.009 A 
HETATM   36  C   UNL     1      30.896  44.417  56.327  1.00  0.00     0.001 A 
HETATM   37  C   UNL     1      29.951  45.438  56.311  1.00  0.00     0.000 A 
HETATM   38  C   UNL     1      28.853  45.354  55.458  1.00  0.00     0.001 A 
HETATM   39  C   UNL     1      28.692  44.242  54.627  1.00  0.00     0.009 A 
ENDBRANCH  33  34
ENDBRANCH  32  33
ENDBRANCH  30  32
ENDBRANCH  10  30
TORSDOF 10
ENDMDL
MODEL 2
REMARK VINA RESULT:      -8.3      1.273      2.278
REMARK  10 active torsions:
REMARK  status: ('A' for Active; 'I' for Inactive)
REMARK    1  A    between atoms: C_4  and  C_5 
REMARK    2  A    between atoms: C_7  and  C_8 
REMARK    3  A    between atoms: C_8  and  C_9 
REMARK       I    between atoms: C_9  and  N_10 
REMARK    4  A    between atoms: N_10  and  C_11 
REMARK    5  A    between atoms: C_11  and  C_12 
REMARK    6  A    between atoms: C_12  and  N_13 
REMARK    7  A    between atoms: C_24  and  C_25 
REMARK    8  A    between atoms: C_25  and  O_26 
REMARK    9  A    between atoms: O_26  and  C_27 
REMARK   10  A    between atoms: C_27  and  C_28 
ROOT
HETATM    1  C   UNL     1      26.732  43.461  49.892  1.00  0.00     0.166 C 
HETATM    2  N   UNL     1      25.633  42.718  49.180  1.00  0.00    -0.318 N 
HETATM    3  C   UNL     1      24.567  42.991  48.481  1.00  0.00     0.011 C 
HETATM    4  C   UNL     1      25.914  41.183  49.143  1.00  0.00     0.170 C 
HETATM    5  S   UNL     1      24.933  40.340  47.998  1.00  0.00    -0.086 SA
HETATM    6  C   UNL     1      23.999  41.834  47.667  1.00  0.00     0.135 C 
HETATM    7  N   UNL     1      26.742  40.554  49.888  1.00  0.00    -0.229 NA
HETATM    8  C   UNL     1      27.470  41.248  50.820  1.00  0.00     0.048 C 
HETATM    9  C   UNL     1      28.332  40.344  51.672  1.00  0.00     0.071 C 
HETATM   10  C   UNL     1      27.477  42.599  50.882  1.00  0.00     0.069 C 
ENDROOT
BRANCH   3  11
HETATM   11  C   UNL     1      23.932  44.352  48.343  1.00  0.00     0.156 C 
BRANCH  11  12
HETATM   12  C   UNL     1      22.512  44.393  48.893  1.00  0.00     0.223 C 
HETATM   13  N   UNL     1      21.639  45.210  48.224  1.00  0.00    -0.359 N 
HETATM   14  H   UNL     1      22.037  45.889  47.577  1.00  0.00     0.162 HD
HETATM   15  O   UNL     1      22.165  43.711  49.856  1.00  0.00    -0.273 OA
BRANCH  13  16
HETATM   16  C   UNL     1      20.288  45.531  48.698  1.00  0.00     0.150 C 
BRANCH  16  17
HETATM   17  C   UNL     1      19.808  46.986  48.476  1.00  0.00     0.253 C 
BRANCH  17  18
HETATM   18  N   UNL     1      20.241  47.926  49.585  1.00  0.00    -0.077 N 
HETATM   19  H   UNL     1      20.711  47.341  50.305  1.00  0.00     0.279 HD
HETATM   20  C   UNL     1      21.250  48.954  49.147  1.00  0.00     0.269 C 
HETATM   21  C   UNL     1      19.069  48.586  50.258  1.00  0.00     0.269 C 
ENDBRANCH  17  18
ENDBRANCH  16  17
ENDBRANCH  13  16
ENDBRANCH  11  12
ENDBRANCH   3  11
BRANCH   1  22
HETATM   22  C   UNL     1      26.312  44.849  50.360  1.00  0.00    -0.024 A 
HETATM   23  C   UNL     1      26.919  45.950  49.699  1.00  0.00     0.017 A 
HETATM   24  C   UNL     1      26.569  47.274  49.984  1.00  0.00    -0.061 A 
HETATM   25  C   UNL     1      27.242  48.413  49.271  1.00  0.00     0.048 C 
HETATM   26  C   UNL     1      25.641  47.515  50.992  1.00  0.00     0.007 A 
HETATM   27  C   UNL     1      25.050  46.450  51.677  1.00  0.00     0.008 A 
HETATM   28  C   UNL     1      25.352  45.112  51.362  1.00  0.00    -0.053 A 
HETATM   29  C   UNL     1      24.674  44.049  52.185  1.00  0.00     0.049 C 
ENDBRANCH   1  22
BRANCH  10  30
HETATM   30  C   UNL     1      28.388  43.295  51.820  1.00  0.00     0.294 C 
HETATM   31  O   UNL     1      29.429  43.808  51.451  1.00  0.00    -0.259 OA
BRANCH  30  32
HETATM   32  O   UNL     1      27.864  43.301  53.063  1.00  0.00    -0.313 OA
BRANCH  32  33
HETATM   33  C   UNL     1      27.951  44.555  53.760  1.00  0.00     0.217 C 
BRANCH  33  34
HETATM   34  C   UNL     1      29.050  44.443  54.790  1.00  0.00    -0.034 A 
HETATM   35  C   UNL     1      29.831  43.279  54.874  1.00  0.00     0.009 A 
HETATM   36  C   UNL     1      30.850  43.168  55.822  1.00  0.00     0.001 A 
HETATM   37  C   UNL     1      31.112  44.225  56.688  1.00  0.00     0.000 A 
HETATM   38  C   UNL     1      30.356  45.393  56.607  1.00  0.00     0.001 A 
HETATM   39  C   UNL     1      29.329  45.501  55.665  1.00  0.00     0.009 A 
ENDBRANCH  33  34
ENDBRANCH  32  33
ENDBRANCH  30  32
ENDBRANCH  10  30
TORSDOF 10
ENDMDL
MODEL 3
REMARK VINA RESULT:      -8.3      2.281      7.795
REMARK  10 active torsions:
REMARK  status: ('A' for Active; 'I' for Inactive)
REMARK    1  A    between atoms: C_4  and  C_5 
REMARK    2  A    between atoms: C_7  and  C_8 
REMARK    3  A    between atoms: C_8  and  C_9 
REMARK       I    between atoms: C_9  and  N_10 
REMARK    4  A    between atoms: N_10  and  C_11 
REMARK    5  A    between atoms: C_11  and  C_12 
REMARK    6  A    between atoms: C_12  and  N_13 
REMARK    7  A    between atoms: C_24  and  C_25 
REMARK    8  A    between atoms: C_25  and  O_26 
REMARK    9  A    between atoms: O_26  and  C_27 
REMARK   10  A    between atoms: C_27  and  C_28 
ROOT
HETATM    1  C   UNL     1      25.290  43.166  51.076  1.00  0.00     0.166 C 
HETATM    2  N   UNL     1      26.532  42.340  50.870  1.00  0.00    -0.318 N 
HETATM    3  C   UNL     1      27.767  42.321  51.282  1.00  0.00     0.011 C 
HETATM    4  C   UNL     1      26.230  41.057  50.034  1.00  0.00     0.170 C 
HETATM    5  S   UNL     1      27.489  39.877  50.123  1.00  0.00    -0.086 SA
HETATM    6  C   UNL     1      28.523  41.020  51.039  1.00  0.00     0.135 C 
HETATM    7  N   UNL     1      25.195  40.860  49.308  1.00  0.00    -0.229 NA
HETATM    8  C   UNL     1      24.238  41.838  49.223  1.00  0.00     0.048 C 
HETATM    9  C   UNL     1      23.129  41.480  48.258  1.00  0.00     0.071 C 
HETATM   10  C   UNL     1      24.252  42.942  50.002  1.00  0.00     0.069 C 
ENDROOT
BRANCH   3  11
HETATM   11  C   UNL     1      28.455  43.423  52.050  1.00  0.00     0.156 C 
BRANCH  11  12
HETATM   12  C   UNL     1      28.712  43.049  53.504  1.00  0.00     0.223 C 
HETATM   13  N   UNL     1      29.900  43.487  54.028  1.00  0.00    -0.359 N 
HETATM   14  H   UNL     1      30.608  43.814  53.373  1.00  0.00     0.162 HD
HETATM   15  O   UNL     1      27.892  42.423  54.173  1.00  0.00    -0.273 OA
BRANCH  13  16
HETATM   16  C   UNL     1      30.417  43.081  55.340  1.00  0.00     0.150 C 
BRANCH  16  17
HETATM   17  C   UNL     1      31.101  44.186  56.183  1.00  0.00     0.253 C 
BRANCH  17  18
HETATM   18  N   UNL     1      30.123  44.959  57.047  1.00  0.00    -0.077 N 
HETATM   19  H   UNL     1      29.388  44.285  57.342  1.00  0.00     0.279 HD
HETATM   20  C   UNL     1      30.732  45.505  58.311  1.00  0.00     0.269 C 
HETATM   21  C   UNL     1      29.429  46.050  56.278  1.00  0.00     0.269 C 
ENDBRANCH  17  18
ENDBRANCH  16  17
ENDBRANCH  13  16
ENDBRANCH  11  12
ENDBRANCH   3  11
BRANCH   1  22
HETATM   22  C   UNL     1      25.587  44.610  51.462  1.00  0.00    -0.024 A 
HETATM   23  C   UNL     1      26.047  45.461  50.421  1.00  0.00     0.017 A 
HETATM   24  C   UNL     1      26.288  46.823  50.626  1.00  0.00    -0.061 A 
HETATM   25  C   UNL     1      26.786  47.688  49.503  1.00  0.00     0.048 C 
HETATM   26  C   UNL     1      26.129  47.343  51.907  1.00  0.00     0.007 A 
HETATM   27  C   UNL     1      25.704  46.521  52.954  1.00  0.00     0.008 A 
HETATM   28  C   UNL     1      25.405  45.160  52.749  1.00  0.00    -0.053 A 
HETATM   29  C   UNL     1      24.981  44.367  53.956  1.00  0.00     0.049 C 
ENDBRANCH   1  22
BRANCH  10  30
HETATM   30  C   UNL     1      23.118  43.895  49.961  1.00  0.00     0.294 C 
HETATM   31  O   UNL     1      22.228  43.879  50.793  1.00  0.00    -0.259 OA
BRANCH  30  32
HETATM   32  O   UNL     1      23.269  44.757  48.935  1.00  0.00    -0.313 OA
BRANCH  32  33
HETATM   33  C   UNL     1      22.047  45.286  48.392  1.00  0.00     0.217 C 
BRANCH  33  34
HETATM   34  C   UNL     1      22.143  46.793  48.403  1.00  0.00    -0.034 A 
HETATM   35  C   UNL     1      21.243  47.569  47.656  1.00  0.00     0.009 A 
HETATM   36  C   UNL     1      21.324  48.963  47.662  1.00  0.00     0.001 A 
HETATM   37  C   UNL     1      22.296  49.599  48.428  1.00  0.00     0.000 A 
HETATM   38  C   UNL     1      23.187  48.843  49.188  1.00  0.00     0.001 A 
HETATM   39  C   UNL     1      23.114  47.448  49.174  1.00  0.00     0.009 A 
ENDBRANCH  33  34
ENDBRANCH  32  33
ENDBRANCH  30  32
ENDBRANCH  10  30
TORSDOF 10
ENDMDL
MODEL 4
REMARK VINA RESULT:      -7.9      4.284     10.742
REMARK  10 active torsions:
REMARK  status: ('A' for Active; 'I' for Inactive)
REMARK    1  A    between atoms: C_4  and  C_5 
REMARK    2  A    between atoms: C_7  and  C_8 
REMARK    3  A    between atoms: C_8  and  C_9 
REMARK       I    between atoms: C_9  and  N_10 
REMARK    4  A    between atoms: N_10  and  C_11 
REMARK    5  A    between atoms: C_11  and  C_12 
REMARK    6  A    between atoms: C_12  and  N_13 
REMARK    7  A    between atoms: C_24  and  C_25 
REMARK    8  A    between atoms: C_25  and  O_26 
REMARK    9  A    between atoms: O_26  and  C_27 
REMARK   10  A    between atoms: C_27  and  C_28 
ROOT
HETATM    1  C   UNL     1      18.729  47.396  46.344  1.00  0.00     0.166 C 
HETATM    2  N   UNL     1      19.408  46.063  46.173  1.00  0.00    -0.318 N 
HETATM    3  C   UNL     1      20.040  45.192  46.907  1.00  0.00     0.011 C 
HETATM    4  C   UNL     1      19.176  45.485  44.742  1.00  0.00     0.170 C 
HETATM    5  S   UNL     1      19.558  43.805  44.619  1.00  0.00    -0.086 SA
HETATM    6  C   UNL     1      20.209  43.809  46.289  1.00  0.00     0.135 C 
HETATM    7  N   UNL     1      18.786  46.147  43.719  1.00  0.00    -0.229 NA
HETATM    8  C   UNL     1      18.537  47.490  43.843  1.00  0.00     0.048 C 
HETATM    9  C   UNL     1      18.170  48.134  42.525  1.00  0.00     0.071 C 
HETATM   10  C   UNL     1      18.527  48.124  45.037  1.00  0.00     0.069 C 
ENDROOT
BRANCH   3  11
HETATM   11  C   UNL     1      20.515  45.413  48.322  1.00  0.00     0.156 C 
BRANCH  11  12
HETATM   12  C   UNL     1      22.004  45.726  48.397  1.00  0.00     0.223 C 
HETATM   13  N   UNL     1      22.360  46.711  49.281  1.00  0.00    -0.359 N 
HETATM   14  H   UNL     1      21.617  47.308  49.639  1.00  0.00     0.162 HD
HETATM   15  O   UNL     1      22.834  45.111  47.731  1.00  0.00    -0.273 OA
BRANCH  13  16
HETATM   16  C   UNL     1      23.707  47.285  49.369  1.00  0.00     0.150 C 
BRANCH  16  17
HETATM   17  C   UNL     1      24.688  46.593  50.347  1.00  0.00     0.253 C 
BRANCH  17  18
HETATM   18  N   UNL     1      25.340  45.358  49.754  1.00  0.00    -0.077 N 
HETATM   19  H   UNL     1      25.025  45.301  48.765  1.00  0.00     0.279 HD
HETATM   20  C   UNL     1      26.843  45.425  49.720  1.00  0.00     0.269 C 
HETATM   21  C   UNL     1      24.880  44.095  50.431  1.00  0.00     0.269 C 
ENDBRANCH  17  18
ENDBRANCH  16  17
ENDBRANCH  13  16
ENDBRANCH  11  12
ENDBRANCH   3  11
BRANCH   1  22
HETATM   22  C   UNL     1      19.282  48.207  47.510  1.00  0.00    -0.024 A 
HETATM   23  C   UNL     1      20.489  48.917  47.270  1.00  0.00     0.017 A 
HETATM   24  C   UNL     1      21.064  49.754  48.232  1.00  0.00    -0.061 A 
HETATM   25  C   UNL     1      22.348  50.479  47.944  1.00  0.00     0.048 C 
HETATM   26  C   UNL     1      20.463  49.841  49.484  1.00  0.00     0.007 A 
HETATM   27  C   UNL     1      19.291  49.130  49.755  1.00  0.00     0.008 A 
HETATM   28  C   UNL     1      18.672  48.328  48.777  1.00  0.00    -0.053 A 
HETATM   29  C   UNL     1      17.427  47.589  49.191  1.00  0.00     0.049 C 
ENDBRANCH   1  22
BRANCH  10  30
HETATM   30  C   UNL     1      18.118  49.546  45.121  1.00  0.00     0.294 C 
HETATM   31  O   UNL     1      18.756  50.436  44.587  1.00  0.00    -0.259 OA
BRANCH  30  32
HETATM   32  O   UNL     1      16.962  49.659  45.805  1.00  0.00    -0.313 OA
BRANCH  32  33
HETATM   33  C   UNL     1      16.480  51.002  45.979  1.00  0.00     0.217 C 
BRANCH  33  34
HETATM   34  C   UNL     1      16.963  51.503  47.320  1.00  0.00    -0.034 A 
HETATM   35  C   UNL     1      16.200  51.285  48.478  1.00  0.00     0.009 A 
HETATM   36  C   UNL     1      16.640  51.743  49.721  1.00  0.00     0.001 A 
HETATM   37  C   UNL     1      17.856  52.412  49.825  1.00  0.00     0.000 A 
HETATM   38  C   UNL     1      18.632  52.623  48.687  1.00  0.00     0.001 A 
HETATM   39  C   UNL     1      18.187  52.174  47.440  1.00  0.00     0.009 A 
ENDBRANCH  33  34
ENDBRANCH  32  33
ENDBRANCH  30  32
ENDBRANCH  10  30
TORSDOF 10
ENDMDL
MODEL 5
REMARK VINA RESULT:      -7.6     11.550     12.976
REMARK  10 active torsions:
REMARK  status: ('A' for Active; 'I' for Inactive)
REMARK    1  A    between atoms: C_4  and  C_5 
REMARK    2  A    between atoms: C_7  and  C_8 
REMARK    3  A    between atoms: C_8  and  C_9 
REMARK       I    between atoms: C_9  and  N_10 
REMARK    4  A    between atoms: N_10  and  C_11 
REMARK    5  A    between atoms: C_11  and  C_12 
REMARK    6  A    between atoms: C_12  and  N_13 
REMARK    7  A    between atoms: C_24  and  C_25 
REMARK    8  A    between atoms: C_25  and  O_26 
REMARK    9  A    between atoms: O_26  and  C_27 
REMARK   10  A    between atoms: C_27  and  C_28 
ROOT
HETATM    1  C   UNL     1      27.777  48.236  38.584  1.00  0.00     0.166 C 
HETATM    2  N   UNL     1      26.351  47.758  38.661  1.00  0.00    -0.318 N 
HETATM    3  C   UNL     1      25.159  48.268  38.780  1.00  0.00     0.011 C 
HETATM    4  C   UNL     1      26.249  46.226  38.379  1.00  0.00     0.170 C 
HETATM    5  S   UNL     1      24.637  45.705  38.037  1.00  0.00    -0.086 SA
HETATM    6  C   UNL     1      24.005  47.336  38.428  1.00  0.00     0.135 C 
HETATM    7  N   UNL     1      27.214  45.388  38.424  1.00  0.00    -0.229 NA
HETATM    8  C   UNL     1      28.472  45.829  38.746  1.00  0.00     0.048 C 
HETATM    9  C   UNL     1      29.475  44.700  38.839  1.00  0.00     0.071 C 
HETATM   10  C   UNL     1      28.779  47.140  38.861  1.00  0.00     0.069 C 
ENDROOT
BRANCH   3  11
HETATM   11  C   UNL     1      24.847  49.701  39.133  1.00  0.00     0.156 C 
BRANCH  11  12
HETATM   12  C   UNL     1      23.366  50.029  38.997  1.00  0.00     0.223 C 
HETATM   13  N   UNL     1      22.620  49.890  40.139  1.00  0.00    -0.359 N 
HETATM   14  H   UNL     1      23.038  49.372  40.910  1.00  0.00     0.162 HD
HETATM   15  O   UNL     1      22.878  50.423  37.940  1.00  0.00    -0.273 OA
BRANCH  13  16
HETATM   16  C   UNL     1      21.156  49.976  40.177  1.00  0.00     0.150 C 
BRANCH  16  17
HETATM   17  C   UNL     1      20.558  51.338  40.608  1.00  0.00     0.253 C 
BRANCH  17  18
HETATM   18  N   UNL     1      19.500  51.203  41.687  1.00  0.00    -0.077 N 
HETATM   19  H   UNL     1      19.958  51.457  42.586  1.00  0.00     0.279 HD
HETATM   20  C   UNL     1      18.340  52.147  41.519  1.00  0.00     0.269 C 
HETATM   21  C   UNL     1      19.016  49.787  41.831  1.00  0.00     0.269 C 
ENDBRANCH  17  18
ENDBRANCH  16  17
ENDBRANCH  13  16
ENDBRANCH  11  12
ENDBRANCH   3  11
BRANCH   1  22
HETATM   22  C   UNL     1      28.000  49.571  39.284  1.00  0.00    -0.024 A 
HETATM   23  C   UNL     1      28.289  50.683  38.447  1.00  0.00     0.017 A 
HETATM   24  C   UNL     1      28.444  51.976  38.956  1.00  0.00    -0.061 A 
HETATM   25  C   UNL     1      28.761  53.125  38.040  1.00  0.00     0.048 C 
HETATM   26  C   UNL     1      28.374  52.163  40.333  1.00  0.00     0.007 A 
HETATM   27  C   UNL     1      28.119  51.081  41.180  1.00  0.00     0.008 A 
HETATM   28  C   UNL     1      27.906  49.784  40.676  1.00  0.00    -0.053 A 
HETATM   29  C   UNL     1      27.666  48.693  41.685  1.00  0.00     0.049 C 
ENDBRANCH   1  22
BRANCH  10  30
HETATM   30  C   UNL     1      30.184  47.560  39.075  1.00  0.00     0.294 C 
HETATM   31  O   UNL     1      30.893  47.940  38.161  1.00  0.00    -0.259 OA
BRANCH  30  32
HETATM   32  O   UNL     1      30.496  47.497  40.386  1.00  0.00    -0.313 OA
BRANCH  32  33
HETATM   33  C   UNL     1      31.830  47.913  40.721  1.00  0.00     0.217 C 
BRANCH  33  34
HETATM   34  C   UNL     1      31.767  49.342  41.204  1.00  0.00    -0.034 A 
HETATM   35  C   UNL     1      31.529  49.627  42.558  1.00  0.00     0.009 A 
HETATM   36  C   UNL     1      31.471  50.945  43.012  1.00  0.00     0.001 A 
HETATM   37  C   UNL     1      31.666  51.997  42.122  1.00  0.00     0.000 A 
HETATM   38  C   UNL     1      31.919  51.731  40.778  1.00  0.00     0.001 A 
HETATM   39  C   UNL     1      31.967  50.411  40.320  1.00  0.00     0.009 A 
ENDBRANCH  33  34
ENDBRANCH  32  33
ENDBRANCH  30  32
ENDBRANCH  10  30
TORSDOF 10
ENDMDL
MODEL 6
REMARK VINA RESULT:      -7.4     17.814     19.878
REMARK  10 active torsions:
REMARK  status: ('A' for Active; 'I' for Inactive)
REMARK    1  A    between atoms: C_4  and  C_5 
REMARK    2  A    between atoms: C_7  and  C_8 
REMARK    3  A    between atoms: C_8  and  C_9 
REMARK       I    between atoms: C_9  and  N_10 
REMARK    4  A    between atoms: N_10  and  C_11 
REMARK    5  A    between atoms: C_11  and  C_12 
REMARK    6  A    between atoms: C_12  and  N_13 
REMARK    7  A    between atoms: C_24  and  C_25 
REMARK    8  A    between atoms: C_25  and  O_26 
REMARK    9  A    between atoms: O_26  and  C_27 
REMARK   10  A    between atoms: C_27  and  C_28 
ROOT
HETATM    1  C   UNL     1      38.298  45.096  65.799  1.00  0.00     0.166 C 
HETATM    2  N   UNL     1      37.664  43.742  65.620  1.00  0.00    -0.318 N 
HETATM    3  C   UNL     1      36.468  43.230  65.537  1.00  0.00     0.011 C 
HETATM    4  C   UNL     1      38.732  42.650  65.304  1.00  0.00     0.170 C 
HETATM    5  S   UNL     1      38.049  41.191  64.679  1.00  0.00    -0.086 SA
HETATM    6  C   UNL     1      36.395  41.815  64.978  1.00  0.00     0.135 C 
HETATM    7  N   UNL     1      39.992  42.751  65.504  1.00  0.00    -0.229 NA
HETATM    8  C   UNL     1      40.495  43.906  66.045  1.00  0.00     0.048 C 
HETATM    9  C   UNL     1      41.985  43.827  66.295  1.00  0.00     0.071 C 
HETATM   10  C   UNL     1      39.743  45.014  66.230  1.00  0.00     0.069 C 
ENDROOT
BRANCH   3  11
HETATM   11  C   UNL     1      35.180  43.951  65.852  1.00  0.00     0.156 C 
BRANCH  11  12
HETATM   12  C   UNL     1      34.494  43.406  67.098  1.00  0.00     0.223 C 
HETATM   13  N   UNL     1      34.515  44.228  68.194  1.00  0.00    -0.359 N 
HETATM   14  H   UNL     1      35.164  45.012  68.178  1.00  0.00     0.162 HD
HETATM   15  O   UNL     1      33.931  42.313  67.107  1.00  0.00    -0.273 OA
BRANCH  13  16
HETATM   16  C   UNL     1      34.077  43.818  69.534  1.00  0.00     0.150 C 
BRANCH  16  17
HETATM   17  C   UNL     1      33.043  44.737  70.230  1.00  0.00     0.253 C 
BRANCH  17  18
HETATM   18  N   UNL     1      31.674  44.685  69.579  1.00  0.00    -0.077 N 
HETATM   19  H   UNL     1      31.791  45.041  68.609  1.00  0.00     0.279 HD
HETATM   20  C   UNL     1      31.114  43.293  69.456  1.00  0.00     0.269 C 
HETATM   21  C   UNL     1      30.689  45.595  70.260  1.00  0.00     0.269 C 
ENDBRANCH  17  18
ENDBRANCH  16  17
ENDBRANCH  13  16
ENDBRANCH  11  12
ENDBRANCH   3  11
BRANCH   1  22
HETATM   22  C   UNL     1      37.407  46.082  66.546  1.00  0.00    -0.024 A 
HETATM   23  C   UNL     1      37.368  45.952  67.960  1.00  0.00     0.017 A 
HETATM   24  C   UNL     1      36.647  46.837  68.768  1.00  0.00    -0.061 A 
HETATM   25  C   UNL     1      36.619  46.661  70.260  1.00  0.00     0.048 C 
HETATM   26  C   UNL     1      35.896  47.837  68.156  1.00  0.00     0.007 A 
HETATM   27  C   UNL     1      35.896  47.968  66.765  1.00  0.00     0.008 A 
HETATM   28  C   UNL     1      36.661  47.119  65.944  1.00  0.00    -0.053 A 
HETATM   29  C   UNL     1      36.563  47.337  64.458  1.00  0.00     0.049 C 
ENDBRANCH   1  22
BRANCH  10  30
HETATM   30  C   UNL     1      40.374  46.273  66.691  1.00  0.00     0.294 C 
HETATM   31  O   UNL     1      40.912  46.367  67.780  1.00  0.00    -0.259 OA
BRANCH  30  32
HETATM   32  O   UNL     1      40.293  47.215  65.730  1.00  0.00    -0.313 OA
BRANCH  32  33
HETATM   33  C   UNL     1      40.851  48.494  66.075  1.00  0.00     0.217 C 
BRANCH  33  34
HETATM   34  C   UNL     1      39.717  49.404  66.487  1.00  0.00    -0.034 A 
HETATM   35  C   UNL     1      39.408  49.585  67.844  1.00  0.00     0.009 A 
HETATM   36  C   UNL     1      38.363  50.425  68.233  1.00  0.00     0.001 A 
HETATM   37  C   UNL     1      37.623  51.106  67.271  1.00  0.00     0.000 A 
HETATM   38  C   UNL     1      37.928  50.949  65.921  1.00  0.00     0.001 A 
HETATM   39  C   UNL     1      38.967  50.100  65.529  1.00  0.00     0.009 A 
ENDBRANCH  33  34
ENDBRANCH  32  33
ENDBRANCH  30  32
ENDBRANCH  10  30
TORSDOF 10
ENDMDL
MODEL 7
REMARK VINA RESULT:      -7.3      8.915     13.164
REMARK  10 active torsions:
REMARK  status: ('A' for Active; 'I' for Inactive)
REMARK    1  A    between atoms: C_4  and  C_5 
REMARK    2  A    between atoms: C_7  and  C_8 
REMARK    3  A    between atoms: C_8  and  C_9 
REMARK       I    between atoms: C_9  and  N_10 
REMARK    4  A    between atoms: N_10  and  C_11 
REMARK    5  A    between atoms: C_11  and  C_12 
REMARK    6  A    between atoms: C_12  and  N_13 
REMARK    7  A    between atoms: C_24  and  C_25 
REMARK    8  A    between atoms: C_25  and  O_26 
REMARK    9  A    between atoms: O_26  and  C_27 
REMARK   10  A    between atoms: C_27  and  C_28 
ROOT
HETATM    1  C   UNL     1      18.507  49.292  47.250  1.00  0.00     0.166 C 
HETATM    2  N   UNL     1      19.716  49.981  47.825  1.00  0.00    -0.318 N 
HETATM    3  C   UNL     1      20.021  51.131  48.355  1.00  0.00     0.011 C 
HETATM    4  C   UNL     1      20.922  48.999  47.955  1.00  0.00     0.170 C 
HETATM    5  S   UNL     1      22.178  49.598  48.979  1.00  0.00    -0.086 SA
HETATM    6  C   UNL     1      21.338  51.175  49.121  1.00  0.00     0.135 C 
HETATM    7  N   UNL     1      21.043  47.874  47.358  1.00  0.00    -0.229 NA
HETATM    8  C   UNL     1      20.048  47.451  46.515  1.00  0.00     0.048 C 
HETATM    9  C   UNL     1      20.387  46.148  45.826  1.00  0.00     0.071 C 
HETATM   10  C   UNL     1      18.862  48.091  46.406  1.00  0.00     0.069 C 
ENDROOT
BRANCH   3  11
HETATM   11  C   UNL     1      19.145  52.359  48.353  1.00  0.00     0.156 C 
BRANCH  11  12
HETATM   12  C   UNL     1      18.026  52.282  49.384  1.00  0.00     0.223 C 
HETATM   13  N   UNL     1      17.008  53.185  49.224  1.00  0.00    -0.359 N 
HETATM   14  H   UNL     1      17.174  53.970  48.597  1.00  0.00     0.162 HD
HETATM   15  O   UNL     1      18.023  51.441  50.281  1.00  0.00    -0.273 OA
BRANCH  13  16
HETATM   16  C   UNL     1      15.938  53.396  50.207  1.00  0.00     0.150 C 
BRANCH  16  17
HETATM   17  C   UNL     1      14.664  54.109  49.692  1.00  0.00     0.253 C 
BRANCH  17  18
HETATM   18  N   UNL     1      14.926  55.533  49.238  1.00  0.00    -0.077 N 
HETATM   19  H   UNL     1      15.771  55.502  48.633  1.00  0.00     0.279 HD
HETATM   20  C   UNL     1      13.821  56.112  48.395  1.00  0.00     0.269 C 
HETATM   21  C   UNL     1      15.248  56.444  50.390  1.00  0.00     0.269 C 
ENDBRANCH  17  18
ENDBRANCH  16  17
ENDBRANCH  13  16
ENDBRANCH  11  12
ENDBRANCH   3  11
BRANCH   1  22
HETATM   22  C   UNL     1      17.480  50.262  46.677  1.00  0.00    -0.024 A 
HETATM   23  C   UNL     1      17.910  51.067  45.588  1.00  0.00     0.017 A 
HETATM   24  C   UNL     1      17.046  51.946  44.926  1.00  0.00    -0.061 A 
HETATM   25  C   UNL     1      17.540  52.790  43.786  1.00  0.00     0.048 C 
HETATM   26  C   UNL     1      15.741  52.076  45.394  1.00  0.00     0.007 A 
HETATM   27  C   UNL     1      15.303  51.316  46.481  1.00  0.00     0.008 A 
HETATM   28  C   UNL     1      16.146  50.387  47.121  1.00  0.00    -0.053 A 
HETATM   29  C   UNL     1      15.572  49.644  48.298  1.00  0.00     0.049 C 
ENDBRANCH   1  22
BRANCH  10  30
HETATM   30  C   UNL     1      17.776  47.510  45.582  1.00  0.00     0.294 C 
HETATM   31  O   UNL     1      16.913  46.795  46.059  1.00  0.00    -0.259 OA
BRANCH  30  32
HETATM   32  O   UNL     1      17.882  47.931  44.306  1.00  0.00    -0.313 OA
BRANCH  32  33
HETATM   33  C   UNL     1      16.889  47.414  43.404  1.00  0.00     0.217 C 
BRANCH  33  34
HETATM   34  C   UNL     1      15.873  48.503  43.152  1.00  0.00    -0.034 A 
HETATM   35  C   UNL     1      14.679  48.547  43.890  1.00  0.00     0.009 A 
HETATM   36  C   UNL     1      13.736  49.551  43.664  1.00  0.00     0.001 A 
HETATM   37  C   UNL     1      13.980  50.533  42.708  1.00  0.00     0.000 A 
HETATM   38  C   UNL     1      15.167  50.511  41.978  1.00  0.00     0.001 A 
HETATM   39  C   UNL     1      16.107  49.501  42.196  1.00  0.00     0.009 A 
ENDBRANCH  33  34
ENDBRANCH  32  33
ENDBRANCH  30  32
ENDBRANCH  10  30
TORSDOF 10
ENDMDL
MODEL 8
REMARK VINA RESULT:      -7.2     10.756     14.077
REMARK  10 active torsions:
REMARK  status: ('A' for Active; 'I' for Inactive)
REMARK    1  A    between atoms: C_4  and  C_5 
REMARK    2  A    between atoms: C_7  and  C_8 
REMARK    3  A    between atoms: C_8  and  C_9 
REMARK       I    between atoms: C_9  and  N_10 
REMARK    4  A    between atoms: N_10  and  C_11 
REMARK    5  A    between atoms: C_11  and  C_12 
REMARK    6  A    between atoms: C_12  and  N_13 
REMARK    7  A    between atoms: C_24  and  C_25 
REMARK    8  A    between atoms: C_25  and  O_26 
REMARK    9  A    between atoms: O_26  and  C_27 
REMARK   10  A    between atoms: C_27  and  C_28 
ROOT
HETATM    1  C   UNL     1      26.663  48.291  40.316  1.00  0.00     0.166 C 
HETATM    2  N   UNL     1      25.835  47.094  40.703  1.00  0.00    -0.318 N 
HETATM    3  C   UNL     1      26.010  45.927  41.255  1.00  0.00     0.011 C 
HETATM    4  C   UNL     1      24.310  47.374  40.524  1.00  0.00     0.170 C 
HETATM    5  S   UNL     1      23.308  46.223  41.335  1.00  0.00    -0.086 SA
HETATM    6  C   UNL     1      24.746  45.239  41.758  1.00  0.00     0.135 C 
HETATM    7  N   UNL     1      23.797  48.317  39.828  1.00  0.00    -0.229 NA
HETATM    8  C   UNL     1      24.622  49.184  39.159  1.00  0.00     0.048 C 
HETATM    9  C   UNL     1      23.855  50.180  38.317  1.00  0.00     0.071 C 
HETATM   10  C   UNL     1      25.963  49.193  39.329  1.00  0.00     0.069 C 
ENDROOT
BRANCH   3  11
HETATM   11  C   UNL     1      27.343  45.270  41.517  1.00  0.00     0.156 C 
BRANCH  11  12
HETATM   12  C   UNL     1      27.502  43.953  40.768  1.00  0.00     0.223 C 
HETATM   13  N   UNL     1      26.989  43.927  39.498  1.00  0.00    -0.359 N 
HETATM   14  H   UNL     1      26.352  44.677  39.235  1.00  0.00     0.162 HD
HETATM   15  O   UNL     1      28.082  42.987  41.261  1.00  0.00    -0.273 OA
BRANCH  13  16
HETATM   16  C   UNL     1      26.875  42.710  38.684  1.00  0.00     0.150 C 
BRANCH  16  17
HETATM   17  C   UNL     1      27.247  42.847  37.187  1.00  0.00     0.253 C 
BRANCH  17  18
HETATM   18  N   UNL     1      28.711  42.557  36.913  1.00  0.00    -0.077 N 
HETATM   19  H   UNL     1      28.754  42.099  35.981  1.00  0.00     0.279 HD
HETATM   20  C   UNL     1      29.565  43.794  36.820  1.00  0.00     0.269 C 
HETATM   21  C   UNL     1      29.290  41.585  37.904  1.00  0.00     0.269 C 
ENDBRANCH  17  18
ENDBRANCH  16  17
ENDBRANCH  13  16
ENDBRANCH  11  12
ENDBRANCH   3  11
BRANCH   1  22
HETATM   22  C   UNL     1      28.119  47.946  40.028  1.00  0.00    -0.024 A 
HETATM   23  C   UNL     1      29.067  48.336  41.011  1.00  0.00     0.017 A 
HETATM   24  C   UNL     1      30.425  48.016  40.902  1.00  0.00    -0.061 A 
HETATM   25  C   UNL     1      31.400  48.457  41.957  1.00  0.00     0.048 C 
HETATM   26  C   UNL     1      30.863  47.350  39.762  1.00  0.00     0.007 A 
HETATM   27  C   UNL     1      29.954  46.980  38.767  1.00  0.00     0.008 A 
HETATM   28  C   UNL     1      28.577  47.246  38.890  1.00  0.00    -0.053 A 
HETATM   29  C   UNL     1      27.697  46.825  37.744  1.00  0.00     0.049 C 
ENDBRANCH   1  22
BRANCH  10  30
HETATM   30  C   UNL     1      26.787  50.243  38.683  1.00  0.00     0.294 C 
HETATM   31  O   UNL     1      26.878  50.341  37.473  1.00  0.00    -0.259 OA
BRANCH  30  32
HETATM   32  O   UNL     1      27.337  51.044  39.617  1.00  0.00    -0.313 OA
BRANCH  32  33
HETATM   33  C   UNL     1      28.144  52.119  39.107  1.00  0.00     0.217 C 
BRANCH  33  34
HETATM   34  C   UNL     1      29.595  51.735  39.273  1.00  0.00    -0.034 A 
HETATM   35  C   UNL     1      30.254  50.993  38.280  1.00  0.00     0.009 A 
HETATM   36  C   UNL     1      31.595  50.635  38.426  1.00  0.00     0.001 A 
HETATM   37  C   UNL     1      32.301  51.028  39.560  1.00  0.00     0.000 A 
HETATM   38  C   UNL     1      31.665  51.778  40.547  1.00  0.00     0.001 A 
HETATM   39  C   UNL     1      30.319  52.127  40.407  1.00  0.00     0.009 A 
ENDBRANCH  33  34
ENDBRANCH  32  33
ENDBRANCH  30  32
ENDBRANCH  10  30
TORSDOF 10
ENDMDL
MODEL 9
REMARK VINA RESULT:      -7.0     11.496     14.578
REMARK  10 active torsions:
REMARK  status: ('A' for Active; 'I' for Inactive)
REMARK    1  A    between atoms: C_4  and  C_5 
REMARK    2  A    between atoms: C_7  and  C_8 
REMARK    3  A    between atoms: C_8  and  C_9 
REMARK       I    between atoms: C_9  and  N_10 
REMARK    4  A    between atoms: N_10  and  C_11 
REMARK    5  A    between atoms: C_11  and  C_12 
REMARK    6  A    between atoms: C_12  and  N_13 
REMARK    7  A    between atoms: C_24  and  C_25 
REMARK    8  A    between atoms: C_25  and  O_26 
REMARK    9  A    between atoms: O_26  and  C_27 
REMARK   10  A    between atoms: C_27  and  C_28 
ROOT
HETATM    1  C   UNL     1      27.570  47.931  37.935  1.00  0.00     0.166 C 
HETATM    2  N   UNL     1      28.460  49.027  38.456  1.00  0.00    -0.318 N 
HETATM    3  C   UNL     1      29.712  49.196  38.773  1.00  0.00     0.011 C 
HETATM    4  C   UNL     1      27.711  50.395  38.502  1.00  0.00     0.170 C 
HETATM    5  S   UNL     1      28.773  51.746  38.680  1.00  0.00    -0.086 SA
HETATM    6  C   UNL     1      30.169  50.644  38.905  1.00  0.00     0.135 C 
HETATM    7  N   UNL     1      26.442  50.559  38.459  1.00  0.00    -0.229 NA
HETATM    8  C   UNL     1      25.627  49.461  38.365  1.00  0.00     0.048 C 
HETATM    9  C   UNL     1      24.159  49.824  38.414  1.00  0.00     0.071 C 
HETATM   10  C   UNL     1      26.103  48.214  38.151  1.00  0.00     0.069 C 
ENDROOT
BRANCH   3  11
HETATM   11  C   UNL     1      30.738  48.099  38.917  1.00  0.00     0.156 C 
BRANCH  11  12
HETATM   12  C   UNL     1      31.275  47.984  40.338  1.00  0.00     0.223 C 
HETATM   13  N   UNL     1      30.518  48.584  41.309  1.00  0.00    -0.359 N 
HETATM   14  H   UNL     1      29.802  49.242  41.005  1.00  0.00     0.162 HD
HETATM   15  O   UNL     1      32.305  47.365  40.599  1.00  0.00    -0.273 OA
BRANCH  13  16
HETATM   16  C   UNL     1      30.950  48.747  42.703  1.00  0.00     0.150 C 
BRANCH  16  17
HETATM   17  C   UNL     1      31.888  49.943  42.997  1.00  0.00     0.253 C 
BRANCH  17  18
HETATM   18  N   UNL     1      31.746  51.067  41.988  1.00  0.00    -0.077 N 
HETATM   19  H   UNL     1      31.136  50.708  41.226  1.00  0.00     0.279 HD
HETATM   20  C   UNL     1      31.065  52.291  42.538  1.00  0.00     0.269 C 
HETATM   21  C   UNL     1      33.062  51.430  41.356  1.00  0.00     0.269 C 
ENDBRANCH  17  18
ENDBRANCH  16  17
ENDBRANCH  13  16
ENDBRANCH  11  12
ENDBRANCH   3  11
BRANCH   1  22
HETATM   22  C   UNL     1      28.066  46.535  38.292  1.00  0.00    -0.024 A 
HETATM   23  C   UNL     1      28.542  45.739  37.216  1.00  0.00     0.017 A 
HETATM   24  C   UNL     1      29.090  44.468  37.417  1.00  0.00    -0.061 A 
HETATM   25  C   UNL     1      29.574  43.651  36.251  1.00  0.00     0.048 C 
HETATM   26  C   UNL     1      29.109  43.946  38.707  1.00  0.00     0.007 A 
HETATM   27  C   UNL     1      28.621  44.698  39.779  1.00  0.00     0.008 A 
HETATM   28  C   UNL     1      28.118  46.001  39.598  1.00  0.00    -0.053 A 
HETATM   29  C   UNL     1      27.594  46.705  40.821  1.00  0.00     0.049 C 
ENDBRANCH   1  22
BRANCH  10  30
HETATM   30  C   UNL     1      25.165  47.089  37.922  1.00  0.00     0.294 C 
HETATM   31  O   UNL     1      24.912  46.673  36.806  1.00  0.00    -0.259 OA
BRANCH  30  32
HETATM   32  O   UNL     1      24.714  46.610  39.099  1.00  0.00    -0.313 OA
BRANCH  32  33
HETATM   33  C   UNL     1      23.864  45.455  39.008  1.00  0.00     0.217 C 
BRANCH  33  34
HETATM   34  C   UNL     1      24.682  44.241  39.377  1.00  0.00    -0.034 A 
HETATM   35  C   UNL     1      25.193  43.396  38.379  1.00  0.00     0.009 A 
HETATM   36  C   UNL     1      25.951  42.272  38.712  1.00  0.00     0.001 A 
HETATM   37  C   UNL     1      26.222  41.986  40.047  1.00  0.00     0.000 A 
HETATM   38  C   UNL     1      25.734  42.824  41.049  1.00  0.00     0.001 A 
HETATM   39  C   UNL     1      24.966  43.943  40.717  1.00  0.00     0.009 A 
ENDBRANCH  33  34
ENDBRANCH  32  33
ENDBRANCH  30  32
ENDBRANCH  10  30
TORSDOF 10
ENDMDL
MODEL 10
REMARK VINA RESULT:      -7.0      6.183     10.202
REMARK  10 active torsions:
REMARK  status: ('A' for Active; 'I' for Inactive)
REMARK    1  A    between atoms: C_4  and  C_5 
REMARK    2  A    between atoms: C_7  and  C_8 
REMARK    3  A    between atoms: C_8  and  C_9 
REMARK       I    between atoms: C_9  and  N_10 
REMARK    4  A    between atoms: N_10  and  C_11 
REMARK    5  A    between atoms: C_11  and  C_12 
REMARK    6  A    between atoms: C_12  and  N_13 
REMARK    7  A    between atoms: C_24  and  C_25 
REMARK    8  A    between atoms: C_25  and  O_26 
REMARK    9  A    between atoms: O_26  and  C_27 
REMARK   10  A    between atoms: C_27  and  C_28 
ROOT
HETATM    1  C   UNL     1      20.612  47.340  46.931  1.00  0.00     0.166 C 
HETATM    2  N   UNL     1      20.375  45.857  46.828  1.00  0.00    -0.318 N 
HETATM    3  C   UNL     1      19.472  45.046  46.354  1.00  0.00     0.011 C 
HETATM    4  C   UNL     1      21.625  45.046  47.294  1.00  0.00     0.170 C 
HETATM    5  S   UNL     1      21.578  43.389  46.810  1.00  0.00    -0.086 SA
HETATM    6  C   UNL     1      19.911  43.597  46.184  1.00  0.00     0.135 C 
HETATM    7  N   UNL     1      22.592  45.498  47.999  1.00  0.00    -0.229 NA
HETATM    8  C   UNL     1      22.573  46.807  48.406  1.00  0.00     0.048 C 
HETATM    9  C   UNL     1      23.744  47.153  49.299  1.00  0.00     0.071 C 
HETATM   10  C   UNL     1      21.657  47.696  47.962  1.00  0.00     0.069 C 
ENDROOT
BRANCH   3  11
HETATM   11  C   UNL     1      18.096  45.444  45.879  1.00  0.00     0.156 C 
BRANCH  11  12
HETATM   12  C   UNL     1      18.094  45.934  44.437  1.00  0.00     0.223 C 
HETATM   13  N   UNL     1      16.999  46.668  44.061  1.00  0.00    -0.359 N 
HETATM   14  H   UNL     1      16.184  46.637  44.671  1.00  0.00     0.162 HD
HETATM   15  O   UNL     1      19.030  45.713  43.671  1.00  0.00    -0.273 OA
BRANCH  13  16
HETATM   16  C   UNL     1      16.718  47.072  42.678  1.00  0.00     0.150 C 
BRANCH  16  17
HETATM   17  C   UNL     1      15.344  46.648  42.104  1.00  0.00     0.253 C 
BRANCH  17  18
HETATM   18  N   UNL     1      14.280  46.492  43.173  1.00  0.00    -0.077 N 
HETATM   19  H   UNL     1      14.768  46.177  44.036  1.00  0.00     0.279 HD
HETATM   20  C   UNL     1      13.582  47.779  43.525  1.00  0.00     0.269 C 
HETATM   21  C   UNL     1      13.280  45.424  42.825  1.00  0.00     0.269 C 
ENDBRANCH  17  18
ENDBRANCH  16  17
ENDBRANCH  13  16
ENDBRANCH  11  12
ENDBRANCH   3  11
BRANCH   1  22
HETATM   22  C   UNL     1      19.324  48.154  46.941  1.00  0.00    -0.024 A 
HETATM   23  C   UNL     1      19.125  49.035  45.844  1.00  0.00     0.017 A 
HETATM   24  C   UNL     1      17.953  49.785  45.695  1.00  0.00    -0.061 A 
HETATM   25  C   UNL     1      17.784  50.714  44.527  1.00  0.00     0.048 C 
HETATM   26  C   UNL     1      16.983  49.709  46.690  1.00  0.00     0.007 A 
HETATM   27  C   UNL     1      17.167  48.871  47.793  1.00  0.00     0.008 A 
HETATM   28  C   UNL     1      18.317  48.069  47.927  1.00  0.00    -0.053 A 
HETATM   29  C   UNL     1      18.418  47.227  49.170  1.00  0.00     0.049 C 
ENDBRANCH   1  22
BRANCH  10  30
HETATM   30  C   UNL     1      21.769  49.127  48.330  1.00  0.00     0.294 C 
HETATM   31  O   UNL     1      22.323  49.940  47.611  1.00  0.00    -0.259 OA
BRANCH  30  32
HETATM   32  O   UNL     1      21.144  49.358  49.503  1.00  0.00    -0.313 OA
BRANCH  32  33
HETATM   33  C   UNL     1      21.136  50.729  49.935  1.00  0.00     0.217 C 
BRANCH  33  34
HETATM   34  C   UNL     1      19.823  51.345  49.513  1.00  0.00    -0.034 A 
HETATM   35  C   UNL     1      18.657  51.119  50.261  1.00  0.00     0.009 A 
HETATM   36  C   UNL     1      17.440  51.686  49.879  1.00  0.00     0.001 A 
HETATM   37  C   UNL     1      17.376  52.500  48.751  1.00  0.00     0.000 A 
HETATM   38  C   UNL     1      18.528  52.747  48.007  1.00  0.00     0.001 A 
HETATM   39  C   UNL     1      19.745  52.171  48.383  1.00  0.00     0.009 A 
ENDBRANCH  33  34
ENDBRANCH  32  33
ENDBRANCH  30  32
ENDBRANCH  10  30
TORSDOF 10
ENDMDL
