MODEL 1
REMARK VINA RESULT:      -9.4      0.000      0.000
REMARK  9 active torsions:
REMARK  status: ('A' for Active; 'I' for Inactive)
REMARK    1  A    between atoms: C_2  and  N_3 
REMARK    2  A    between atoms: C_4  and  S_5 
REMARK    3  A    between atoms: S_5  and  C_6 
REMARK    4  A    between atoms: C_6  and  C_7 
REMARK       I    between atoms: C_7  and  N_8 
REMARK    5  A    between atoms: N_8  and  C_9 
REMARK    6  A    between atoms: C_12  and  O_13 
REMARK    7  A    between atoms: C_19  and  C_20 
REMARK    8  A    between atoms: C_23  and  S_24 
REMARK    9  A    between atoms: S_24  and  N_25 
ROOT
HETATM    1  N   UNL     1      26.005  43.573  50.990  1.00  0.00    -0.308 N 
HETATM    2  C   UNL     1      26.795  42.492  50.699  1.00  0.00     0.192 A 
HETATM    3  N   UNL     1      27.166  42.534  49.442  1.00  0.00    -0.122 NA
HETATM    4  N   UNL     1      26.660  43.684  48.899  1.00  0.00    -0.128 NA
HETATM    5  C   UNL     1      25.978  44.328  49.832  1.00  0.00     0.164 A 
ENDROOT
BRANCH   5   6
HETATM    6  C   UNL     1      25.272  45.589  49.610  1.00  0.00     0.012 A 
HETATM    7  C   UNL     1      23.941  45.556  49.169  1.00  0.00     0.017 A 
HETATM    8  C   UNL     1      23.237  46.738  48.927  1.00  0.00     0.026 A 
HETATM    9  C   UNL     1      23.876  47.966  49.110  1.00  0.00     0.074 A 
HETATM   10  C   UNL     1      25.208  48.021  49.527  1.00  0.00     0.026 A 
HETATM   11  C   UNL     1      25.903  46.831  49.770  1.00  0.00     0.017 A 
BRANCH   9  12
HETATM   12  S   UNL     1      22.989  49.461  48.790  1.00  0.00     0.243 S 
HETATM   13  O   UNL     1      23.198  50.355  49.903  1.00  0.00    -0.206 OA
HETATM   14  O   UNL     1      23.237  49.882  47.427  1.00  0.00    -0.206 OA
BRANCH  12  15
HETATM   15  N   UNL     1      21.345  48.974  48.819  1.00  0.00    -0.203 NA
HETATM   16  C   UNL     1      20.592  49.119  47.533  1.00  0.00     0.135 C 
HETATM   17  C   UNL     1      20.090  50.559  47.288  1.00  0.00     0.250 C 
HETATM   18  N   UNL     1      19.340  51.099  48.504  1.00  0.00    -0.073 N 
HETATM   19  H   UNL     1      18.497  50.524  48.626  1.00  0.00     0.279 HD
HETATM   20  C   UNL     1      18.883  52.515  48.289  1.00  0.00     0.269 C 
HETATM   21  C   UNL     1      20.169  50.969  49.780  1.00  0.00     0.250 C 
HETATM   22  C   UNL     1      20.572  49.501  49.986  1.00  0.00     0.135 C 
ENDBRANCH  12  15
ENDBRANCH   9  12
ENDBRANCH   5   6
BRANCH   1  23
HETATM   23  C   UNL     1      25.225  43.784  52.195  1.00  0.00     0.128 C 
HETATM   24  C   UNL     1      25.657  44.997  53.002  1.00  0.00     0.027 C 
ENDBRANCH   1  23
BRANCH   2  25
HETATM   25  S   UNL     1      27.226  41.267  51.838  1.00  0.00    -0.081 SA
BRANCH  25  26
HETATM   26  C   UNL     1      28.846  41.853  52.409  1.00  0.00     0.185 C 
BRANCH  26  27
HETATM   27  C   UNL     1      28.738  42.581  53.741  1.00  0.00     0.231 C 
HETATM   28  N   UNL     1      29.907  43.236  54.093  1.00  0.00    -0.327 N 
HETATM   29  H   UNL     1      30.587  43.361  53.343  1.00  0.00     0.169 HD
HETATM   30  O   UNL     1      27.701  42.548  54.399  1.00  0.00    -0.272 OA
BRANCH  28  31
HETATM   31  C   UNL     1      30.215  43.875  55.308  1.00  0.00     0.034 A 
HETATM   32  C   UNL     1      31.103  43.210  56.166  1.00  0.00     0.032 A 
HETATM   33  C   UNL     1      31.434  43.751  57.412  1.00  0.00     0.039 A 
HETATM   34  C   UNL     1      30.877  44.963  57.795  1.00  0.00     0.065 A 
HETATM   35  C   UNL     1      30.003  45.640  56.954  1.00  0.00     0.039 A 
HETATM   36  C   UNL     1      29.668  45.094  55.712  1.00  0.00     0.032 A 
BRANCH  34  37
HETATM   37  O   UNL     1      31.162  45.526  59.004  1.00  0.00    -0.361 OA
HETATM   38  H   UNL     1      30.546  46.260  59.159  1.00  0.00     0.217 HD
ENDBRANCH  34  37
ENDBRANCH  28  31
ENDBRANCH  26  27
ENDBRANCH  25  26
ENDBRANCH   2  25
TORSDOF 9
ENDMDL
MODEL 2
REMARK VINA RESULT:      -9.1      1.497      2.130
REMARK  9 active torsions:
REMARK  status: ('A' for Active; 'I' for Inactive)
REMARK    1  A    between atoms: C_2  and  N_3 
REMARK    2  A    between atoms: C_4  and  S_5 
REMARK    3  A    between atoms: S_5  and  C_6 
REMARK    4  A    between atoms: C_6  and  C_7 
REMARK       I    between atoms: C_7  and  N_8 
REMARK    5  A    between atoms: N_8  and  C_9 
REMARK    6  A    between atoms: C_12  and  O_13 
REMARK    7  A    between atoms: C_19  and  C_20 
REMARK    8  A    between atoms: C_23  and  S_24 
REMARK    9  A    between atoms: S_24  and  N_25 
ROOT
HETATM    1  N   UNL     1      25.210  44.333  50.420  1.00  0.00    -0.308 N 
HETATM    2  C   UNL     1      26.469  43.799  50.517  1.00  0.00     0.192 A 
HETATM    3  N   UNL     1      27.324  44.550  49.867  1.00  0.00    -0.122 NA
HETATM    4  N   UNL     1      26.639  45.626  49.372  1.00  0.00    -0.128 NA
HETATM    5  C   UNL     1      25.367  45.515  49.721  1.00  0.00     0.164 A 
ENDROOT
BRANCH   5   6
HETATM    6  C   UNL     1      24.326  46.471  49.347  1.00  0.00     0.012 A 
HETATM    7  C   UNL     1      24.490  47.823  49.685  1.00  0.00     0.017 A 
HETATM    8  C   UNL     1      23.511  48.765  49.364  1.00  0.00     0.026 A 
HETATM    9  C   UNL     1      22.347  48.349  48.713  1.00  0.00     0.074 A 
HETATM   10  C   UNL     1      22.154  47.005  48.387  1.00  0.00     0.026 A 
HETATM   11  C   UNL     1      23.143  46.070  48.711  1.00  0.00     0.017 A 
BRANCH   9  12
HETATM   12  S   UNL     1      21.102  49.540  48.319  1.00  0.00     0.243 S 
HETATM   13  O   UNL     1      21.753  50.802  48.059  1.00  0.00    -0.206 OA
HETATM   14  O   UNL     1      20.169  48.964  47.375  1.00  0.00    -0.206 OA
BRANCH  12  15
HETATM   15  N   UNL     1      20.219  49.706  49.780  1.00  0.00    -0.203 NA
HETATM   16  C   UNL     1      19.010  48.834  49.922  1.00  0.00     0.135 C 
HETATM   17  C   UNL     1      17.771  49.398  49.191  1.00  0.00     0.250 C 
HETATM   18  N   UNL     1      17.525  50.858  49.564  1.00  0.00    -0.073 N 
HETATM   19  H   UNL     1      17.296  50.885  50.566  1.00  0.00     0.279 HD
HETATM   20  C   UNL     1      16.346  51.427  48.825  1.00  0.00     0.269 C 
HETATM   21  C   UNL     1      18.775  51.712  49.358  1.00  0.00     0.250 C 
HETATM   22  C   UNL     1      19.940  51.123  50.168  1.00  0.00     0.135 C 
ENDBRANCH  12  15
ENDBRANCH   9  12
ENDBRANCH   5   6
BRANCH   1  23
HETATM   23  C   UNL     1      23.964  43.703  50.813  1.00  0.00     0.128 C 
HETATM   24  C   UNL     1      23.487  42.629  49.850  1.00  0.00     0.027 C 
ENDBRANCH   1  23
BRANCH   2  25
HETATM   25  S   UNL     1      26.848  42.350  51.377  1.00  0.00    -0.081 SA
BRANCH  25  26
HETATM   26  C   UNL     1      28.545  42.684  51.927  1.00  0.00     0.185 C 
BRANCH  26  27
HETATM   27  C   UNL     1      28.618  42.855  53.438  1.00  0.00     0.231 C 
HETATM   28  N   UNL     1      29.637  43.704  53.835  1.00  0.00    -0.327 N 
HETATM   29  H   UNL     1      30.040  44.286  53.100  1.00  0.00     0.169 HD
HETATM   30  O   UNL     1      27.835  42.267  54.180  1.00  0.00    -0.272 OA
BRANCH  28  31
HETATM   31  C   UNL     1      30.088  43.972  55.140  1.00  0.00     0.034 A 
HETATM   32  C   UNL     1      29.671  45.179  55.719  1.00  0.00     0.032 A 
HETATM   33  C   UNL     1      30.103  45.547  56.997  1.00  0.00     0.039 A 
HETATM   34  C   UNL     1      30.951  44.699  57.698  1.00  0.00     0.065 A 
HETATM   35  C   UNL     1      31.365  43.494  57.143  1.00  0.00     0.039 A 
HETATM   36  C   UNL     1      30.938  43.132  55.862  1.00  0.00     0.032 A 
BRANCH  34  37
HETATM   37  O   UNL     1      31.406  45.017  58.942  1.00  0.00    -0.361 OA
HETATM   38  H   UNL     1      30.656  45.310  59.483  1.00  0.00     0.217 HD
ENDBRANCH  34  37
ENDBRANCH  28  31
ENDBRANCH  26  27
ENDBRANCH  25  26
ENDBRANCH   2  25
TORSDOF 9
ENDMDL
MODEL 3
REMARK VINA RESULT:      -8.5      2.649      4.001
REMARK  9 active torsions:
REMARK  status: ('A' for Active; 'I' for Inactive)
REMARK    1  A    between atoms: C_2  and  N_3 
REMARK    2  A    between atoms: C_4  and  S_5 
REMARK    3  A    between atoms: S_5  and  C_6 
REMARK    4  A    between atoms: C_6  and  C_7 
REMARK       I    between atoms: C_7  and  N_8 
REMARK    5  A    between atoms: N_8  and  C_9 
REMARK    6  A    between atoms: C_12  and  O_13 
REMARK    7  A    between atoms: C_19  and  C_20 
REMARK    8  A    between atoms: C_23  and  S_24 
REMARK    9  A    between atoms: S_24  and  N_25 
ROOT
HETATM    1  N   UNL     1      24.079  46.273  49.292  1.00  0.00    -0.308 N 
HETATM    2  C   UNL     1      25.264  45.994  49.922  1.00  0.00     0.192 A 
HETATM    3  N   UNL     1      25.757  47.087  50.453  1.00  0.00    -0.122 NA
HETATM    4  N   UNL     1      24.867  48.099  50.219  1.00  0.00    -0.128 NA
HETATM    5  C   UNL     1      23.841  47.613  49.540  1.00  0.00     0.164 A 
ENDROOT
BRANCH   5   6
HETATM    6  C   UNL     1      22.702  48.410  49.088  1.00  0.00     0.012 A 
HETATM    7  C   UNL     1      22.919  49.733  48.672  1.00  0.00     0.017 A 
HETATM    8  C   UNL     1      21.856  50.535  48.251  1.00  0.00     0.026 A 
HETATM    9  C   UNL     1      20.560  50.016  48.264  1.00  0.00     0.074 A 
HETATM   10  C   UNL     1      20.319  48.710  48.696  1.00  0.00     0.026 A 
HETATM   11  C   UNL     1      21.391  47.914  49.112  1.00  0.00     0.017 A 
BRANCH   9  12
HETATM   12  S   UNL     1      19.213  51.037  47.745  1.00  0.00     0.243 S 
HETATM   13  O   UNL     1      19.459  52.379  48.215  1.00  0.00    -0.206 OA
HETATM   14  O   UNL     1      18.915  50.767  46.355  1.00  0.00    -0.206 OA
BRANCH  12  15
HETATM   15  N   UNL     1      17.873  50.420  48.621  1.00  0.00    -0.203 NA
HETATM   16  C   UNL     1      16.599  50.261  47.851  1.00  0.00     0.135 C 
HETATM   17  C   UNL     1      15.811  51.583  47.710  1.00  0.00     0.250 C 
HETATM   18  N   UNL     1      15.631  52.267  49.063  1.00  0.00    -0.073 N 
HETATM   19  H   UNL     1      15.047  51.652  49.644  1.00  0.00     0.279 HD
HETATM   20  C   UNL     1      14.901  53.574  48.930  1.00  0.00     0.269 C 
HETATM   21  C   UNL     1      16.965  52.446  49.787  1.00  0.00     0.250 C 
HETATM   22  C   UNL     1      17.652  51.081  49.945  1.00  0.00     0.135 C 
ENDBRANCH  12  15
ENDBRANCH   9  12
ENDBRANCH   5   6
BRANCH   1  23
HETATM   23  C   UNL     1      23.333  45.396  48.411  1.00  0.00     0.128 C 
HETATM   24  C   UNL     1      22.336  44.503  49.131  1.00  0.00     0.027 C 
ENDBRANCH   1  23
BRANCH   2  25
HETATM   25  S   UNL     1      25.981  44.424  49.994  1.00  0.00    -0.081 SA
BRANCH  25  26
HETATM   26  C   UNL     1      25.071  43.669  51.370  1.00  0.00     0.185 C 
BRANCH  26  27
HETATM   27  C   UNL     1      25.621  44.118  52.716  1.00  0.00     0.231 C 
HETATM   28  N   UNL     1      26.977  44.396  52.678  1.00  0.00    -0.327 N 
HETATM   29  H   UNL     1      27.380  44.507  51.748  1.00  0.00     0.169 HD
HETATM   30  O   UNL     1      24.893  44.196  53.703  1.00  0.00    -0.272 OA
BRANCH  28  31
HETATM   31  C   UNL     1      27.836  44.687  53.753  1.00  0.00     0.034 A 
HETATM   32  C   UNL     1      27.639  45.911  54.408  1.00  0.00     0.032 A 
HETATM   33  C   UNL     1      28.471  46.302  55.461  1.00  0.00     0.039 A 
HETATM   34  C   UNL     1      29.500  45.459  55.862  1.00  0.00     0.065 A 
HETATM   35  C   UNL     1      29.704  44.238  55.231  1.00  0.00     0.039 A 
HETATM   36  C   UNL     1      28.875  43.854  54.173  1.00  0.00     0.032 A 
BRANCH  34  37
HETATM   37  O   UNL     1      30.344  45.800  56.877  1.00  0.00    -0.361 OA
HETATM   38  H   UNL     1      30.247  45.153  57.593  1.00  0.00     0.217 HD
ENDBRANCH  34  37
ENDBRANCH  28  31
ENDBRANCH  26  27
ENDBRANCH  25  26
ENDBRANCH   2  25
TORSDOF 9
ENDMDL
MODEL 4
REMARK VINA RESULT:      -8.3      6.382     11.275
REMARK  9 active torsions:
REMARK  status: ('A' for Active; 'I' for Inactive)
REMARK    1  A    between atoms: C_2  and  N_3 
REMARK    2  A    between atoms: C_4  and  S_5 
REMARK    3  A    between atoms: S_5  and  C_6 
REMARK    4  A    between atoms: C_6  and  C_7 
REMARK       I    between atoms: C_7  and  N_8 
REMARK    5  A    between atoms: N_8  and  C_9 
REMARK    6  A    between atoms: C_12  and  O_13 
REMARK    7  A    between atoms: C_19  and  C_20 
REMARK    8  A    between atoms: C_23  and  S_24 
REMARK    9  A    between atoms: S_24  and  N_25 
ROOT
HETATM    1  N   UNL     1      17.526  51.080  47.951  1.00  0.00    -0.308 N 
HETATM    2  C   UNL     1      17.831  49.862  47.402  1.00  0.00     0.192 A 
HETATM    3  N   UNL     1      16.762  49.104  47.373  1.00  0.00    -0.122 NA
HETATM    4  N   UNL     1      15.717  49.841  47.862  1.00  0.00    -0.128 NA
HETATM    5  C   UNL     1      16.165  51.042  48.191  1.00  0.00     0.164 A 
ENDROOT
BRANCH   5   6
HETATM    6  C   UNL     1      15.335  52.096  48.773  1.00  0.00     0.012 A 
HETATM    7  C   UNL     1      14.906  53.153  47.957  1.00  0.00     0.017 A 
HETATM    8  C   UNL     1      14.129  54.190  48.477  1.00  0.00     0.026 A 
HETATM    9  C   UNL     1      13.791  54.179  49.833  1.00  0.00     0.074 A 
HETATM   10  C   UNL     1      14.227  53.148  50.667  1.00  0.00     0.026 A 
HETATM   11  C   UNL     1      15.002  52.113  50.135  1.00  0.00     0.017 A 
BRANCH   9  12
HETATM   12  S   UNL     1      12.820  55.499  50.494  1.00  0.00     0.243 S 
HETATM   13  O   UNL     1      11.820  55.856  49.516  1.00  0.00    -0.206 OA
HETATM   14  O   UNL     1      12.460  55.191  51.862  1.00  0.00    -0.206 OA
BRANCH  12  15
HETATM   15  N   UNL     1      13.926  56.805  50.603  1.00  0.00    -0.203 NA
HETATM   16  C   UNL     1      15.239  56.504  51.256  1.00  0.00     0.135 C 
HETATM   17  C   UNL     1      15.165  56.528  52.799  1.00  0.00     0.250 C 
HETATM   18  N   UNL     1      14.508  57.811  53.302  1.00  0.00    -0.073 N 
HETATM   19  H   UNL     1      15.120  58.594  53.038  1.00  0.00     0.279 HD
HETATM   20  C   UNL     1      14.395  57.825  54.801  1.00  0.00     0.269 C 
HETATM   21  C   UNL     1      13.152  58.048  52.639  1.00  0.00     0.250 C 
HETATM   22  C   UNL     1      13.323  58.076  51.112  1.00  0.00     0.135 C 
ENDBRANCH  12  15
ENDBRANCH   9  12
ENDBRANCH   5   6
BRANCH   1  23
HETATM   23  C   UNL     1      18.461  52.113  48.354  1.00  0.00     0.128 C 
HETATM   24  C   UNL     1      18.899  52.013  49.806  1.00  0.00     0.027 C 
ENDBRANCH   1  23
BRANCH   2  25
HETATM   25  S   UNL     1      19.401  49.415  46.836  1.00  0.00    -0.081 SA
BRANCH  25  26
HETATM   26  C   UNL     1      20.159  48.752  48.345  1.00  0.00     0.185 C 
BRANCH  26  27
HETATM   27  C   UNL     1      21.611  48.358  48.114  1.00  0.00     0.231 C 
HETATM   28  N   UNL     1      22.498  49.109  48.867  1.00  0.00    -0.327 N 
HETATM   29  H   UNL     1      22.089  49.639  49.636  1.00  0.00     0.169 HD
HETATM   30  O   UNL     1      21.906  47.467  47.322  1.00  0.00    -0.272 OA
BRANCH  28  31
HETATM   31  C   UNL     1      23.903  49.123  48.797  1.00  0.00     0.034 A 
HETATM   32  C   UNL     1      24.584  48.160  49.557  1.00  0.00     0.032 A 
HETATM   33  C   UNL     1      25.982  48.124  49.580  1.00  0.00     0.039 A 
HETATM   34  C   UNL     1      26.697  49.053  48.836  1.00  0.00     0.065 A 
HETATM   35  C   UNL     1      26.039  50.007  48.069  1.00  0.00     0.039 A 
HETATM   36  C   UNL     1      24.642  50.045  48.054  1.00  0.00     0.032 A 
BRANCH  34  37
HETATM   37  O   UNL     1      28.060  49.064  48.834  1.00  0.00    -0.361 OA
HETATM   38  H   UNL     1      28.375  48.603  48.041  1.00  0.00     0.217 HD
ENDBRANCH  34  37
ENDBRANCH  28  31
ENDBRANCH  26  27
ENDBRANCH  25  26
ENDBRANCH   2  25
TORSDOF 9
ENDMDL
MODEL 5
REMARK VINA RESULT:      -8.1      3.493      5.313
REMARK  9 active torsions:
REMARK  status: ('A' for Active; 'I' for Inactive)
REMARK    1  A    between atoms: C_2  and  N_3 
REMARK    2  A    between atoms: C_4  and  S_5 
REMARK    3  A    between atoms: S_5  and  C_6 
REMARK    4  A    between atoms: C_6  and  C_7 
REMARK       I    between atoms: C_7  and  N_8 
REMARK    5  A    between atoms: N_8  and  C_9 
REMARK    6  A    between atoms: C_12  and  O_13 
REMARK    7  A    between atoms: C_19  and  C_20 
REMARK    8  A    between atoms: C_23  and  S_24 
REMARK    9  A    between atoms: S_24  and  N_25 
ROOT
HETATM    1  N   UNL     1      23.116  47.053  48.968  1.00  0.00    -0.308 N 
HETATM    2  C   UNL     1      24.316  46.957  49.624  1.00  0.00     0.192 A 
HETATM    3  N   UNL     1      24.614  48.107  50.179  1.00  0.00    -0.122 NA
HETATM    4  N   UNL     1      23.578  48.967  49.936  1.00  0.00    -0.128 NA
HETATM    5  C   UNL     1      22.660  48.333  49.226  1.00  0.00     0.164 A 
ENDROOT
BRANCH   5   6
HETATM    6  C   UNL     1      21.417  48.944  48.756  1.00  0.00     0.012 A 
HETATM    7  C   UNL     1      20.206  48.578  49.363  1.00  0.00     0.017 A 
HETATM    8  C   UNL     1      18.996  49.124  48.932  1.00  0.00     0.026 A 
HETATM    9  C   UNL     1      18.993  50.032  47.870  1.00  0.00     0.074 A 
HETATM   10  C   UNL     1      20.185  50.393  47.238  1.00  0.00     0.026 A 
HETATM   11  C   UNL     1      21.392  49.843  47.680  1.00  0.00     0.017 A 
BRANCH   9  12
HETATM   12  S   UNL     1      17.458  50.712  47.315  1.00  0.00     0.243 S 
HETATM   13  O   UNL     1      16.401  50.159  48.128  1.00  0.00    -0.206 OA
HETATM   14  O   UNL     1      17.604  52.141  47.137  1.00  0.00    -0.206 OA
BRANCH  12  15
HETATM   15  N   UNL     1      17.280  50.077  45.732  1.00  0.00    -0.203 NA
HETATM   16  C   UNL     1      16.183  50.670  44.904  1.00  0.00     0.135 C 
HETATM   17  C   UNL     1      14.795  50.073  45.226  1.00  0.00     0.250 C 
HETATM   18  N   UNL     1      14.828  48.547  45.200  1.00  0.00    -0.073 N 
HETATM   19  H   UNL     1      15.041  48.259  44.236  1.00  0.00     0.279 HD
HETATM   20  C   UNL     1      13.492  47.957  45.552  1.00  0.00     0.269 C 
HETATM   21  C   UNL     1      15.935  47.992  46.096  1.00  0.00     0.250 C 
HETATM   22  C   UNL     1      17.288  48.582  45.670  1.00  0.00     0.135 C 
ENDBRANCH  12  15
ENDBRANCH   9  12
ENDBRANCH   5   6
BRANCH   1  23
HETATM   23  C   UNL     1      22.540  46.081  48.059  1.00  0.00     0.128 C 
HETATM   24  C   UNL     1      21.498  45.180  48.700  1.00  0.00     0.027 C 
ENDBRANCH   1  23
BRANCH   2  25
HETATM   25  S   UNL     1      25.274  45.522  49.695  1.00  0.00    -0.081 SA
BRANCH  25  26
HETATM   26  C   UNL     1      24.393  44.556  50.953  1.00  0.00     0.185 C 
BRANCH  26  27
HETATM   27  C   UNL     1      25.264  44.305  52.176  1.00  0.00     0.231 C 
HETATM   28  N   UNL     1      26.618  44.330  51.886  1.00  0.00    -0.327 N 
HETATM   29  H   UNL     1      26.871  44.742  50.988  1.00  0.00     0.169 HD
HETATM   30  O   UNL     1      24.762  44.096  53.278  1.00  0.00    -0.272 OA
BRANCH  28  31
HETATM   31  C   UNL     1      27.694  43.994  52.728  1.00  0.00     0.034 A 
HETATM   32  C   UNL     1      27.859  44.770  53.885  1.00  0.00     0.032 A 
HETATM   33  C   UNL     1      28.924  44.535  54.759  1.00  0.00     0.039 A 
HETATM   34  C   UNL     1      29.823  43.516  54.474  1.00  0.00     0.065 A 
HETATM   35  C   UNL     1      29.669  42.731  53.338  1.00  0.00     0.039 A 
HETATM   36  C   UNL     1      28.607  42.973  52.462  1.00  0.00     0.032 A 
BRANCH  34  37
HETATM   37  O   UNL     1      30.883  43.254  55.290  1.00  0.00    -0.361 OA
HETATM   38  H   UNL     1      30.843  43.850  56.055  1.00  0.00     0.217 HD
ENDBRANCH  34  37
ENDBRANCH  28  31
ENDBRANCH  26  27
ENDBRANCH  25  26
ENDBRANCH   2  25
TORSDOF 9
ENDMDL
MODEL 6
REMARK VINA RESULT:      -8.0     13.019     14.328
REMARK  9 active torsions:
REMARK  status: ('A' for Active; 'I' for Inactive)
REMARK    1  A    between atoms: C_2  and  N_3 
REMARK    2  A    between atoms: C_4  and  S_5 
REMARK    3  A    between atoms: S_5  and  C_6 
REMARK    4  A    between atoms: C_6  and  C_7 
REMARK       I    between atoms: C_7  and  N_8 
REMARK    5  A    between atoms: N_8  and  C_9 
REMARK    6  A    between atoms: C_12  and  O_13 
REMARK    7  A    between atoms: C_19  and  C_20 
REMARK    8  A    between atoms: C_23  and  S_24 
REMARK    9  A    between atoms: S_24  and  N_25 
ROOT
HETATM    1  N   UNL     1      35.199  51.583  42.011  1.00  0.00    -0.308 N 
HETATM    2  C   UNL     1      36.155  52.163  42.804  1.00  0.00     0.192 A 
HETATM    3  N   UNL     1      35.638  52.482  43.966  1.00  0.00    -0.122 NA
HETATM    4  N   UNL     1      34.334  52.065  43.969  1.00  0.00    -0.128 NA
HETATM    5  C   UNL     1      34.068  51.501  42.802  1.00  0.00     0.164 A 
ENDROOT
BRANCH   5   6
HETATM    6  C   UNL     1      32.762  50.958  42.431  1.00  0.00     0.012 A 
HETATM    7  C   UNL     1      31.714  51.844  42.143  1.00  0.00     0.017 A 
HETATM    8  C   UNL     1      30.446  51.367  41.803  1.00  0.00     0.026 A 
HETATM    9  C   UNL     1      30.219  49.989  41.768  1.00  0.00     0.074 A 
HETATM   10  C   UNL     1      31.243  49.091  42.074  1.00  0.00     0.026 A 
HETATM   11  C   UNL     1      32.510  49.579  42.409  1.00  0.00     0.017 A 
BRANCH   9  12
HETATM   12  S   UNL     1      28.610  49.386  41.352  1.00  0.00     0.243 S 
HETATM   13  O   UNL     1      28.627  47.947  41.461  1.00  0.00    -0.206 OA
HETATM   14  O   UNL     1      27.610  50.182  42.030  1.00  0.00    -0.206 OA
BRANCH  12  15
HETATM   15  N   UNL     1      28.446  49.777  39.690  1.00  0.00    -0.203 NA
HETATM   16  C   UNL     1      27.044  49.921  39.182  1.00  0.00     0.135 C 
HETATM   17  C   UNL     1      26.379  48.565  38.859  1.00  0.00     0.250 C 
HETATM   18  N   UNL     1      27.272  47.708  37.965  1.00  0.00    -0.073 N 
HETATM   19  H   UNL     1      27.366  48.197  37.065  1.00  0.00     0.279 HD
HETATM   20  C   UNL     1      26.649  46.370  37.679  1.00  0.00     0.269 C 
HETATM   21  C   UNL     1      28.675  47.556  38.550  1.00  0.00     0.250 C 
HETATM   22  C   UNL     1      29.291  48.944  38.780  1.00  0.00     0.135 C 
ENDBRANCH  12  15
ENDBRANCH   9  12
ENDBRANCH   5   6
BRANCH   1  23
HETATM   23  C   UNL     1      35.305  51.286  40.595  1.00  0.00     0.128 C 
HETATM   24  C   UNL     1      34.775  52.389  39.694  1.00  0.00     0.027 C 
ENDBRANCH   1  23
BRANCH   2  25
HETATM   25  S   UNL     1      37.793  52.423  42.322  1.00  0.00    -0.081 SA
BRANCH  25  26
HETATM   26  C   UNL     1      37.904  54.234  42.366  1.00  0.00     0.185 C 
BRANCH  26  27
HETATM   27  C   UNL     1      38.441  54.728  43.701  1.00  0.00     0.231 C 
HETATM   28  N   UNL     1      38.712  53.698  44.587  1.00  0.00    -0.327 N 
HETATM   29  H   UNL     1      38.758  52.764  44.180  1.00  0.00     0.169 HD
HETATM   30  O   UNL     1      38.589  55.928  43.919  1.00  0.00    -0.272 OA
BRANCH  28  31
HETATM   31  C   UNL     1      39.071  53.790  45.944  1.00  0.00     0.034 A 
HETATM   32  C   UNL     1      40.443  53.800  46.236  1.00  0.00     0.032 A 
HETATM   33  C   UNL     1      40.893  53.848  47.559  1.00  0.00     0.039 A 
HETATM   34  C   UNL     1      39.965  53.892  48.590  1.00  0.00     0.065 A 
HETATM   35  C   UNL     1      38.602  53.893  48.319  1.00  0.00     0.039 A 
HETATM   36  C   UNL     1      38.155  53.837  46.996  1.00  0.00     0.032 A 
BRANCH  34  37
HETATM   37  O   UNL     1      40.354  53.930  49.897  1.00  0.00    -0.361 OA
HETATM   38  H   UNL     1      39.616  53.629  50.450  1.00  0.00     0.217 HD
ENDBRANCH  34  37
ENDBRANCH  28  31
ENDBRANCH  26  27
ENDBRANCH  25  26
ENDBRANCH   2  25
TORSDOF 9
ENDMDL
MODEL 7
REMARK VINA RESULT:      -8.0      3.292      4.905
REMARK  9 active torsions:
REMARK  status: ('A' for Active; 'I' for Inactive)
REMARK    1  A    between atoms: C_2  and  N_3 
REMARK    2  A    between atoms: C_4  and  S_5 
REMARK    3  A    between atoms: S_5  and  C_6 
REMARK    4  A    between atoms: C_6  and  C_7 
REMARK       I    between atoms: C_7  and  N_8 
REMARK    5  A    between atoms: N_8  and  C_9 
REMARK    6  A    between atoms: C_12  and  O_13 
REMARK    7  A    between atoms: C_19  and  C_20 
REMARK    8  A    between atoms: C_23  and  S_24 
REMARK    9  A    between atoms: S_24  and  N_25 
ROOT
HETATM    1  N   UNL     1      23.122  46.881  48.979  1.00  0.00    -0.308 N 
HETATM    2  C   UNL     1      24.347  46.724  49.572  1.00  0.00     0.192 A 
HETATM    3  N   UNL     1      24.722  47.851  50.129  1.00  0.00    -0.122 NA
HETATM    4  N   UNL     1      23.714  48.758  49.949  1.00  0.00    -0.128 NA
HETATM    5  C   UNL     1      22.735  48.174  49.277  1.00  0.00     0.164 A 
ENDROOT
BRANCH   5   6
HETATM    6  C   UNL     1      21.498  48.845  48.878  1.00  0.00     0.012 A 
HETATM    7  C   UNL     1      21.559  49.876  47.927  1.00  0.00     0.017 A 
HETATM    8  C   UNL     1      20.405  50.555  47.533  1.00  0.00     0.026 A 
HETATM    9  C   UNL     1      19.179  50.213  48.108  1.00  0.00     0.074 A 
HETATM   10  C   UNL     1      19.100  49.207  49.072  1.00  0.00     0.026 A 
HETATM   11  C   UNL     1      20.262  48.530  49.457  1.00  0.00     0.017 A 
BRANCH   9  12
HETATM   12  S   UNL     1      17.720  51.084  47.618  1.00  0.00     0.243 S 
HETATM   13  O   UNL     1      16.758  50.987  48.690  1.00  0.00    -0.206 OA
HETATM   14  O   UNL     1      18.092  52.362  47.052  1.00  0.00    -0.206 OA
BRANCH  12  15
HETATM   15  N   UNL     1      17.120  50.165  46.300  1.00  0.00    -0.203 NA
HETATM   16  C   UNL     1      17.732  50.452  44.964  1.00  0.00     0.135 C 
HETATM   17  C   UNL     1      17.129  51.700  44.280  1.00  0.00     0.250 C 
HETATM   18  N   UNL     1      15.603  51.636  44.257  1.00  0.00    -0.073 N 
HETATM   19  H   UNL     1      15.337  50.836  43.668  1.00  0.00     0.279 HD
HETATM   20  C   UNL     1      15.007  52.865  43.630  1.00  0.00     0.269 C 
HETATM   21  C   UNL     1      15.028  51.386  45.651  1.00  0.00     0.250 C 
HETATM   22  C   UNL     1      15.627  50.097  46.233  1.00  0.00     0.135 C 
ENDBRANCH  12  15
ENDBRANCH   9  12
ENDBRANCH   5   6
BRANCH   1  23
HETATM   23  C   UNL     1      22.461  45.949  48.085  1.00  0.00     0.128 C 
HETATM   24  C   UNL     1      21.479  45.021  48.781  1.00  0.00     0.027 C 
ENDBRANCH   1  23
BRANCH   2  25
HETATM   25  S   UNL     1      25.246  45.249  49.576  1.00  0.00    -0.081 SA
BRANCH  25  26
HETATM   26  C   UNL     1      25.289  44.851  51.345  1.00  0.00     0.185 C 
BRANCH  26  27
HETATM   27  C   UNL     1      26.713  44.608  51.828  1.00  0.00     0.231 C 
HETATM   28  N   UNL     1      26.807  44.529  53.207  1.00  0.00    -0.327 N 
HETATM   29  H   UNL     1      25.927  44.396  53.705  1.00  0.00     0.169 HD
HETATM   30  O   UNL     1      27.643  44.511  51.031  1.00  0.00    -0.272 OA
BRANCH  28  31
HETATM   31  C   UNL     1      27.969  44.463  53.997  1.00  0.00     0.034 A 
HETATM   32  C   UNL     1      28.692  43.261  53.961  1.00  0.00     0.032 A 
HETATM   33  C   UNL     1      29.838  43.091  54.744  1.00  0.00     0.039 A 
HETATM   34  C   UNL     1      30.261  44.130  55.562  1.00  0.00     0.065 A 
HETATM   35  C   UNL     1      29.563  45.331  55.603  1.00  0.00     0.039 A 
HETATM   36  C   UNL     1      28.413  45.496  54.824  1.00  0.00     0.032 A 
BRANCH  34  37
HETATM   37  O   UNL     1      31.366  44.009  56.352  1.00  0.00    -0.361 OA
HETATM   38  H   UNL     1      31.371  44.737  56.994  1.00  0.00     0.217 HD
ENDBRANCH  34  37
ENDBRANCH  28  31
ENDBRANCH  26  27
ENDBRANCH  25  26
ENDBRANCH   2  25
TORSDOF 9
ENDMDL
MODEL 8
REMARK VINA RESULT:      -8.0     13.293     14.675
REMARK  9 active torsions:
REMARK  status: ('A' for Active; 'I' for Inactive)
REMARK    1  A    between atoms: C_2  and  N_3 
REMARK    2  A    between atoms: C_4  and  S_5 
REMARK    3  A    between atoms: S_5  and  C_6 
REMARK    4  A    between atoms: C_6  and  C_7 
REMARK       I    between atoms: C_7  and  N_8 
REMARK    5  A    between atoms: N_8  and  C_9 
REMARK    6  A    between atoms: C_12  and  O_13 
REMARK    7  A    between atoms: C_19  and  C_20 
REMARK    8  A    between atoms: C_23  and  S_24 
REMARK    9  A    between atoms: S_24  and  N_25 
ROOT
HETATM    1  N   UNL     1      35.188  51.156  42.240  1.00  0.00    -0.308 N 
HETATM    2  C   UNL     1      36.124  51.827  42.983  1.00  0.00     0.192 A 
HETATM    3  N   UNL     1      35.539  52.468  43.966  1.00  0.00    -0.122 NA
HETATM    4  N   UNL     1      34.202  52.182  43.909  1.00  0.00    -0.128 NA
HETATM    5  C   UNL     1      33.985  51.373  42.885  1.00  0.00     0.164 A 
ENDROOT
BRANCH   5   6
HETATM    6  C   UNL     1      32.666  50.874  42.498  1.00  0.00     0.012 A 
HETATM    7  C   UNL     1      31.784  51.733  41.825  1.00  0.00     0.017 A 
HETATM    8  C   UNL     1      30.508  51.302  41.454  1.00  0.00     0.026 A 
HETATM    9  C   UNL     1      30.104  50.004  41.774  1.00  0.00     0.074 A 
HETATM   10  C   UNL     1      30.958  49.141  42.463  1.00  0.00     0.026 A 
HETATM   11  C   UNL     1      32.235  49.581  42.826  1.00  0.00     0.017 A 
BRANCH   9  12
HETATM   12  S   UNL     1      28.484  49.464  41.317  1.00  0.00     0.243 S 
HETATM   13  O   UNL     1      28.457  48.022  41.378  1.00  0.00    -0.206 OA
HETATM   14  O   UNL     1      27.498  50.266  42.009  1.00  0.00    -0.206 OA
BRANCH  12  15
HETATM   15  N   UNL     1      28.354  49.915  39.668  1.00  0.00    -0.203 NA
HETATM   16  C   UNL     1      26.986  50.300  39.196  1.00  0.00     0.135 C 
HETATM   17  C   UNL     1      26.098  49.081  38.862  1.00  0.00     0.250 C 
HETATM   18  N   UNL     1      26.818  48.109  37.930  1.00  0.00    -0.073 N 
HETATM   19  H   UNL     1      26.975  48.596  37.038  1.00  0.00     0.279 HD
HETATM   20  C   UNL     1      25.976  46.900  37.632  1.00  0.00     0.269 C 
HETATM   21  C   UNL     1      28.188  47.713  38.480  1.00  0.00     0.250 C 
HETATM   22  C   UNL     1      29.031  48.974  38.722  1.00  0.00     0.135 C 
ENDBRANCH  12  15
ENDBRANCH   9  12
ENDBRANCH   5   6
BRANCH   1  23
HETATM   23  C   UNL     1      35.394  50.510  40.958  1.00  0.00     0.128 C 
HETATM   24  C   UNL     1      35.155  51.420  39.764  1.00  0.00     0.027 C 
ENDBRANCH   1  23
BRANCH   2  25
HETATM   25  S   UNL     1      37.820  51.812  42.656  1.00  0.00    -0.081 SA
BRANCH  25  26
HETATM   26  C   UNL     1      38.506  51.446  44.295  1.00  0.00     0.185 C 
BRANCH  26  27
HETATM   27  C   UNL     1      38.558  52.691  45.169  1.00  0.00     0.231 C 
HETATM   28  N   UNL     1      38.850  53.839  44.452  1.00  0.00    -0.327 N 
HETATM   29  H   UNL     1      38.753  53.767  43.440  1.00  0.00     0.169 HD
HETATM   30  O   UNL     1      38.364  52.623  46.380  1.00  0.00    -0.272 OA
BRANCH  28  31
HETATM   31  C   UNL     1      39.123  55.128  44.947  1.00  0.00     0.034 A 
HETATM   32  C   UNL     1      38.309  56.171  44.481  1.00  0.00     0.032 A 
HETATM   33  C   UNL     1      38.533  57.490  44.887  1.00  0.00     0.039 A 
HETATM   34  C   UNL     1      39.572  57.762  45.767  1.00  0.00     0.065 A 
HETATM   35  C   UNL     1      40.382  56.740  46.247  1.00  0.00     0.039 A 
HETATM   36  C   UNL     1      40.161  55.423  45.833  1.00  0.00     0.032 A 
BRANCH  34  37
HETATM   37  O   UNL     1      39.836  59.033  46.184  1.00  0.00    -0.361 OA
HETATM   38  H   UNL     1      39.172  59.630  45.805  1.00  0.00     0.217 HD
ENDBRANCH  34  37
ENDBRANCH  28  31
ENDBRANCH  26  27
ENDBRANCH  25  26
ENDBRANCH   2  25
TORSDOF 9
ENDMDL
MODEL 9
REMARK VINA RESULT:      -7.9      2.738      4.915
REMARK  9 active torsions:
REMARK  status: ('A' for Active; 'I' for Inactive)
REMARK    1  A    between atoms: C_2  and  N_3 
REMARK    2  A    between atoms: C_4  and  S_5 
REMARK    3  A    between atoms: S_5  and  C_6 
REMARK    4  A    between atoms: C_6  and  C_7 
REMARK       I    between atoms: C_7  and  N_8 
REMARK    5  A    between atoms: N_8  and  C_9 
REMARK    6  A    between atoms: C_12  and  O_13 
REMARK    7  A    between atoms: C_19  and  C_20 
REMARK    8  A    between atoms: C_23  and  S_24 
REMARK    9  A    between atoms: S_24  and  N_25 
ROOT
HETATM    1  N   UNL     1      26.774  45.094  52.504  1.00  0.00    -0.308 N 
HETATM    2  C   UNL     1      27.814  44.203  52.546  1.00  0.00     0.192 A 
HETATM    3  N   UNL     1      28.099  43.792  51.334  1.00  0.00    -0.122 NA
HETATM    4  N   UNL     1      27.272  44.452  50.466  1.00  0.00    -0.128 NA
HETATM    5  C   UNL     1      26.486  45.257  51.162  1.00  0.00     0.164 A 
ENDROOT
BRANCH   5   6
HETATM    6  C   UNL     1      25.452  46.107  50.572  1.00  0.00     0.012 A 
HETATM    7  C   UNL     1      24.263  45.516  50.117  1.00  0.00     0.017 A 
HETATM    8  C   UNL     1      23.259  46.289  49.530  1.00  0.00     0.026 A 
HETATM    9  C   UNL     1      23.451  47.664  49.381  1.00  0.00     0.074 A 
HETATM   10  C   UNL     1      24.636  48.268  49.806  1.00  0.00     0.026 A 
HETATM   11  C   UNL     1      25.634  47.485  50.396  1.00  0.00     0.017 A 
BRANCH   9  12
HETATM   12  S   UNL     1      22.185  48.639  48.625  1.00  0.00     0.243 S 
HETATM   13  O   UNL     1      21.970  49.809  49.442  1.00  0.00    -0.206 OA
HETATM   14  O   UNL     1      22.448  48.748  47.206  1.00  0.00    -0.206 OA
BRANCH  12  15
HETATM   15  N   UNL     1      20.785  47.656  48.749  1.00  0.00    -0.203 NA
HETATM   16  C   UNL     1      20.292  47.047  47.473  1.00  0.00     0.135 C 
HETATM   17  C   UNL     1      19.448  48.024  46.625  1.00  0.00     0.250 C 
HETATM   18  N   UNL     1      18.348  48.675  47.461  1.00  0.00    -0.073 N 
HETATM   19  H   UNL     1      17.704  47.930  47.756  1.00  0.00     0.279 HD
HETATM   20  C   UNL     1      17.547  49.658  46.654  1.00  0.00     0.269 C 
HETATM   21  C   UNL     1      18.909  49.320  48.727  1.00  0.00     0.250 C 
HETATM   22  C   UNL     1      19.677  48.270  49.544  1.00  0.00     0.135 C 
ENDBRANCH  12  15
ENDBRANCH   9  12
ENDBRANCH   5   6
BRANCH   1  23
HETATM   23  C   UNL     1      26.025  45.612  53.633  1.00  0.00     0.128 C 
HETATM   24  C   UNL     1      26.426  47.019  54.043  1.00  0.00     0.027 C 
ENDBRANCH   1  23
BRANCH   2  25
HETATM   25  S   UNL     1      28.619  43.713  53.993  1.00  0.00    -0.081 SA
BRANCH  25  26
HETATM   26  C   UNL     1      29.756  42.445  53.368  1.00  0.00     0.185 C 
BRANCH  26  27
HETATM   27  C   UNL     1      29.006  41.207  52.894  1.00  0.00     0.231 C 
HETATM   28  N   UNL     1      29.078  41.027  51.523  1.00  0.00    -0.327 N 
HETATM   29  H   UNL     1      29.795  41.569  51.042  1.00  0.00     0.169 HD
HETATM   30  O   UNL     1      28.409  40.487  53.690  1.00  0.00    -0.272 OA
BRANCH  28  31
HETATM   31  C   UNL     1      28.389  40.089  50.732  1.00  0.00     0.034 A 
HETATM   32  C   UNL     1      27.080  40.419  50.354  1.00  0.00     0.032 A 
HETATM   33  C   UNL     1      26.306  39.530  49.602  1.00  0.00     0.039 A 
HETATM   34  C   UNL     1      26.849  38.309  49.225  1.00  0.00     0.065 A 
HETATM   35  C   UNL     1      28.148  37.969  49.583  1.00  0.00     0.039 A 
HETATM   36  C   UNL     1      28.917  38.857  50.341  1.00  0.00     0.032 A 
BRANCH  34  37
HETATM   37  O   UNL     1      26.131  37.405  48.500  1.00  0.00    -0.361 OA
HETATM   38  H   UNL     1      25.639  36.835  49.113  1.00  0.00     0.217 HD
ENDBRANCH  34  37
ENDBRANCH  28  31
ENDBRANCH  26  27
ENDBRANCH  25  26
ENDBRANCH   2  25
TORSDOF 9
ENDMDL
MODEL 10
REMARK VINA RESULT:      -7.9      3.018      5.279
REMARK  9 active torsions:
REMARK  status: ('A' for Active; 'I' for Inactive)
REMARK    1  A    between atoms: C_2  and  N_3 
REMARK    2  A    between atoms: C_4  and  S_5 
REMARK    3  A    between atoms: S_5  and  C_6 
REMARK    4  A    between atoms: C_6  and  C_7 
REMARK       I    between atoms: C_7  and  N_8 
REMARK    5  A    between atoms: N_8  and  C_9 
REMARK    6  A    between atoms: C_12  and  O_13 
REMARK    7  A    between atoms: C_19  and  C_20 
REMARK    8  A    between atoms: C_23  and  S_24 
REMARK    9  A    between atoms: S_24  and  N_25 
ROOT
HETATM    1  N   UNL     1      25.664  44.903  51.482  1.00  0.00    -0.308 N 
HETATM    2  C   UNL     1      26.580  43.885  51.458  1.00  0.00     0.192 A 
HETATM    3  N   UNL     1      26.747  43.461  50.229  1.00  0.00    -0.122 NA
HETATM    4  N   UNL     1      25.971  44.239  49.413  1.00  0.00    -0.128 NA
HETATM    5  C   UNL     1      25.332  45.127  50.158  1.00  0.00     0.164 A 
ENDROOT
BRANCH   5   6
HETATM    6  C   UNL     1      24.390  46.114  49.633  1.00  0.00     0.012 A 
HETATM    7  C   UNL     1      24.644  47.478  49.845  1.00  0.00     0.017 A 
HETATM    8  C   UNL     1      23.760  48.452  49.376  1.00  0.00     0.026 A 
HETATM    9  C   UNL     1      22.601  48.059  48.705  1.00  0.00     0.074 A 
HETATM   10  C   UNL     1      22.317  46.706  48.503  1.00  0.00     0.026 A 
HETATM   11  C   UNL     1      23.212  45.739  48.973  1.00  0.00     0.017 A 
BRANCH   9  12
HETATM   12  S   UNL     1      21.474  49.292  48.125  1.00  0.00     0.243 S 
HETATM   13  O   UNL     1      22.243  50.438  47.700  1.00  0.00    -0.206 OA
HETATM   14  O   UNL     1      20.495  48.676  47.256  1.00  0.00    -0.206 OA
BRANCH  12  15
HETATM   15  N   UNL     1      20.606  49.745  49.533  1.00  0.00    -0.203 NA
HETATM   16  C   UNL     1      19.459  48.861  49.912  1.00  0.00     0.135 C 
HETATM   17  C   UNL     1      18.175  49.161  49.107  1.00  0.00     0.250 C 
HETATM   18  N   UNL     1      17.839  50.650  49.133  1.00  0.00    -0.073 N 
HETATM   19  H   UNL     1      17.624  50.900  50.107  1.00  0.00     0.279 HD
HETATM   20  C   UNL     1      16.613  50.956  48.319  1.00  0.00     0.269 C 
HETATM   21  C   UNL     1      19.027  51.504  48.695  1.00  0.00     0.250 C 
HETATM   22  C   UNL     1      20.241  51.195  49.585  1.00  0.00     0.135 C 
ENDBRANCH  12  15
ENDBRANCH   9  12
ENDBRANCH   5   6
BRANCH   1  23
HETATM   23  C   UNL     1      25.048  45.494  52.654  1.00  0.00     0.128 C 
HETATM   24  C   UNL     1      25.790  46.704  53.196  1.00  0.00     0.027 C 
ENDBRANCH   1  23
BRANCH   2  25
HETATM   25  S   UNL     1      27.386  43.268  52.856  1.00  0.00    -0.081 SA
BRANCH  25  26
HETATM   26  C   UNL     1      28.924  42.627  52.139  1.00  0.00     0.185 C 
BRANCH  26  27
HETATM   27  C   UNL     1      28.803  41.151  51.785  1.00  0.00     0.231 C 
HETATM   28  N   UNL     1      28.546  40.940  50.441  1.00  0.00    -0.327 N 
HETATM   29  H   UNL     1      28.709  41.738  49.827  1.00  0.00     0.169 HD
HETATM   30  O   UNL     1      28.920  40.283  52.646  1.00  0.00    -0.272 OA
BRANCH  28  31
HETATM   31  C   UNL     1      28.229  39.730  49.796  1.00  0.00     0.034 A 
HETATM   32  C   UNL     1      29.255  39.115  49.063  1.00  0.00     0.032 A 
HETATM   33  C   UNL     1      29.019  37.932  48.357  1.00  0.00     0.039 A 
HETATM   34  C   UNL     1      27.754  37.362  48.389  1.00  0.00     0.065 A 
HETATM   35  C   UNL     1      26.728  37.953  49.117  1.00  0.00     0.039 A 
HETATM   36  C   UNL     1      26.964  39.140  49.817  1.00  0.00     0.032 A 
BRANCH  34  37
HETATM   37  O   UNL     1      27.473  36.215  47.709  1.00  0.00    -0.361 OA
HETATM   38  H   UNL     1      27.608  35.459  48.303  1.00  0.00     0.217 HD
ENDBRANCH  34  37
ENDBRANCH  28  31
ENDBRANCH  26  27
ENDBRANCH  25  26
ENDBRANCH   2  25
TORSDOF 9
ENDMDL
