MODEL 1
REMARK VINA RESULT:     -10.1      0.000      0.000
REMARK  5 active torsions:
REMARK  status: ('A' for Active; 'I' for Inactive)
REMARK    1  A    between atoms: C_2  and  O_3 
REMARK    2  A    between atoms: O_3  and  C_4 
REMARK    3  A    between atoms: C_5  and  C_6 
REMARK    4  A    between atoms: C_7  and  C_8 
REMARK       I    between atoms: C_8  and  N_9 
REMARK    5  A    between atoms: N_9  and  C_10 
ROOT
HETATM    1  C   UNL     1      26.214  45.240  52.557  1.00  0.00     0.042 C 
HETATM    2  C   UNL     1      26.440  45.792  53.764  1.00  0.00     0.113 C 
HETATM    3  C   UNL     1      25.968  47.080  54.124  1.00  0.00     0.105 C 
HETATM    4  N   UNL     1      25.619  48.128  54.480  1.00  0.00    -0.191 NA
ENDROOT
BRANCH   2   5
HETATM    5  C   UNL     1      27.296  44.995  54.711  1.00  0.00     0.266 C 
HETATM    6  N   UNL     1      28.568  45.493  54.931  1.00  0.00    -0.321 N 
HETATM    7  H   UNL     1      28.726  46.477  54.748  1.00  0.00     0.169 HD
HETATM    8  O   UNL     1      26.834  43.998  55.261  1.00  0.00    -0.267 OA
BRANCH   6   9
HETATM    9  C   UNL     1      29.580  44.849  55.691  1.00  0.00     0.047 A 
HETATM   10  C   UNL     1      29.897  45.209  57.021  1.00  0.00    -0.035 A 
HETATM   11  C   UNL     1      29.134  46.220  57.837  1.00  0.00     0.050 C 
HETATM   12  C   UNL     1      30.960  44.558  57.675  1.00  0.00     0.009 A 
HETATM   13  C   UNL     1      31.654  43.522  57.064  1.00  0.00     0.001 A 
HETATM   14  C   UNL     1      31.290  43.110  55.787  1.00  0.00     0.009 A 
HETATM   15  C   UNL     1      30.255  43.756  55.092  1.00  0.00    -0.035 A 
HETATM   16  C   UNL     1      29.934  43.274  53.700  1.00  0.00     0.050 C 
ENDBRANCH   6   9
ENDBRANCH   2   5
BRANCH   1  17
HETATM   17  C   UNL     1      25.471  45.843  51.441  1.00  0.00     0.002 A 
HETATM   18  C   UNL     1      24.373  45.161  50.865  1.00  0.00     0.079 A 
HETATM   19  C   UNL     1      23.559  45.766  49.904  1.00  0.00     0.047 A 
HETATM   20  C   UNL     1      23.892  47.039  49.488  1.00  0.00    -0.020 A 
HETATM   21  C   UNL     1      24.992  47.696  50.018  1.00  0.00     0.076 A 
HETATM   22  C   UNL     1      23.176  47.946  48.563  1.00  0.00     0.073 C 
HETATM   23  C   UNL     1      25.789  47.133  50.996  1.00  0.00     0.051 A 
HETATM   24  O   UNL     1      25.167  48.960  49.516  1.00  0.00    -0.345 OA
HETATM   25  C   UNL     1      24.268  49.011  48.376  1.00  0.00     0.129 C 
HETATM   26  C   UNL     1      23.698  50.415  48.257  1.00  0.00     0.040 C 
BRANCH  18  27
HETATM   27  O   UNL     1      24.025  43.903  51.291  1.00  0.00    -0.351 OA
BRANCH  27  28
HETATM   28  C   UNL     1      24.227  42.937  50.250  1.00  0.00     0.171 C 
HETATM   29  C   UNL     1      25.458  42.110  50.578  1.00  0.00     0.034 C 
ENDBRANCH  27  28
ENDBRANCH  18  27
ENDBRANCH   1  17
TORSDOF 5
ENDMDL
MODEL 2
REMARK VINA RESULT:     -10.0      0.179      1.656
REMARK  5 active torsions:
REMARK  status: ('A' for Active; 'I' for Inactive)
REMARK    1  A    between atoms: C_2  and  O_3 
REMARK    2  A    between atoms: O_3  and  C_4 
REMARK    3  A    between atoms: C_5  and  C_6 
REMARK    4  A    between atoms: C_7  and  C_8 
REMARK       I    between atoms: C_8  and  N_9 
REMARK    5  A    between atoms: N_9  and  C_10 
ROOT
HETATM    1  C   UNL     1      26.234  45.206  52.426  1.00  0.00     0.042 C 
HETATM    2  C   UNL     1      26.452  45.714  53.654  1.00  0.00     0.113 C 
HETATM    3  C   UNL     1      25.969  46.983  54.062  1.00  0.00     0.105 C 
HETATM    4  N   UNL     1      25.610  48.013  54.457  1.00  0.00    -0.191 NA
ENDROOT
BRANCH   2   5
HETATM    5  C   UNL     1      27.312  44.887  54.572  1.00  0.00     0.266 C 
HETATM    6  N   UNL     1      28.544  45.432  54.888  1.00  0.00    -0.321 N 
HETATM    7  H   UNL     1      28.654  46.434  54.792  1.00  0.00     0.169 HD
HETATM    8  O   UNL     1      26.884  43.826  55.019  1.00  0.00    -0.267 OA
BRANCH   6   9
HETATM    9  C   UNL     1      29.559  44.781  55.640  1.00  0.00     0.047 A 
HETATM   10  C   UNL     1      30.373  43.753  55.114  1.00  0.00    -0.035 A 
HETATM   11  C   UNL     1      30.361  43.305  53.675  1.00  0.00     0.050 C 
HETATM   12  C   UNL     1      31.310  43.120  55.952  1.00  0.00     0.009 A 
HETATM   13  C   UNL     1      31.497  43.536  57.265  1.00  0.00     0.001 A 
HETATM   14  C   UNL     1      30.755  44.602  57.760  1.00  0.00     0.009 A 
HETATM   15  C   UNL     1      29.790  45.238  56.962  1.00  0.00    -0.035 A 
HETATM   16  C   UNL     1      29.003  46.368  57.575  1.00  0.00     0.050 C 
ENDBRANCH   6   9
ENDBRANCH   2   5
BRANCH   1  17
HETATM   17  C   UNL     1      25.489  45.846  51.332  1.00  0.00     0.002 A 
HETATM   18  C   UNL     1      24.358  45.207  50.771  1.00  0.00     0.079 A 
HETATM   19  C   UNL     1      23.545  45.849  49.833  1.00  0.00     0.047 A 
HETATM   20  C   UNL     1      23.912  47.116  49.424  1.00  0.00    -0.020 A 
HETATM   21  C   UNL     1      25.043  47.730  49.938  1.00  0.00     0.076 A 
HETATM   22  C   UNL     1      23.208  48.056  48.524  1.00  0.00     0.073 C 
HETATM   23  C   UNL     1      25.840  47.130  50.894  1.00  0.00     0.051 A 
HETATM   24  O   UNL     1      25.250  48.994  49.447  1.00  0.00    -0.345 OA
HETATM   25  C   UNL     1      24.330  49.086  48.326  1.00  0.00     0.129 C 
HETATM   26  C   UNL     1      23.805  50.509  48.234  1.00  0.00     0.040 C 
BRANCH  18  27
HETATM   27  O   UNL     1      23.978  43.956  51.190  1.00  0.00    -0.351 OA
BRANCH  27  28
HETATM   28  C   UNL     1      24.102  43.001  50.127  1.00  0.00     0.171 C 
HETATM   29  C   UNL     1      25.302  42.112  50.403  1.00  0.00     0.034 C 
ENDBRANCH  27  28
ENDBRANCH  18  27
ENDBRANCH   1  17
TORSDOF 5
ENDMDL
MODEL 3
REMARK VINA RESULT:      -9.5      2.212      3.961
REMARK  5 active torsions:
REMARK  status: ('A' for Active; 'I' for Inactive)
REMARK    1  A    between atoms: C_2  and  O_3 
REMARK    2  A    between atoms: O_3  and  C_4 
REMARK    3  A    between atoms: C_5  and  C_6 
REMARK    4  A    between atoms: C_7  and  C_8 
REMARK       I    between atoms: C_8  and  N_9 
REMARK    5  A    between atoms: N_9  and  C_10 
ROOT
HETATM    1  C   UNL     1      25.100  45.017  51.883  1.00  0.00     0.042 C 
HETATM    2  C   UNL     1      26.254  44.328  51.815  1.00  0.00     0.113 C 
HETATM    3  C   UNL     1      26.758  43.783  50.607  1.00  0.00     0.105 C 
HETATM    4  N   UNL     1      27.222  43.306  49.656  1.00  0.00    -0.191 NA
ENDROOT
BRANCH   2   5
HETATM    5  C   UNL     1      26.968  44.093  53.120  1.00  0.00     0.266 C 
HETATM    6  N   UNL     1      28.192  44.726  53.254  1.00  0.00    -0.321 N 
HETATM    7  H   UNL     1      28.368  45.537  52.673  1.00  0.00     0.169 HD
HETATM    8  O   UNL     1      26.437  43.412  53.993  1.00  0.00    -0.267 OA
BRANCH   6   9
HETATM    9  C   UNL     1      29.085  44.557  54.344  1.00  0.00     0.047 A 
HETATM   10  C   UNL     1      29.991  43.476  54.443  1.00  0.00    -0.035 A 
HETATM   11  C   UNL     1      30.215  42.448  53.364  1.00  0.00     0.050 C 
HETATM   12  C   UNL     1      30.795  43.354  55.592  1.00  0.00     0.009 A 
HETATM   13  C   UNL     1      30.764  44.314  56.596  1.00  0.00     0.001 A 
HETATM   14  C   UNL     1      29.934  45.421  56.464  1.00  0.00     0.009 A 
HETATM   15  C   UNL     1      29.096  45.561  55.345  1.00  0.00    -0.035 A 
HETATM   16  C   UNL     1      28.202  46.773  55.282  1.00  0.00     0.050 C 
ENDBRANCH   6   9
ENDBRANCH   2   5
BRANCH   1  17
HETATM   17  C   UNL     1      24.190  45.318  50.768  1.00  0.00     0.002 A 
HETATM   18  C   UNL     1      24.226  46.586  50.142  1.00  0.00     0.079 A 
HETATM   19  C   UNL     1      23.480  46.855  48.991  1.00  0.00     0.047 A 
HETATM   20  C   UNL     1      22.656  45.857  48.511  1.00  0.00    -0.020 A 
HETATM   21  C   UNL     1      22.585  44.626  49.145  1.00  0.00     0.076 A 
HETATM   22  C   UNL     1      21.830  45.826  47.283  1.00  0.00     0.073 C 
HETATM   23  C   UNL     1      23.341  44.325  50.262  1.00  0.00     0.051 A 
HETATM   24  O   UNL     1      21.741  43.741  48.526  1.00  0.00    -0.345 OA
HETATM   25  C   UNL     1      21.008  44.562  47.578  1.00  0.00     0.129 C 
HETATM   26  C   UNL     1      20.728  43.745  46.328  1.00  0.00     0.040 C 
BRANCH  18  27
HETATM   27  O   UNL     1      25.059  47.575  50.603  1.00  0.00    -0.351 OA
BRANCH  27  28
HETATM   28  C   UNL     1      25.573  48.360  49.517  1.00  0.00     0.171 C 
HETATM   29  C   UNL     1      27.079  48.183  49.451  1.00  0.00     0.034 C 
ENDBRANCH  27  28
ENDBRANCH  18  27
ENDBRANCH   1  17
TORSDOF 5
ENDMDL
MODEL 4
REMARK VINA RESULT:      -9.4      2.526      8.971
REMARK  5 active torsions:
REMARK  status: ('A' for Active; 'I' for Inactive)
REMARK    1  A    between atoms: C_2  and  O_3 
REMARK    2  A    between atoms: O_3  and  C_4 
REMARK    3  A    between atoms: C_5  and  C_6 
REMARK    4  A    between atoms: C_7  and  C_8 
REMARK       I    between atoms: C_8  and  N_9 
REMARK    5  A    between atoms: N_9  and  C_10 
ROOT
HETATM    1  C   UNL     1      24.650  47.242  50.788  1.00  0.00     0.042 C 
HETATM    2  C   UNL     1      25.101  47.927  49.721  1.00  0.00     0.113 C 
HETATM    3  C   UNL     1      26.470  47.974  49.356  1.00  0.00     0.105 C 
HETATM    4  N   UNL     1      27.573  48.060  49.006  1.00  0.00    -0.191 NA
ENDROOT
BRANCH   2   5
HETATM    5  C   UNL     1      24.074  48.719  48.956  1.00  0.00     0.266 C 
HETATM    6  N   UNL     1      22.781  48.651  49.445  1.00  0.00    -0.321 N 
HETATM    7  H   UNL     1      22.659  48.393  50.417  1.00  0.00     0.169 HD
HETATM    8  O   UNL     1      24.420  49.398  47.993  1.00  0.00    -0.267 OA
BRANCH   6   9
HETATM    9  C   UNL     1      21.640  49.221  48.822  1.00  0.00     0.047 A 
HETATM   10  C   UNL     1      20.949  48.601  47.755  1.00  0.00    -0.035 A 
HETATM   11  C   UNL     1      21.249  47.221  47.231  1.00  0.00     0.050 C 
HETATM   12  C   UNL     1      19.866  49.271  47.156  1.00  0.00     0.009 A 
HETATM   13  C   UNL     1      19.420  50.495  47.639  1.00  0.00     0.001 A 
HETATM   14  C   UNL     1      20.046  51.068  48.739  1.00  0.00     0.009 A 
HETATM   15  C   UNL     1      21.149  50.443  49.345  1.00  0.00    -0.035 A 
HETATM   16  C   UNL     1      21.794  51.137  50.518  1.00  0.00     0.050 C 
ENDBRANCH   6   9
ENDBRANCH   2   5
BRANCH   1  17
HETATM   17  C   UNL     1      25.458  46.452  51.729  1.00  0.00     0.002 A 
HETATM   18  C   UNL     1      25.764  45.100  51.444  1.00  0.00     0.079 A 
HETATM   19  C   UNL     1      26.646  44.366  52.242  1.00  0.00     0.047 A 
HETATM   20  C   UNL     1      27.171  44.986  53.359  1.00  0.00    -0.020 A 
HETATM   21  C   UNL     1      26.841  46.296  53.667  1.00  0.00     0.076 A 
HETATM   22  C   UNL     1      28.180  44.494  54.323  1.00  0.00     0.073 C 
HETATM   23  C   UNL     1      26.001  47.054  52.872  1.00  0.00     0.051 A 
HETATM   24  O   UNL     1      27.467  46.768  54.792  1.00  0.00    -0.345 OA
HETATM   25  C   UNL     1      28.030  45.576  55.402  1.00  0.00     0.129 C 
HETATM   26  C   UNL     1      29.354  45.934  56.057  1.00  0.00     0.040 C 
BRANCH  18  27
HETATM   27  O   UNL     1      25.261  44.486  50.324  1.00  0.00    -0.351 OA
BRANCH  27  28
HETATM   28  C   UNL     1      24.297  43.485  50.678  1.00  0.00     0.171 C 
HETATM   29  C   UNL     1      22.962  43.844  50.051  1.00  0.00     0.034 C 
ENDBRANCH  27  28
ENDBRANCH  18  27
ENDBRANCH   1  17
TORSDOF 5
ENDMDL
MODEL 5
REMARK VINA RESULT:      -9.3      3.318      5.620
REMARK  5 active torsions:
REMARK  status: ('A' for Active; 'I' for Inactive)
REMARK    1  A    between atoms: C_2  and  O_3 
REMARK    2  A    between atoms: O_3  and  C_4 
REMARK    3  A    between atoms: C_5  and  C_6 
REMARK    4  A    between atoms: C_7  and  C_8 
REMARK       I    between atoms: C_8  and  N_9 
REMARK    5  A    between atoms: N_9  and  C_10 
ROOT
HETATM    1  C   UNL     1      23.617  48.441  49.600  1.00  0.00     0.042 C 
HETATM    2  C   UNL     1      24.905  48.664  49.277  1.00  0.00     0.113 C 
HETATM    3  C   UNL     1      25.301  49.586  48.276  1.00  0.00     0.105 C 
HETATM    4  N   UNL     1      25.693  50.318  47.465  1.00  0.00    -0.191 NA
ENDROOT
BRANCH   2   5
HETATM    5  C   UNL     1      25.926  47.821  49.993  1.00  0.00     0.266 C 
HETATM    6  N   UNL     1      25.416  46.795  50.769  1.00  0.00    -0.321 N 
HETATM    7  H   UNL     1      24.486  46.458  50.551  1.00  0.00     0.169 HD
HETATM    8  O   UNL     1      27.123  48.043  49.832  1.00  0.00    -0.267 OA
BRANCH   6   9
HETATM    9  C   UNL     1      26.182  45.951  51.616  1.00  0.00     0.047 A 
HETATM   10  C   UNL     1      26.416  46.231  52.982  1.00  0.00    -0.035 A 
HETATM   11  C   UNL     1      25.791  47.374  53.739  1.00  0.00     0.050 C 
HETATM   12  C   UNL     1      27.242  45.370  53.729  1.00  0.00     0.009 A 
HETATM   13  C   UNL     1      27.772  44.215  53.168  1.00  0.00     0.001 A 
HETATM   14  C   UNL     1      27.476  43.894  51.848  1.00  0.00     0.009 A 
HETATM   15  C   UNL     1      26.680  44.744  51.063  1.00  0.00    -0.035 A 
HETATM   16  C   UNL     1      26.425  44.346  49.632  1.00  0.00     0.050 C 
ENDBRANCH   6   9
ENDBRANCH   2   5
BRANCH   1  17
HETATM   17  C   UNL     1      22.438  49.082  48.999  1.00  0.00     0.002 A 
HETATM   18  C   UNL     1      21.804  48.498  47.878  1.00  0.00     0.079 A 
HETATM   19  C   UNL     1      20.602  49.000  47.373  1.00  0.00     0.047 A 
HETATM   20  C   UNL     1      20.074  50.128  47.972  1.00  0.00    -0.020 A 
HETATM   21  C   UNL     1      20.714  50.730  49.044  1.00  0.00     0.076 A 
HETATM   22  C   UNL     1      18.792  50.820  47.712  1.00  0.00     0.073 C 
HETATM   23  C   UNL     1      21.883  50.228  49.583  1.00  0.00     0.051 A 
HETATM   24  O   UNL     1      20.046  51.821  49.536  1.00  0.00    -0.345 OA
HETATM   25  C   UNL     1      19.041  52.100  48.525  1.00  0.00     0.129 C 
HETATM   26  C   UNL     1      17.782  52.612  49.206  1.00  0.00     0.040 C 
BRANCH  18  27
HETATM   27  O   UNL     1      22.313  47.365  47.293  1.00  0.00    -0.351 OA
BRANCH  27  28
HETATM   28  C   UNL     1      21.376  46.282  47.374  1.00  0.00     0.171 C 
HETATM   29  C   UNL     1      21.816  45.331  48.472  1.00  0.00     0.034 C 
ENDBRANCH  27  28
ENDBRANCH  18  27
ENDBRANCH   1  17
TORSDOF 5
ENDMDL
MODEL 6
REMARK VINA RESULT:      -9.1      1.271      1.666
REMARK  5 active torsions:
REMARK  status: ('A' for Active; 'I' for Inactive)
REMARK    1  A    between atoms: C_2  and  O_3 
REMARK    2  A    between atoms: O_3  and  C_4 
REMARK    3  A    between atoms: C_5  and  C_6 
REMARK    4  A    between atoms: C_7  and  C_8 
REMARK       I    between atoms: C_8  and  N_9 
REMARK    5  A    between atoms: N_9  and  C_10 
ROOT
HETATM    1  C   UNL     1      25.655  45.594  52.437  1.00  0.00     0.042 C 
HETATM    2  C   UNL     1      26.810  44.904  52.406  1.00  0.00     0.113 C 
HETATM    3  C   UNL     1      27.427  44.486  51.200  1.00  0.00     0.105 C 
HETATM    4  N   UNL     1      27.981  44.107  50.253  1.00  0.00    -0.191 NA
ENDROOT
BRANCH   2   5
HETATM    5  C   UNL     1      27.394  44.525  53.740  1.00  0.00     0.266 C 
HETATM    6  N   UNL     1      28.662  45.016  53.999  1.00  0.00    -0.321 N 
HETATM    7  H   UNL     1      28.964  45.834  53.483  1.00  0.00     0.169 HD
HETATM    8  O   UNL     1      26.732  43.856  54.530  1.00  0.00    -0.267 OA
BRANCH   6   9
HETATM    9  C   UNL     1      29.448  44.694  55.137  1.00  0.00     0.047 A 
HETATM   10  C   UNL     1      29.376  45.408  56.355  1.00  0.00    -0.035 A 
HETATM   11  C   UNL     1      28.385  46.505  56.645  1.00  0.00     0.050 C 
HETATM   12  C   UNL     1      30.241  45.059  57.409  1.00  0.00     0.009 A 
HETATM   13  C   UNL     1      31.111  43.981  57.299  1.00  0.00     0.001 A 
HETATM   14  C   UNL     1      31.126  43.226  56.132  1.00  0.00     0.009 A 
HETATM   15  C   UNL     1      30.299  43.564  55.048  1.00  0.00    -0.035 A 
HETATM   16  C   UNL     1      30.388  42.717  53.804  1.00  0.00     0.050 C 
ENDBRANCH   6   9
ENDBRANCH   2   5
BRANCH   1  17
HETATM   17  C   UNL     1      24.857  46.021  51.278  1.00  0.00     0.002 A 
HETATM   18  C   UNL     1      23.955  45.121  50.664  1.00  0.00     0.079 A 
HETATM   19  C   UNL     1      23.079  45.535  49.657  1.00  0.00     0.047 A 
HETATM   20  C   UNL     1      23.159  46.848  49.235  1.00  0.00    -0.020 A 
HETATM   21  C   UNL     1      24.070  47.724  49.804  1.00  0.00     0.076 A 
HETATM   22  C   UNL     1      22.314  47.579  48.264  1.00  0.00     0.073 C 
HETATM   23  C   UNL     1      24.919  47.346  50.827  1.00  0.00     0.051 A 
HETATM   24  O   UNL     1      24.002  48.993  49.290  1.00  0.00    -0.345 OA
HETATM   25  C   UNL     1      23.167  48.847  48.110  1.00  0.00     0.129 C 
HETATM   26  C   UNL     1      22.323  50.099  47.942  1.00  0.00     0.040 C 
BRANCH  18  27
HETATM   27  O   UNL     1      23.857  43.821  51.094  1.00  0.00    -0.351 OA
BRANCH  27  28
HETATM   28  C   UNL     1      24.223  42.908  50.050  1.00  0.00     0.171 C 
HETATM   29  C   UNL     1      25.237  41.918  50.594  1.00  0.00     0.034 C 
ENDBRANCH  27  28
ENDBRANCH  18  27
ENDBRANCH   1  17
TORSDOF 5
ENDMDL
MODEL 7
REMARK VINA RESULT:      -8.7      1.613      2.970
REMARK  5 active torsions:
REMARK  status: ('A' for Active; 'I' for Inactive)
REMARK    1  A    between atoms: C_2  and  O_3 
REMARK    2  A    between atoms: O_3  and  C_4 
REMARK    3  A    between atoms: C_5  and  C_6 
REMARK    4  A    between atoms: C_7  and  C_8 
REMARK       I    between atoms: C_8  and  N_9 
REMARK    5  A    between atoms: N_9  and  C_10 
ROOT
HETATM    1  C   UNL     1      25.784  44.523  52.342  1.00  0.00     0.042 C 
HETATM    2  C   UNL     1      26.101  45.292  53.400  1.00  0.00     0.113 C 
HETATM    3  C   UNL     1      25.664  46.633  53.538  1.00  0.00     0.105 C 
HETATM    4  N   UNL     1      25.348  47.737  53.710  1.00  0.00    -0.191 NA
ENDROOT
BRANCH   2   5
HETATM    5  C   UNL     1      27.021  44.675  54.419  1.00  0.00     0.266 C 
HETATM    6  N   UNL     1      28.272  45.257  54.526  1.00  0.00    -0.321 N 
HETATM    7  H   UNL     1      28.374  46.212  54.205  1.00  0.00     0.169 HD
HETATM    8  O   UNL     1      26.625  43.744  55.116  1.00  0.00    -0.267 OA
BRANCH   6   9
HETATM    9  C   UNL     1      29.334  44.773  55.334  1.00  0.00     0.047 A 
HETATM   10  C   UNL     1      29.610  45.268  56.629  1.00  0.00    -0.035 A 
HETATM   11  C   UNL     1      28.752  46.267  57.362  1.00  0.00     0.050 C 
HETATM   12  C   UNL     1      30.724  44.773  57.332  1.00  0.00     0.009 A 
HETATM   13  C   UNL     1      31.514  43.758  56.805  1.00  0.00     0.001 A 
HETATM   14  C   UNL     1      31.197  43.213  55.568  1.00  0.00     0.009 A 
HETATM   15  C   UNL     1      30.110  43.702  54.824  1.00  0.00    -0.035 A 
HETATM   16  C   UNL     1      29.843  43.081  53.477  1.00  0.00     0.050 C 
ENDBRANCH   6   9
ENDBRANCH   2   5
BRANCH   1  17
HETATM   17  C   UNL     1      24.963  44.915  51.187  1.00  0.00     0.002 A 
HETATM   18  C   UNL     1      25.427  45.902  50.286  1.00  0.00     0.079 A 
HETATM   19  C   UNL     1      24.742  46.193  49.103  1.00  0.00     0.047 A 
HETATM   20  C   UNL     1      23.557  45.525  48.865  1.00  0.00    -0.020 A 
HETATM   21  C   UNL     1      23.075  44.588  49.765  1.00  0.00     0.076 A 
HETATM   22  C   UNL     1      22.676  45.564  47.677  1.00  0.00     0.073 C 
HETATM   23  C   UNL     1      23.755  44.256  50.922  1.00  0.00     0.051 A 
HETATM   24  O   UNL     1      21.903  43.998  49.366  1.00  0.00    -0.345 OA
HETATM   25  C   UNL     1      21.461  44.822  48.254  1.00  0.00     0.129 C 
HETATM   26  C   UNL     1      20.776  43.937  47.225  1.00  0.00     0.040 C 
BRANCH  18  27
HETATM   27  O   UNL     1      26.614  46.554  50.507  1.00  0.00    -0.351 OA
BRANCH  27  28
HETATM   28  C   UNL     1      26.523  47.931  50.115  1.00  0.00     0.171 C 
HETATM   29  C   UNL     1      27.659  48.246  49.158  1.00  0.00     0.034 C 
ENDBRANCH  27  28
ENDBRANCH  18  27
ENDBRANCH   1  17
TORSDOF 5
ENDMDL
MODEL 8
REMARK VINA RESULT:      -8.6      2.492      3.137
REMARK  5 active torsions:
REMARK  status: ('A' for Active; 'I' for Inactive)
REMARK    1  A    between atoms: C_2  and  O_3 
REMARK    2  A    between atoms: O_3  and  C_4 
REMARK    3  A    between atoms: C_5  and  C_6 
REMARK    4  A    between atoms: C_7  and  C_8 
REMARK       I    between atoms: C_8  and  N_9 
REMARK    5  A    between atoms: N_9  and  C_10 
ROOT
HETATM    1  C   UNL     1      25.363  43.712  51.699  1.00  0.00     0.042 C 
HETATM    2  C   UNL     1      25.744  44.778  52.428  1.00  0.00     0.113 C 
HETATM    3  C   UNL     1      25.444  46.113  52.058  1.00  0.00     0.105 C 
HETATM    4  N   UNL     1      25.239  47.228  51.810  1.00  0.00    -0.191 NA
ENDROOT
BRANCH   2   5
HETATM    5  C   UNL     1      26.584  44.488  53.643  1.00  0.00     0.266 C 
HETATM    6  N   UNL     1      27.906  44.889  53.565  1.00  0.00    -0.321 N 
HETATM    7  H   UNL     1      28.137  45.620  52.903  1.00  0.00     0.169 HD
HETATM    8  O   UNL     1      26.072  43.965  54.629  1.00  0.00    -0.267 OA
BRANCH   6   9
HETATM    9  C   UNL     1      28.902  44.618  54.540  1.00  0.00     0.047 A 
HETATM   10  C   UNL     1      29.114  45.430  55.678  1.00  0.00    -0.035 A 
HETATM   11  C   UNL     1      28.245  46.597  56.068  1.00  0.00     0.050 C 
HETATM   12  C   UNL     1      30.168  45.120  56.557  1.00  0.00     0.009 A 
HETATM   13  C   UNL     1      30.957  43.993  56.365  1.00  0.00     0.001 A 
HETATM   14  C   UNL     1      30.699  43.147  55.293  1.00  0.00     0.009 A 
HETATM   15  C   UNL     1      29.675  43.440  54.378  1.00  0.00    -0.035 A 
HETATM   16  C   UNL     1      29.470  42.493  53.223  1.00  0.00     0.050 C 
ENDBRANCH   6   9
ENDBRANCH   2   5
BRANCH   1  17
HETATM   17  C   UNL     1      24.600  43.736  50.442  1.00  0.00     0.002 A 
HETATM   18  C   UNL     1      25.091  43.063  49.299  1.00  0.00     0.079 A 
HETATM   19  C   UNL     1      24.327  42.944  48.135  1.00  0.00     0.047 A 
HETATM   20  C   UNL     1      23.088  43.556  48.114  1.00  0.00    -0.020 A 
HETATM   21  C   UNL     1      22.620  44.252  49.216  1.00  0.00     0.076 A 
HETATM   22  C   UNL     1      22.041  43.525  47.070  1.00  0.00     0.073 C 
HETATM   23  C   UNL     1      23.342  44.351  50.391  1.00  0.00     0.051 A 
HETATM   24  O   UNL     1      21.365  44.776  49.040  1.00  0.00    -0.345 OA
HETATM   25  C   UNL     1      21.126  44.633  47.614  1.00  0.00     0.129 C 
HETATM   26  C   UNL     1      19.653  44.338  47.385  1.00  0.00     0.040 C 
BRANCH  18  27
HETATM   27  O   UNL     1      26.312  42.436  49.322  1.00  0.00    -0.351 OA
BRANCH  27  28
HETATM   28  C   UNL     1      26.173  41.035  49.050  1.00  0.00     0.171 C 
HETATM   29  C   UNL     1      26.130  40.279  50.366  1.00  0.00     0.034 C 
ENDBRANCH  27  28
ENDBRANCH  18  27
ENDBRANCH   1  17
TORSDOF 5
ENDMDL
MODEL 9
REMARK VINA RESULT:      -8.5      3.252      4.873
REMARK  5 active torsions:
REMARK  status: ('A' for Active; 'I' for Inactive)
REMARK    1  A    between atoms: C_2  and  O_3 
REMARK    2  A    between atoms: O_3  and  C_4 
REMARK    3  A    between atoms: C_5  and  C_6 
REMARK    4  A    between atoms: C_7  and  C_8 
REMARK       I    between atoms: C_8  and  N_9 
REMARK    5  A    between atoms: N_9  and  C_10 
ROOT
HETATM    1  C   UNL     1      25.895  42.440  51.006  1.00  0.00     0.042 C 
HETATM    2  C   UNL     1      26.606  43.543  51.304  1.00  0.00     0.113 C 
HETATM    3  C   UNL     1      26.924  44.538  50.346  1.00  0.00     0.105 C 
HETATM    4  N   UNL     1      27.226  45.385  49.611  1.00  0.00    -0.191 NA
ENDROOT
BRANCH   2   5
HETATM    5  C   UNL     1      27.121  43.642  52.715  1.00  0.00     0.266 C 
HETATM    6  N   UNL     1      28.305  44.341  52.871  1.00  0.00    -0.321 N 
HETATM    7  H   UNL     1      28.558  45.005  52.150  1.00  0.00     0.169 HD
HETATM    8  O   UNL     1      26.473  43.154  53.637  1.00  0.00    -0.267 OA
BRANCH   6   9
HETATM    9  C   UNL     1      29.029  44.462  54.087  1.00  0.00     0.047 A 
HETATM   10  C   UNL     1      28.774  45.472  55.042  1.00  0.00    -0.035 A 
HETATM   11  C   UNL     1      27.638  46.459  54.960  1.00  0.00     0.050 C 
HETATM   12  C   UNL     1      29.586  45.555  56.189  1.00  0.00     0.009 A 
HETATM   13  C   UNL     1      30.585  44.620  56.432  1.00  0.00     0.001 A 
HETATM   14  C   UNL     1      30.784  43.578  55.535  1.00  0.00     0.009 A 
HETATM   15  C   UNL     1      30.013  43.481  54.364  1.00  0.00    -0.035 A 
HETATM   16  C   UNL     1      30.304  42.340  53.423  1.00  0.00     0.050 C 
ENDBRANCH   6   9
ENDBRANCH   2   5
BRANCH   1  17
HETATM   17  C   UNL     1      25.344  42.079  49.691  1.00  0.00     0.002 A 
HETATM   18  C   UNL     1      26.191  41.567  48.680  1.00  0.00     0.079 A 
HETATM   19  C   UNL     1      25.679  41.081  47.473  1.00  0.00     0.047 A 
HETATM   20  C   UNL     1      24.316  41.168  47.272  1.00  0.00    -0.020 A 
HETATM   21  C   UNL     1      23.486  41.708  48.241  1.00  0.00     0.076 A 
HETATM   22  C   UNL     1      23.496  40.664  46.148  1.00  0.00     0.073 C 
HETATM   23  C   UNL     1      23.965  42.160  49.456  1.00  0.00     0.051 A 
HETATM   24  O   UNL     1      22.159  41.696  47.894  1.00  0.00    -0.345 OA
HETATM   25  C   UNL     1      22.174  41.372  46.478  1.00  0.00     0.129 C 
HETATM   26  C   UNL     1      20.959  40.519  46.153  1.00  0.00     0.040 C 
BRANCH  18  27
HETATM   27  O   UNL     1      27.544  41.459  48.884  1.00  0.00    -0.351 OA
BRANCH  27  28
HETATM   28  C   UNL     1      27.956  40.085  48.869  1.00  0.00     0.171 C 
HETATM   29  C   UNL     1      28.383  39.683  50.269  1.00  0.00     0.034 C 
ENDBRANCH  27  28
ENDBRANCH  18  27
ENDBRANCH   1  17
TORSDOF 5
ENDMDL
MODEL 10
REMARK VINA RESULT:      -8.5      2.167      4.039
REMARK  5 active torsions:
REMARK  status: ('A' for Active; 'I' for Inactive)
REMARK    1  A    between atoms: C_2  and  O_3 
REMARK    2  A    between atoms: O_3  and  C_4 
REMARK    3  A    between atoms: C_5  and  C_6 
REMARK    4  A    between atoms: C_7  and  C_8 
REMARK       I    between atoms: C_8  and  N_9 
REMARK    5  A    between atoms: N_9  and  C_10 
ROOT
HETATM    1  C   UNL     1      25.369  44.227  52.172  1.00  0.00     0.042 C 
HETATM    2  C   UNL     1      26.551  43.620  52.387  1.00  0.00     0.113 C 
HETATM    3  C   UNL     1      27.184  42.799  51.421  1.00  0.00     0.105 C 
HETATM    4  N   UNL     1      27.752  42.110  50.679  1.00  0.00    -0.191 NA
ENDROOT
BRANCH   2   5
HETATM    5  C   UNL     1      27.150  43.797  53.756  1.00  0.00     0.266 C 
HETATM    6  N   UNL     1      28.335  44.511  53.802  1.00  0.00    -0.321 N 
HETATM    7  H   UNL     1      28.537  45.137  53.033  1.00  0.00     0.169 HD
HETATM    8  O   UNL     1      26.565  43.355  54.742  1.00  0.00    -0.267 OA
BRANCH   6   9
HETATM    9  C   UNL     1      29.132  44.701  54.963  1.00  0.00     0.047 A 
HETATM   10  C   UNL     1      28.910  45.744  55.891  1.00  0.00    -0.035 A 
HETATM   11  C   UNL     1      27.744  46.697  55.843  1.00  0.00     0.050 C 
HETATM   12  C   UNL     1      29.790  45.895  56.979  1.00  0.00     0.009 A 
HETATM   13  C   UNL     1      30.828  44.997  57.195  1.00  0.00     0.001 A 
HETATM   14  C   UNL     1      30.999  43.923  56.329  1.00  0.00     0.009 A 
HETATM   15  C   UNL     1      30.158  43.757  55.216  1.00  0.00    -0.035 A 
HETATM   16  C   UNL     1      30.420  42.585  54.305  1.00  0.00     0.050 C 
ENDBRANCH   6   9
ENDBRANCH   2   5
BRANCH   1  17
HETATM   17  C   UNL     1      24.554  44.153  50.950  1.00  0.00     0.002 A 
HETATM   18  C   UNL     1      24.204  45.335  50.255  1.00  0.00     0.079 A 
HETATM   19  C   UNL     1      23.556  45.291  49.017  1.00  0.00     0.047 A 
HETATM   20  C   UNL     1      23.214  44.051  48.514  1.00  0.00    -0.020 A 
HETATM   21  C   UNL     1      23.516  42.892  49.211  1.00  0.00     0.076 A 
HETATM   22  C   UNL     1      22.610  43.697  47.210  1.00  0.00     0.073 C 
HETATM   23  C   UNL     1      24.190  42.909  50.418  1.00  0.00     0.051 A 
HETATM   24  O   UNL     1      23.132  41.747  48.562  1.00  0.00    -0.345 OA
HETATM   25  C   UNL     1      22.272  42.226  47.493  1.00  0.00     0.129 C 
HETATM   26  C   UNL     1      22.460  41.339  46.273  1.00  0.00     0.040 C 
BRANCH  18  27
HETATM   27  O   UNL     1      24.560  46.568  50.740  1.00  0.00    -0.351 OA
BRANCH  27  28
HETATM   28  C   UNL     1      24.968  47.439  49.675  1.00  0.00     0.171 C 
HETATM   29  C   UNL     1      26.369  47.948  49.964  1.00  0.00     0.034 C 
ENDBRANCH  27  28
ENDBRANCH  18  27
ENDBRANCH   1  17
TORSDOF 5
ENDMDL
