MODEL 1
REMARK VINA RESULT:      -9.6      0.000      0.000
REMARK  6 active torsions:
REMARK  status: ('A' for Active; 'I' for Inactive)
REMARK    1  A    between atoms: C_2  and  C_3 
REMARK    2  A    between atoms: C_4  and  O_5 
REMARK    3  A    between atoms: O_5  and  C_6 
REMARK    4  A    between atoms: C_6  and  C_7 
REMARK       I    between atoms: C_7  and  N_8 
REMARK    5  A    between atoms: N_8  and  C_9 
REMARK    6  A    between atoms: C_16  and  C_17 
REMARK       I    between atoms: C_17  and  N_18 
ROOT
HETATM    1  C   UNL     1      25.652  46.850  53.331  1.00  0.00     0.246 C 
HETATM    2  N   UNL     1      25.679  46.520  51.983  1.00  0.00    -0.325 N 
HETATM    3  O   UNL     1      25.508  47.971  53.809  1.00  0.00    -0.271 OA
HETATM    4  H   UNL     1      25.724  45.531  51.769  1.00  0.00     0.169 HD
ENDROOT
BRANCH   2   5
HETATM    5  C   UNL     1      25.602  47.393  50.878  1.00  0.00     0.035 A 
HETATM    6  C   UNL     1      24.399  47.774  50.270  1.00  0.00     0.046 A 
HETATM    7  C   UNL     1      24.427  48.676  49.180  1.00  0.00     0.030 A 
HETATM    8  C   UNL     1      25.656  49.139  48.725  1.00  0.00     0.063 A 
HETATM    9  C   UNL     1      23.461  49.323  48.350  1.00  0.00     0.156 A 
HETATM   10  N   UNL     1      25.368  49.965  47.676  1.00  0.00    -0.277 N 
HETATM   11  C   UNL     1      26.872  48.773  49.304  1.00  0.00     0.034 A 
HETATM   12  H   UNL     1      26.027  50.472  47.095  1.00  0.00     0.189 HD
HETATM   13  N   UNL     1      24.057  50.110  47.425  1.00  0.00    -0.168 NA
HETATM   14  C   UNL     1      26.816  47.903  50.398  1.00  0.00     0.032 A 
BRANCH   9  15
HETATM   15  C   UNL     1      21.997  49.223  48.428  1.00  0.00     0.270 C 
HETATM   16  N   UNL     1      21.467  49.728  49.585  1.00  0.00    -0.365 N 
HETATM   17  H   UNL     1      22.098  50.097  50.286  1.00  0.00     0.159 HD
HETATM   18  H   UNL     1      20.475  49.664  49.747  1.00  0.00     0.159 HD
HETATM   19  O   UNL     1      21.281  48.726  47.566  1.00  0.00    -0.266 OA
ENDBRANCH   9  15
ENDBRANCH   2   5
BRANCH   1  20
HETATM   20  C   UNL     1      25.760  45.612  54.227  1.00  0.00     0.278 C 
BRANCH  20  21
HETATM   21  O   UNL     1      26.922  44.846  53.956  1.00  0.00    -0.342 OA
BRANCH  21  22
HETATM   22  C   UNL     1      28.033  44.998  54.745  1.00  0.00     0.076 A 
HETATM   23  C   UNL     1      29.092  44.073  54.542  1.00  0.00    -0.017 A 
HETATM   24  C   UNL     1      30.189  44.144  55.431  1.00  0.00     0.011 A 
HETATM   25  C   UNL     1      30.266  45.105  56.440  1.00  0.00     0.001 A 
HETATM   26  C   UNL     1      29.250  46.035  56.583  1.00  0.00     0.003 A 
HETATM   27  C   UNL     1      28.142  45.983  55.739  1.00  0.00     0.037 A 
BRANCH  23  28
HETATM   28  C   UNL     1      29.075  43.010  53.414  1.00  0.00    -0.021 C 
HETATM   29  C   UNL     1      28.133  41.827  53.747  1.00  0.00     0.019 C 
HETATM   30  C   UNL     1      30.507  42.489  53.185  1.00  0.00     0.019 C 
HETATM   31  C   UNL     1      28.569  43.566  52.055  1.00  0.00     0.019 C 
ENDBRANCH  23  28
ENDBRANCH  21  22
ENDBRANCH  20  21
ENDBRANCH   1  20
TORSDOF 6
ENDMDL
MODEL 2
REMARK VINA RESULT:      -9.4      1.649      2.166
REMARK  6 active torsions:
REMARK  status: ('A' for Active; 'I' for Inactive)
REMARK    1  A    between atoms: C_2  and  C_3 
REMARK    2  A    between atoms: C_4  and  O_5 
REMARK    3  A    between atoms: O_5  and  C_6 
REMARK    4  A    between atoms: C_6  and  C_7 
REMARK       I    between atoms: C_7  and  N_8 
REMARK    5  A    between atoms: N_8  and  C_9 
REMARK    6  A    between atoms: C_16  and  C_17 
REMARK       I    between atoms: C_17  and  N_18 
ROOT
HETATM    1  C   UNL     1      26.190  47.244  53.481  1.00  0.00     0.246 C 
HETATM    2  N   UNL     1      26.234  46.516  52.299  1.00  0.00    -0.325 N 
HETATM    3  O   UNL     1      25.279  47.975  53.858  1.00  0.00    -0.271 OA
HETATM    4  H   UNL     1      27.030  45.899  52.188  1.00  0.00     0.169 HD
ENDROOT
BRANCH   2   5
HETATM    5  C   UNL     1      25.281  46.497  51.260  1.00  0.00     0.035 A 
HETATM    6  C   UNL     1      24.926  47.624  50.509  1.00  0.00     0.046 A 
HETATM    7  C   UNL     1      23.976  47.495  49.469  1.00  0.00     0.030 A 
HETATM    8  C   UNL     1      23.399  46.252  49.239  1.00  0.00     0.063 A 
HETATM    9  C   UNL     1      23.402  48.354  48.482  1.00  0.00     0.156 A 
HETATM   10  N   UNL     1      22.528  46.441  48.204  1.00  0.00    -0.277 N 
HETATM   11  C   UNL     1      23.725  45.111  49.974  1.00  0.00     0.034 A 
HETATM   12  H   UNL     1      21.923  45.748  47.776  1.00  0.00     0.189 HD
HETATM   13  N   UNL     1      22.508  47.690  47.714  1.00  0.00    -0.168 NA
HETATM   14  C   UNL     1      24.688  45.258  50.978  1.00  0.00     0.032 A 
BRANCH   9  15
HETATM   15  C   UNL     1      23.697  49.774  48.245  1.00  0.00     0.270 C 
HETATM   16  N   UNL     1      23.116  50.621  49.151  1.00  0.00    -0.365 N 
HETATM   17  H   UNL     1      22.530  50.225  49.876  1.00  0.00     0.159 HD
HETATM   18  H   UNL     1      23.226  51.616  49.043  1.00  0.00     0.159 HD
HETATM   19  O   UNL     1      24.381  50.204  47.323  1.00  0.00    -0.266 OA
ENDBRANCH   9  15
ENDBRANCH   2   5
BRANCH   1  20
HETATM   20  C   UNL     1      27.421  46.992  54.356  1.00  0.00     0.278 C 
BRANCH  20  21
HETATM   21  O   UNL     1      27.511  45.645  54.790  1.00  0.00    -0.342 OA
BRANCH  21  22
HETATM   22  C   UNL     1      28.726  45.135  55.172  1.00  0.00     0.076 A 
HETATM   23  C   UNL     1      29.082  43.867  54.640  1.00  0.00    -0.017 A 
HETATM   24  C   UNL     1      30.275  43.278  55.122  1.00  0.00     0.011 A 
HETATM   25  C   UNL     1      31.100  43.923  56.044  1.00  0.00     0.001 A 
HETATM   26  C   UNL     1      30.764  45.184  56.505  1.00  0.00     0.003 A 
HETATM   27  C   UNL     1      29.585  45.787  56.069  1.00  0.00     0.037 A 
BRANCH  23  28
HETATM   28  C   UNL     1      28.221  43.125  53.586  1.00  0.00    -0.021 C 
HETATM   29  C   UNL     1      26.709  43.214  53.907  1.00  0.00     0.019 C 
HETATM   30  C   UNL     1      28.655  41.648  53.523  1.00  0.00     0.019 C 
HETATM   31  C   UNL     1      28.371  43.705  52.153  1.00  0.00     0.019 C 
ENDBRANCH  23  28
ENDBRANCH  21  22
ENDBRANCH  20  21
ENDBRANCH   1  20
TORSDOF 6
ENDMDL
MODEL 3
REMARK VINA RESULT:      -9.2      4.899      7.768
REMARK  6 active torsions:
REMARK  status: ('A' for Active; 'I' for Inactive)
REMARK    1  A    between atoms: C_2  and  C_3 
REMARK    2  A    between atoms: C_4  and  O_5 
REMARK    3  A    between atoms: O_5  and  C_6 
REMARK    4  A    between atoms: C_6  and  C_7 
REMARK       I    between atoms: C_7  and  N_8 
REMARK    5  A    between atoms: N_8  and  C_9 
REMARK    6  A    between atoms: C_16  and  C_17 
REMARK       I    between atoms: C_17  and  N_18 
ROOT
HETATM    1  C   UNL     1      26.812  43.942  50.461  1.00  0.00     0.246 C 
HETATM    2  N   UNL     1      26.668  42.568  50.598  1.00  0.00    -0.325 N 
HETATM    3  O   UNL     1      27.316  44.535  49.513  1.00  0.00    -0.271 OA
HETATM    4  H   UNL     1      26.153  42.255  51.412  1.00  0.00     0.169 HD
ENDROOT
BRANCH   2   5
HETATM    5  C   UNL     1      27.111  41.561  49.717  1.00  0.00     0.035 A 
HETATM    6  C   UNL     1      27.906  40.476  50.111  1.00  0.00     0.046 A 
HETATM    7  C   UNL     1      28.277  39.503  49.153  1.00  0.00     0.030 A 
HETATM    8  C   UNL     1      27.865  39.667  47.837  1.00  0.00     0.063 A 
HETATM    9  C   UNL     1      29.007  38.275  49.159  1.00  0.00     0.156 A 
HETATM   10  N   UNL     1      28.380  38.600  47.158  1.00  0.00    -0.277 N 
HETATM   11  C   UNL     1      27.079  40.739  47.410  1.00  0.00     0.034 A 
HETATM   12  H   UNL     1      28.288  38.398  46.168  1.00  0.00     0.189 HD
HETATM   13  N   UNL     1      29.066  37.733  47.921  1.00  0.00    -0.168 NA
HETATM   14  C   UNL     1      26.700  41.673  48.381  1.00  0.00     0.032 A 
BRANCH   9  15
HETATM   15  C   UNL     1      29.629  37.604  50.309  1.00  0.00     0.270 C 
HETATM   16  N   UNL     1      28.845  36.638  50.880  1.00  0.00    -0.365 N 
HETATM   17  H   UNL     1      27.920  36.479  50.499  1.00  0.00     0.159 HD
HETATM   18  H   UNL     1      29.170  36.153  51.701  1.00  0.00     0.159 HD
HETATM   19  O   UNL     1      30.740  37.866  50.757  1.00  0.00    -0.266 OA
ENDBRANCH   9  15
ENDBRANCH   2   5
BRANCH   1  20
HETATM   20  C   UNL     1      26.192  44.704  51.637  1.00  0.00     0.278 C 
BRANCH  20  21
HETATM   21  O   UNL     1      26.646  44.226  52.892  1.00  0.00    -0.342 OA
BRANCH  21  22
HETATM   22  C   UNL     1      27.287  45.080  53.752  1.00  0.00     0.076 A 
HETATM   23  C   UNL     1      28.470  44.596  54.370  1.00  0.00    -0.017 A 
HETATM   24  C   UNL     1      29.071  45.422  55.349  1.00  0.00     0.011 A 
HETATM   25  C   UNL     1      28.562  46.681  55.671  1.00  0.00     0.001 A 
HETATM   26  C   UNL     1      27.441  47.158  55.014  1.00  0.00     0.003 A 
HETATM   27  C   UNL     1      26.809  46.364  54.058  1.00  0.00     0.037 A 
BRANCH  23  28
HETATM   28  C   UNL     1      29.099  43.222  54.022  1.00  0.00    -0.021 C 
HETATM   29  C   UNL     1      28.051  42.083  54.048  1.00  0.00     0.019 C 
HETATM   30  C   UNL     1      30.231  42.913  55.022  1.00  0.00     0.019 C 
HETATM   31  C   UNL     1      29.722  43.175  52.601  1.00  0.00     0.019 C 
ENDBRANCH  23  28
ENDBRANCH  21  22
ENDBRANCH  20  21
ENDBRANCH   1  20
TORSDOF 6
ENDMDL
MODEL 4
REMARK VINA RESULT:      -9.1      1.333      2.761
REMARK  6 active torsions:
REMARK  status: ('A' for Active; 'I' for Inactive)
REMARK    1  A    between atoms: C_2  and  C_3 
REMARK    2  A    between atoms: C_4  and  O_5 
REMARK    3  A    between atoms: O_5  and  C_6 
REMARK    4  A    between atoms: C_6  and  C_7 
REMARK       I    between atoms: C_7  and  N_8 
REMARK    5  A    between atoms: N_8  and  C_9 
REMARK    6  A    between atoms: C_16  and  C_17 
REMARK       I    between atoms: C_17  and  N_18 
ROOT
HETATM    1  C   UNL     1      26.792  45.007  50.564  1.00  0.00     0.246 C 
HETATM    2  N   UNL     1      26.258  46.237  50.924  1.00  0.00    -0.325 N 
HETATM    3  O   UNL     1      27.099  44.644  49.433  1.00  0.00    -0.271 OA
HETATM    4  H   UNL     1      26.140  46.396  51.918  1.00  0.00     0.169 HD
ENDROOT
BRANCH   2   5
HETATM    5  C   UNL     1      25.905  47.306  50.076  1.00  0.00     0.035 A 
HETATM    6  C   UNL     1      24.594  47.564  49.653  1.00  0.00     0.046 A 
HETATM    7  C   UNL     1      24.340  48.680  48.822  1.00  0.00     0.030 A 
HETATM    8  C   UNL     1      25.406  49.477  48.424  1.00  0.00     0.063 A 
HETATM    9  C   UNL     1      23.188  49.290  48.236  1.00  0.00     0.156 A 
HETATM   10  N   UNL     1      24.861  50.446  47.631  1.00  0.00    -0.277 N 
HETATM   11  C   UNL     1      26.724  49.243  48.821  1.00  0.00     0.034 A 
HETATM   12  H   UNL     1      25.349  51.198  47.156  1.00  0.00     0.189 HD
HETATM   13  N   UNL     1      23.527  50.374  47.501  1.00  0.00    -0.168 NA
HETATM   14  C   UNL     1      26.946  48.151  49.667  1.00  0.00     0.032 A 
BRANCH   9  15
HETATM   15  C   UNL     1      21.784  48.878  48.374  1.00  0.00     0.270 C 
HETATM   16  N   UNL     1      21.253  49.117  49.613  1.00  0.00    -0.365 N 
HETATM   17  H   UNL     1      21.850  49.522  50.324  1.00  0.00     0.159 HD
HETATM   18  H   UNL     1      20.310  48.828  49.815  1.00  0.00     0.159 HD
HETATM   19  O   UNL     1      21.118  48.351  47.490  1.00  0.00    -0.266 OA
ENDBRANCH   9  15
ENDBRANCH   2   5
BRANCH   1  20
HETATM   20  C   UNL     1      27.039  44.110  51.782  1.00  0.00     0.278 C 
BRANCH  20  21
HETATM   21  O   UNL     1      27.553  44.830  52.890  1.00  0.00    -0.342 OA
BRANCH  21  22
HETATM   22  C   UNL     1      28.565  44.290  53.640  1.00  0.00     0.076 A 
HETATM   23  C   UNL     1      28.884  44.951  54.855  1.00  0.00    -0.017 A 
HETATM   24  C   UNL     1      30.005  44.475  55.574  1.00  0.00     0.011 A 
HETATM   25  C   UNL     1      30.747  43.374  55.145  1.00  0.00     0.001 A 
HETATM   26  C   UNL     1      30.384  42.707  53.988  1.00  0.00     0.003 A 
HETATM   27  C   UNL     1      29.298  43.161  53.241  1.00  0.00     0.037 A 
BRANCH  23  28
HETATM   28  C   UNL     1      28.069  46.154  55.396  1.00  0.00    -0.021 C 
HETATM   29  C   UNL     1      28.456  47.478  54.693  1.00  0.00     0.019 C 
HETATM   30  C   UNL     1      28.300  46.283  56.915  1.00  0.00     0.019 C 
HETATM   31  C   UNL     1      26.539  46.007  55.179  1.00  0.00     0.019 C 
ENDBRANCH  23  28
ENDBRANCH  21  22
ENDBRANCH  20  21
ENDBRANCH   1  20
TORSDOF 6
ENDMDL
MODEL 5
REMARK VINA RESULT:      -8.7      2.204      2.864
REMARK  6 active torsions:
REMARK  status: ('A' for Active; 'I' for Inactive)
REMARK    1  A    between atoms: C_2  and  C_3 
REMARK    2  A    between atoms: C_4  and  O_5 
REMARK    3  A    between atoms: O_5  and  C_6 
REMARK    4  A    between atoms: C_6  and  C_7 
REMARK       I    between atoms: C_7  and  N_8 
REMARK    5  A    between atoms: N_8  and  C_9 
REMARK    6  A    between atoms: C_16  and  C_17 
REMARK       I    between atoms: C_17  and  N_18 
ROOT
HETATM    1  C   UNL     1      25.169  44.684  51.145  1.00  0.00     0.246 C 
HETATM    2  N   UNL     1      25.175  45.482  50.008  1.00  0.00    -0.325 N 
HETATM    3  O   UNL     1      24.189  44.354  51.804  1.00  0.00    -0.271 OA
HETATM    4  H   UNL     1      26.069  45.585  49.543  1.00  0.00     0.169 HD
ENDROOT
BRANCH   2   5
HETATM    5  C   UNL     1      24.078  46.125  49.399  1.00  0.00     0.035 A 
HETATM    6  C   UNL     1      23.697  47.444  49.676  1.00  0.00     0.046 A 
HETATM    7  C   UNL     1      22.595  48.007  48.991  1.00  0.00     0.030 A 
HETATM    8  C   UNL     1      21.901  47.223  48.079  1.00  0.00     0.063 A 
HETATM    9  C   UNL     1      21.944  49.279  48.952  1.00  0.00     0.156 A 
HETATM   10  N   UNL     1      20.900  48.020  47.600  1.00  0.00    -0.277 N 
HETATM   11  C   UNL     1      22.249  45.903  47.785  1.00  0.00     0.034 A 
HETATM   12  H   UNL     1      20.189  47.772  46.921  1.00  0.00     0.189 HD
HETATM   13  N   UNL     1      20.898  49.268  48.094  1.00  0.00    -0.168 NA
HETATM   14  C   UNL     1      23.360  45.378  48.454  1.00  0.00     0.032 A 
BRANCH   9  15
HETATM   15  C   UNL     1      22.302  50.496  49.694  1.00  0.00     0.270 C 
HETATM   16  N   UNL     1      21.365  50.881  50.615  1.00  0.00    -0.365 N 
HETATM   17  H   UNL     1      20.516  50.336  50.699  1.00  0.00     0.159 HD
HETATM   18  H   UNL     1      21.504  51.729  51.141  1.00  0.00     0.159 HD
HETATM   19  O   UNL     1      23.327  51.146  49.522  1.00  0.00    -0.266 OA
ENDBRANCH   9  15
ENDBRANCH   2   5
BRANCH   1  20
HETATM   20  C   UNL     1      26.570  44.167  51.490  1.00  0.00     0.278 C 
BRANCH  20  21
HETATM   21  O   UNL     1      26.737  43.942  52.879  1.00  0.00    -0.342 OA
BRANCH  21  22
HETATM   22  C   UNL     1      27.288  44.922  53.664  1.00  0.00     0.076 A 
HETATM   23  C   UNL     1      28.498  44.599  54.334  1.00  0.00    -0.017 A 
HETATM   24  C   UNL     1      29.010  45.557  55.239  1.00  0.00     0.011 A 
HETATM   25  C   UNL     1      28.389  46.791  55.443  1.00  0.00     0.001 A 
HETATM   26  C   UNL     1      27.242  47.109  54.736  1.00  0.00     0.003 A 
HETATM   27  C   UNL     1      26.697  46.181  53.850  1.00  0.00     0.037 A 
BRANCH  23  28
HETATM   28  C   UNL     1      29.249  43.260  54.116  1.00  0.00    -0.021 C 
HETATM   29  C   UNL     1      28.298  42.042  54.212  1.00  0.00     0.019 C 
HETATM   30  C   UNL     1      30.371  43.129  55.164  1.00  0.00     0.019 C 
HETATM   31  C   UNL     1      29.915  43.150  52.718  1.00  0.00     0.019 C 
ENDBRANCH  23  28
ENDBRANCH  21  22
ENDBRANCH  20  21
ENDBRANCH   1  20
TORSDOF 6
ENDMDL
MODEL 6
REMARK VINA RESULT:      -8.4      2.709      3.933
REMARK  6 active torsions:
REMARK  status: ('A' for Active; 'I' for Inactive)
REMARK    1  A    between atoms: C_2  and  C_3 
REMARK    2  A    between atoms: C_4  and  O_5 
REMARK    3  A    between atoms: O_5  and  C_6 
REMARK    4  A    between atoms: C_6  and  C_7 
REMARK       I    between atoms: C_7  and  N_8 
REMARK    5  A    between atoms: N_8  and  C_9 
REMARK    6  A    between atoms: C_16  and  C_17 
REMARK       I    between atoms: C_17  and  N_18 
ROOT
HETATM    1  C   UNL     1      26.544  43.096  50.269  1.00  0.00     0.246 C 
HETATM    2  N   UNL     1      25.224  43.474  50.472  1.00  0.00    -0.325 N 
HETATM    3  O   UNL     1      27.231  43.335  49.282  1.00  0.00    -0.271 OA
HETATM    4  H   UNL     1      24.836  43.261  51.384  1.00  0.00     0.169 HD
ENDROOT
BRANCH   2   5
HETATM    5  C   UNL     1      24.374  44.159  49.580  1.00  0.00     0.035 A 
HETATM    6  C   UNL     1      24.037  45.512  49.710  1.00  0.00     0.046 A 
HETATM    7  C   UNL     1      23.195  46.115  48.746  1.00  0.00     0.030 A 
HETATM    8  C   UNL     1      22.703  45.336  47.706  1.00  0.00     0.063 A 
HETATM    9  C   UNL     1      22.675  47.423  48.502  1.00  0.00     0.156 A 
HETATM   10  N   UNL     1      21.924  46.174  46.961  1.00  0.00    -0.277 N 
HETATM   11  C   UNL     1      23.013  43.983  47.551  1.00  0.00     0.034 A 
HETATM   12  H   UNL     1      21.395  45.942  46.126  1.00  0.00     0.189 HD
HETATM   13  N   UNL     1      21.889  47.441  47.401  1.00  0.00    -0.168 NA
HETATM   14  C   UNL     1      23.870  43.418  48.501  1.00  0.00     0.032 A 
BRANCH   9  15
HETATM   15  C   UNL     1      22.921  48.647  49.277  1.00  0.00     0.270 C 
HETATM   16  N   UNL     1      21.782  49.318  49.634  1.00  0.00    -0.365 N 
HETATM   17  H   UNL     1      20.889  48.949  49.330  1.00  0.00     0.159 HD
HETATM   18  H   UNL     1      21.853  50.192  50.130  1.00  0.00     0.159 HD
HETATM   19  O   UNL     1      24.029  49.073  49.582  1.00  0.00    -0.266 OA
ENDBRANCH   9  15
ENDBRANCH   2   5
BRANCH   1  20
HETATM   20  C   UNL     1      27.125  42.365  51.484  1.00  0.00     0.278 C 
BRANCH  20  21
HETATM   21  O   UNL     1      26.804  43.007  52.707  1.00  0.00    -0.342 OA
BRANCH  21  22
HETATM   22  C   UNL     1      27.808  43.356  53.574  1.00  0.00     0.076 A 
HETATM   23  C   UNL     1      27.718  44.641  54.171  1.00  0.00    -0.017 A 
HETATM   24  C   UNL     1      28.808  45.059  54.970  1.00  0.00     0.011 A 
HETATM   25  C   UNL     1      29.910  44.236  55.209  1.00  0.00     0.001 A 
HETATM   26  C   UNL     1      29.950  42.965  54.664  1.00  0.00     0.003 A 
HETATM   27  C   UNL     1      28.904  42.526  53.854  1.00  0.00     0.037 A 
BRANCH  23  28
HETATM   28  C   UNL     1      26.500  45.579  53.970  1.00  0.00    -0.021 C 
HETATM   29  C   UNL     1      26.600  46.854  54.842  1.00  0.00     0.019 C 
HETATM   30  C   UNL     1      25.207  44.813  54.311  1.00  0.00     0.019 C 
HETATM   31  C   UNL     1      26.354  46.091  52.511  1.00  0.00     0.019 C 
ENDBRANCH  23  28
ENDBRANCH  21  22
ENDBRANCH  20  21
ENDBRANCH   1  20
TORSDOF 6
ENDMDL
MODEL 7
REMARK VINA RESULT:      -8.2      1.893      2.528
REMARK  6 active torsions:
REMARK  status: ('A' for Active; 'I' for Inactive)
REMARK    1  A    between atoms: C_2  and  C_3 
REMARK    2  A    between atoms: C_4  and  O_5 
REMARK    3  A    between atoms: O_5  and  C_6 
REMARK    4  A    between atoms: C_6  and  C_7 
REMARK       I    between atoms: C_7  and  N_8 
REMARK    5  A    between atoms: N_8  and  C_9 
REMARK    6  A    between atoms: C_16  and  C_17 
REMARK       I    between atoms: C_17  and  N_18 
ROOT
HETATM    1  C   UNL     1      25.240  44.795  51.229  1.00  0.00     0.246 C 
HETATM    2  N   UNL     1      25.595  45.748  50.284  1.00  0.00    -0.325 N 
HETATM    3  O   UNL     1      24.117  44.595  51.682  1.00  0.00    -0.271 OA
HETATM    4  H   UNL     1      26.556  45.719  49.964  1.00  0.00     0.169 HD
ENDROOT
BRANCH   2   5
HETATM    5  C   UNL     1      24.769  46.718  49.682  1.00  0.00     0.035 A 
HETATM    6  C   UNL     1      23.469  46.459  49.227  1.00  0.00     0.046 A 
HETATM    7  C   UNL     1      22.710  47.509  48.659  1.00  0.00     0.030 A 
HETATM    8  C   UNL     1      23.288  48.768  48.543  1.00  0.00     0.063 A 
HETATM    9  C   UNL     1      21.388  47.664  48.141  1.00  0.00     0.156 A 
HETATM   10  N   UNL     1      22.337  49.552  47.955  1.00  0.00    -0.277 N 
HETATM   11  C   UNL     1      24.583  49.056  48.979  1.00  0.00     0.034 A 
HETATM   12  H   UNL     1      22.417  50.533  47.707  1.00  0.00     0.189 HD
HETATM   13  N   UNL     1      21.175  48.928  47.707  1.00  0.00    -0.168 NA
HETATM   14  C   UNL     1      25.303  48.009  49.563  1.00  0.00     0.032 A 
BRANCH   9  15
HETATM   15  C   UNL     1      20.326  46.651  48.067  1.00  0.00     0.270 C 
HETATM   16  N   UNL     1      19.822  46.283  49.287  1.00  0.00    -0.365 N 
HETATM   17  H   UNL     1      20.218  46.702  50.119  1.00  0.00     0.159 HD
HETATM   18  H   UNL     1      19.121  45.562  49.339  1.00  0.00     0.159 HD
HETATM   19  O   UNL     1      19.912  46.143  47.031  1.00  0.00    -0.266 OA
ENDBRANCH   9  15
ENDBRANCH   2   5
BRANCH   1  20
HETATM   20  C   UNL     1      26.430  43.921  51.638  1.00  0.00     0.278 C 
BRANCH  20  21
HETATM   21  O   UNL     1      26.575  43.825  53.045  1.00  0.00    -0.342 OA
BRANCH  21  22
HETATM   22  C   UNL     1      27.169  44.850  53.736  1.00  0.00     0.076 A 
HETATM   23  C   UNL     1      28.437  44.578  54.316  1.00  0.00    -0.017 A 
HETATM   24  C   UNL     1      29.001  45.586  55.133  1.00  0.00     0.011 A 
HETATM   25  C   UNL     1      28.375  46.817  55.331  1.00  0.00     0.001 A 
HETATM   26  C   UNL     1      27.168  47.083  54.709  1.00  0.00     0.003 A 
HETATM   27  C   UNL     1      26.570  46.106  53.914  1.00  0.00     0.037 A 
BRANCH  23  28
HETATM   28  C   UNL     1      29.193  43.243  54.097  1.00  0.00    -0.021 C 
HETATM   29  C   UNL     1      30.319  43.038  55.139  1.00  0.00     0.019 C 
HETATM   30  C   UNL     1      29.787  43.222  52.675  1.00  0.00     0.019 C 
HETATM   31  C   UNL     1      28.281  41.992  54.227  1.00  0.00     0.019 C 
ENDBRANCH  23  28
ENDBRANCH  21  22
ENDBRANCH  20  21
ENDBRANCH   1  20
TORSDOF 6
ENDMDL
MODEL 8
REMARK VINA RESULT:      -8.1      5.609      7.922
REMARK  6 active torsions:
REMARK  status: ('A' for Active; 'I' for Inactive)
REMARK    1  A    between atoms: C_2  and  C_3 
REMARK    2  A    between atoms: C_4  and  O_5 
REMARK    3  A    between atoms: O_5  and  C_6 
REMARK    4  A    between atoms: C_6  and  C_7 
REMARK       I    between atoms: C_7  and  N_8 
REMARK    5  A    between atoms: N_8  and  C_9 
REMARK    6  A    between atoms: C_16  and  C_17 
REMARK       I    between atoms: C_17  and  N_18 
ROOT
HETATM    1  C   UNL     1      28.233  41.209  51.463  1.00  0.00     0.246 C 
HETATM    2  N   UNL     1      28.967  40.324  50.685  1.00  0.00    -0.325 N 
HETATM    3  O   UNL     1      27.043  41.480  51.340  1.00  0.00    -0.271 OA
HETATM    4  H   UNL     1      29.922  40.160  50.981  1.00  0.00     0.169 HD
ENDROOT
BRANCH   2   5
HETATM    5  C   UNL     1      28.529  39.592  49.563  1.00  0.00     0.035 A 
HETATM    6  C   UNL     1      28.399  40.139  48.279  1.00  0.00     0.046 A 
HETATM    7  C   UNL     1      27.975  39.313  47.212  1.00  0.00     0.030 A 
HETATM    8  C   UNL     1      27.671  37.983  47.474  1.00  0.00     0.063 A 
HETATM    9  C   UNL     1      27.770  39.466  45.806  1.00  0.00     0.156 A 
HETATM   10  N   UNL     1      27.284  37.455  46.275  1.00  0.00    -0.277 N 
HETATM   11  C   UNL     1      27.783  37.409  48.742  1.00  0.00     0.034 A 
HETATM   12  H   UNL     1      26.980  36.504  46.092  1.00  0.00     0.189 HD
HETATM   13  N   UNL     1      27.339  38.313  45.245  1.00  0.00    -0.168 NA
HETATM   14  C   UNL     1      28.232  38.239  49.775  1.00  0.00     0.032 A 
BRANCH   9  15
HETATM   15  C   UNL     1      27.990  40.669  44.991  1.00  0.00     0.270 C 
HETATM   16  N   UNL     1      26.967  41.578  45.055  1.00  0.00    -0.365 N 
HETATM   17  H   UNL     1      26.156  41.354  45.618  1.00  0.00     0.159 HD
HETATM   18  H   UNL     1      27.009  42.414  44.495  1.00  0.00     0.159 HD
HETATM   19  O   UNL     1      28.975  40.872  44.291  1.00  0.00    -0.266 OA
ENDBRANCH   9  15
ENDBRANCH   2   5
BRANCH   1  20
HETATM   20  C   UNL     1      29.071  41.806  52.599  1.00  0.00     0.278 C 
BRANCH  20  21
HETATM   21  O   UNL     1      28.287  42.548  53.518  1.00  0.00    -0.342 OA
BRANCH  21  22
HETATM   22  C   UNL     1      28.900  43.413  54.388  1.00  0.00     0.076 A 
HETATM   23  C   UNL     1      28.253  44.656  54.617  1.00  0.00    -0.017 A 
HETATM   24  C   UNL     1      28.936  45.602  55.416  1.00  0.00     0.011 A 
HETATM   25  C   UNL     1      30.172  45.323  56.000  1.00  0.00     0.001 A 
HETATM   26  C   UNL     1      30.758  44.084  55.813  1.00  0.00     0.003 A 
HETATM   27  C   UNL     1      30.125  43.133  55.014  1.00  0.00     0.037 A 
BRANCH  23  28
HETATM   28  C   UNL     1      26.863  45.001  54.023  1.00  0.00    -0.021 C 
HETATM   29  C   UNL     1      26.852  44.900  52.478  1.00  0.00     0.019 C 
HETATM   30  C   UNL     1      26.465  46.426  54.455  1.00  0.00     0.019 C 
HETATM   31  C   UNL     1      25.735  44.048  54.504  1.00  0.00     0.019 C 
ENDBRANCH  23  28
ENDBRANCH  21  22
ENDBRANCH  20  21
ENDBRANCH   1  20
TORSDOF 6
ENDMDL
MODEL 9
REMARK VINA RESULT:      -8.0      3.886     10.314
REMARK  6 active torsions:
REMARK  status: ('A' for Active; 'I' for Inactive)
REMARK    1  A    between atoms: C_2  and  C_3 
REMARK    2  A    between atoms: C_4  and  O_5 
REMARK    3  A    between atoms: O_5  and  C_6 
REMARK    4  A    between atoms: C_6  and  C_7 
REMARK       I    between atoms: C_7  and  N_8 
REMARK    5  A    between atoms: N_8  and  C_9 
REMARK    6  A    between atoms: C_16  and  C_17 
REMARK       I    between atoms: C_17  and  N_18 
ROOT
HETATM    1  C   UNL     1      21.310  48.763  48.741  1.00  0.00     0.246 C 
HETATM    2  N   UNL     1      22.362  49.151  49.559  1.00  0.00    -0.325 N 
HETATM    3  O   UNL     1      21.392  48.135  47.689  1.00  0.00    -0.271 OA
HETATM    4  H   UNL     1      22.104  49.593  50.433  1.00  0.00     0.169 HD
ENDROOT
BRANCH   2   5
HETATM    5  C   UNL     1      23.742  48.961  49.341  1.00  0.00     0.035 A 
HETATM    6  C   UNL     1      24.438  47.807  49.722  1.00  0.00     0.046 A 
HETATM    7  C   UNL     1      25.819  47.703  49.434  1.00  0.00     0.030 A 
HETATM    8  C   UNL     1      26.455  48.765  48.805  1.00  0.00     0.063 A 
HETATM    9  C   UNL     1      26.838  46.715  49.605  1.00  0.00     0.156 A 
HETATM   10  N   UNL     1      27.761  48.385  48.678  1.00  0.00    -0.277 N 
HETATM   11  C   UNL     1      25.792  49.932  48.419  1.00  0.00     0.034 A 
HETATM   12  H   UNL     1      28.520  48.922  48.271  1.00  0.00     0.189 HD
HETATM   13  N   UNL     1      28.030  47.154  49.139  1.00  0.00    -0.168 NA
HETATM   14  C   UNL     1      24.421  49.999  48.688  1.00  0.00     0.032 A 
BRANCH   9  15
HETATM   15  C   UNL     1      26.700  45.371  50.182  1.00  0.00     0.270 C 
HETATM   16  N   UNL     1      26.238  44.432  49.299  1.00  0.00    -0.365 N 
HETATM   17  H   UNL     1      26.012  44.725  48.356  1.00  0.00     0.159 HD
HETATM   18  H   UNL     1      26.070  43.490  49.615  1.00  0.00     0.159 HD
HETATM   19  O   UNL     1      26.948  45.078  51.346  1.00  0.00    -0.266 OA
ENDBRANCH   9  15
ENDBRANCH   2   5
BRANCH   1  20
HETATM   20  C   UNL     1      19.950  49.152  49.330  1.00  0.00     0.278 C 
BRANCH  20  21
HETATM   21  O   UNL     1      19.085  49.724  48.363  1.00  0.00    -0.342 OA
BRANCH  21  22
HETATM   22  C   UNL     1      18.092  50.581  48.764  1.00  0.00     0.076 A 
HETATM   23  C   UNL     1      16.769  50.259  48.363  1.00  0.00    -0.017 A 
HETATM   24  C   UNL     1      15.756  51.199  48.666  1.00  0.00     0.011 A 
HETATM   25  C   UNL     1      16.022  52.375  49.369  1.00  0.00     0.001 A 
HETATM   26  C   UNL     1      17.310  52.641  49.802  1.00  0.00     0.003 A 
HETATM   27  C   UNL     1      18.338  51.749  49.503  1.00  0.00     0.037 A 
BRANCH  23  28
HETATM   28  C   UNL     1      16.413  48.950  47.614  1.00  0.00    -0.021 C 
HETATM   29  C   UNL     1      16.518  47.709  48.533  1.00  0.00     0.019 C 
HETATM   30  C   UNL     1      17.353  48.784  46.404  1.00  0.00     0.019 C 
HETATM   31  C   UNL     1      14.959  48.931  47.066  1.00  0.00     0.019 C 
ENDBRANCH  23  28
ENDBRANCH  21  22
ENDBRANCH  20  21
ENDBRANCH   1  20
TORSDOF 6
ENDMDL
MODEL 10
REMARK VINA RESULT:      -8.0      2.854      9.721
REMARK  6 active torsions:
REMARK  status: ('A' for Active; 'I' for Inactive)
REMARK    1  A    between atoms: C_2  and  C_3 
REMARK    2  A    between atoms: C_4  and  O_5 
REMARK    3  A    between atoms: O_5  and  C_6 
REMARK    4  A    between atoms: C_6  and  C_7 
REMARK       I    between atoms: C_7  and  N_8 
REMARK    5  A    between atoms: N_8  and  C_9 
REMARK    6  A    between atoms: C_16  and  C_17 
REMARK       I    between atoms: C_17  and  N_18 
ROOT
HETATM    1  C   UNL     1      24.135  47.305  49.895  1.00  0.00     0.246 C 
HETATM    2  N   UNL     1      24.282  46.109  50.585  1.00  0.00    -0.325 N 
HETATM    3  O   UNL     1      24.807  48.321  50.038  1.00  0.00    -0.271 OA
HETATM    4  H   UNL     1      23.691  45.345  50.279  1.00  0.00     0.169 HD
ENDROOT
BRANCH   2   5
HETATM    5  C   UNL     1      25.186  45.819  51.627  1.00  0.00     0.035 A 
HETATM    6  C   UNL     1      25.847  44.591  51.764  1.00  0.00     0.046 A 
HETATM    7  C   UNL     1      26.756  44.408  52.832  1.00  0.00     0.030 A 
HETATM    8  C   UNL     1      26.948  45.445  53.736  1.00  0.00     0.063 A 
HETATM    9  C   UNL     1      27.631  43.369  53.277  1.00  0.00     0.156 A 
HETATM   10  N   UNL     1      27.851  44.975  54.645  1.00  0.00    -0.277 N 
HETATM   11  C   UNL     1      26.299  46.678  53.632  1.00  0.00     0.034 A 
HETATM   12  H   UNL     1      28.218  45.462  55.456  1.00  0.00     0.189 HD
HETATM   13  N   UNL     1      28.294  43.732  54.398  1.00  0.00    -0.168 NA
HETATM   14  C   UNL     1      25.427  46.845  52.551  1.00  0.00     0.032 A 
BRANCH   9  15
HETATM   15  C   UNL     1      27.859  42.057  52.654  1.00  0.00     0.270 C 
HETATM   16  N   UNL     1      27.562  40.996  53.467  1.00  0.00    -0.365 N 
HETATM   17  H   UNL     1      27.243  41.184  54.410  1.00  0.00     0.159 HD
HETATM   18  H   UNL     1      27.728  40.058  53.142  1.00  0.00     0.159 HD
HETATM   19  O   UNL     1      28.289  41.885  51.519  1.00  0.00    -0.266 OA
ENDBRANCH   9  15
ENDBRANCH   2   5
BRANCH   1  20
HETATM   20  C   UNL     1      23.038  47.221  48.829  1.00  0.00     0.278 C 
BRANCH  20  21
HETATM   21  O   UNL     1      22.154  48.329  48.872  1.00  0.00    -0.342 OA
BRANCH  21  22
HETATM   22  C   UNL     1      21.121  48.408  47.974  1.00  0.00     0.076 A 
HETATM   23  C   UNL     1      20.389  49.625  47.947  1.00  0.00    -0.017 A 
HETATM   24  C   UNL     1      19.248  49.672  47.113  1.00  0.00     0.011 A 
HETATM   25  C   UNL     1      18.870  48.595  46.311  1.00  0.00     0.001 A 
HETATM   26  C   UNL     1      19.631  47.439  46.309  1.00  0.00     0.003 A 
HETATM   27  C   UNL     1      20.751  47.347  47.133  1.00  0.00     0.037 A 
BRANCH  23  28
HETATM   28  C   UNL     1      20.788  50.864  48.789  1.00  0.00    -0.021 C 
HETATM   29  C   UNL     1      19.908  52.095  48.459  1.00  0.00     0.019 C 
HETATM   30  C   UNL     1      22.270  51.198  48.532  1.00  0.00     0.019 C 
HETATM   31  C   UNL     1      20.629  50.644  50.318  1.00  0.00     0.019 C 
ENDBRANCH  23  28
ENDBRANCH  21  22
ENDBRANCH  20  21
ENDBRANCH   1  20
TORSDOF 6
ENDMDL
