MODEL 1
REMARK VINA RESULT:     -11.2      0.000      0.000
REMARK  6 active torsions:
REMARK  status: ('A' for Active; 'I' for Inactive)
REMARK    1  A    between atoms: C_2  and  N_3 
REMARK    2  A    between atoms: C_2  and  C_32 
REMARK       I    between atoms: N_3  and  C_4 
REMARK    3  A    between atoms: C_4  and  C_5 
REMARK    4  A    between atoms: C_6  and  N_7 
REMARK       I    between atoms: N_7  and  C_8 
REMARK    5  A    between atoms: C_8  and  C_9 
REMARK    6  A    between atoms: C_9  and  N_10 
ROOT
HETATM    1  N   UNL     1      23.182  48.600  49.527  1.00  0.00    -0.325 N 
HETATM    2  C   UNL     1      22.147  48.409  48.634  1.00  0.00     0.240 C 
HETATM    3  O   UNL     1      22.291  48.063  47.461  1.00  0.00    -0.271 OA
HETATM    4  H   UNL     1      22.969  48.561  50.525  1.00  0.00     0.169 HD
ENDROOT
BRANCH   1   5
HETATM    5  C   UNL     1      24.546  48.817  49.203  1.00  0.00     0.050 A 
HETATM    6  C   UNL     1      25.547  47.996  49.762  1.00  0.00     0.058 A 
HETATM    7  C   UNL     1      26.906  48.269  49.518  1.00  0.00     0.019 A 
HETATM    8  C   UNL     1      27.276  49.329  48.692  1.00  0.00     0.001 A 
HETATM    9  C   UNL     1      26.294  50.124  48.114  1.00  0.00     0.002 A 
HETATM   10  C   UNL     1      24.943  49.875  48.372  1.00  0.00     0.030 A 
BRANCH   6  11
HETATM   11  C   UNL     1      25.183  46.818  50.601  1.00  0.00     0.254 C 
HETATM   12  N   UNL     1      26.100  46.480  51.570  1.00  0.00    -0.349 N 
HETATM   13  H   UNL     1      26.963  46.999  51.648  1.00  0.00     0.163 HD
HETATM   14  O   UNL     1      24.145  46.201  50.382  1.00  0.00    -0.268 OA
BRANCH  12  15
HETATM   15  C   UNL     1      25.852  45.478  52.594  1.00  0.00     0.114 C 
HETATM   16  C   UNL     1      25.877  44.079  51.976  1.00  0.00     0.037 C 
BRANCH  15  17
HETATM   17  C   UNL     1      26.860  45.685  53.712  1.00  0.00    -0.036 A 
HETATM   18  C   UNL     1      26.973  46.958  54.298  1.00  0.00     0.009 A 
HETATM   19  C   UNL     1      27.920  47.210  55.292  1.00  0.00     0.001 A 
HETATM   20  C   UNL     1      28.778  46.195  55.709  1.00  0.00     0.000 A 
HETATM   21  C   UNL     1      28.691  44.931  55.131  1.00  0.00     0.001 A 
HETATM   22  C   UNL     1      27.742  44.678  54.135  1.00  0.00     0.009 A 
ENDBRANCH  15  17
ENDBRANCH  12  15
ENDBRANCH   6  11
ENDBRANCH   1   5
BRANCH   2  23
HETATM   23  C   UNL     1      20.745  48.475  49.237  1.00  0.00     0.240 C 
BRANCH  23  24
HETATM   24  N   UNL     1      20.073  49.747  49.073  1.00  0.00    -0.259 N 
HETATM   25  C   UNL     1      20.362  50.834  49.835  1.00  0.00     0.326 C 
HETATM   26  O   UNL     1      21.317  50.991  50.576  1.00  0.00    -0.247 OA
HETATM   27  N   UNL     1      19.336  51.740  49.714  1.00  0.00    -0.324 N 
HETATM   28  C   UNL     1      18.312  51.310  48.777  1.00  0.00     0.120 C 
HETATM   29  H   UNL     1      19.375  52.635  50.185  1.00  0.00     0.165 HD
HETATM   30  C   UNL     1      18.450  52.098  47.468  1.00  0.00     0.080 C 
HETATM   31  C   UNL     1      16.916  51.405  49.382  1.00  0.00     0.046 C 
HETATM   32  C   UNL     1      18.789  49.853  48.604  1.00  0.00     0.257 C 
HETATM   33  C   UNL     1      17.235  52.063  46.577  1.00  0.00    -0.049 A 
HETATM   34  C   UNL     1      15.998  51.570  47.021  1.00  0.00    -0.052 A 
HETATM   35  C   UNL     1      17.345  52.585  45.278  1.00  0.00     0.007 A 
HETATM   36  C   UNL     1      15.826  50.982  48.398  1.00  0.00     0.042 C 
HETATM   37  C   UNL     1      14.906  51.566  46.139  1.00  0.00     0.007 A 
HETATM   38  C   UNL     1      15.030  52.077  44.847  1.00  0.00     0.001 A 
HETATM   39  C   UNL     1      16.248  52.592  44.418  1.00  0.00     0.001 A 
HETATM   40  O   UNL     1      18.142  48.938  48.114  1.00  0.00    -0.270 OA
ENDBRANCH  23  24
ENDBRANCH   2  23
TORSDOF 6
ENDMDL
MODEL 2
REMARK VINA RESULT:     -10.7      1.755      2.580
REMARK  6 active torsions:
REMARK  status: ('A' for Active; 'I' for Inactive)
REMARK    1  A    between atoms: C_2  and  N_3 
REMARK    2  A    between atoms: C_2  and  C_32 
REMARK       I    between atoms: N_3  and  C_4 
REMARK    3  A    between atoms: C_4  and  C_5 
REMARK    4  A    between atoms: C_6  and  N_7 
REMARK       I    between atoms: N_7  and  C_8 
REMARK    5  A    between atoms: C_8  and  C_9 
REMARK    6  A    between atoms: C_9  and  N_10 
ROOT
HETATM    1  N   UNL     1      22.797  47.949  49.283  1.00  0.00    -0.325 N 
HETATM    2  C   UNL     1      22.036  47.201  48.408  1.00  0.00     0.240 C 
HETATM    3  O   UNL     1      22.492  46.557  47.462  1.00  0.00    -0.271 OA
HETATM    4  H   UNL     1      22.399  48.169  50.198  1.00  0.00     0.169 HD
ENDROOT
BRANCH   1   5
HETATM    5  C   UNL     1      24.113  48.429  49.060  1.00  0.00     0.050 A 
HETATM    6  C   UNL     1      25.209  47.820  49.704  1.00  0.00     0.058 A 
HETATM    7  C   UNL     1      26.503  48.354  49.559  1.00  0.00     0.019 A 
HETATM    8  C   UNL     1      26.721  49.466  48.748  1.00  0.00     0.001 A 
HETATM    9  C   UNL     1      25.649  50.054  48.087  1.00  0.00     0.002 A 
HETATM   10  C   UNL     1      24.357  49.545  48.247  1.00  0.00     0.030 A 
BRANCH   6  11
HETATM   11  C   UNL     1      25.019  46.593  50.531  1.00  0.00     0.254 C 
HETATM   12  N   UNL     1      25.984  46.372  51.487  1.00  0.00    -0.349 N 
HETATM   13  H   UNL     1      26.768  47.004  51.564  1.00  0.00     0.163 HD
HETATM   14  O   UNL     1      24.074  45.842  50.312  1.00  0.00    -0.268 OA
BRANCH  12  15
HETATM   15  C   UNL     1      25.886  45.333  52.499  1.00  0.00     0.114 C 
HETATM   16  C   UNL     1      26.182  43.966  51.879  1.00  0.00     0.037 C 
BRANCH  15  17
HETATM   17  C   UNL     1      26.804  45.708  53.652  1.00  0.00    -0.036 A 
HETATM   18  C   UNL     1      26.831  47.043  54.091  1.00  0.00     0.009 A 
HETATM   19  C   UNL     1      27.695  47.446  55.110  1.00  0.00     0.001 A 
HETATM   20  C   UNL     1      28.555  46.522  55.700  1.00  0.00     0.000 A 
HETATM   21  C   UNL     1      28.552  45.198  55.269  1.00  0.00     0.001 A 
HETATM   22  C   UNL     1      27.687  44.793  54.248  1.00  0.00     0.009 A 
ENDBRANCH  15  17
ENDBRANCH  12  15
ENDBRANCH   6  11
ENDBRANCH   1   5
BRANCH   2  23
HETATM   23  C   UNL     1      20.563  47.054  48.785  1.00  0.00     0.240 C 
BRANCH  23  24
HETATM   24  N   UNL     1      19.672  47.984  48.124  1.00  0.00    -0.259 N 
HETATM   25  C   UNL     1      19.423  47.939  46.788  1.00  0.00     0.326 C 
HETATM   26  O   UNL     1      19.699  47.043  46.010  1.00  0.00    -0.247 OA
HETATM   27  N   UNL     1      18.866  49.135  46.404  1.00  0.00    -0.324 N 
HETATM   28  C   UNL     1      18.649  50.039  47.522  1.00  0.00     0.120 C 
HETATM   29  H   UNL     1      18.580  49.292  45.447  1.00  0.00     0.165 HD
HETATM   30  C   UNL     1      17.157  50.069  47.875  1.00  0.00     0.080 C 
HETATM   31  C   UNL     1      19.222  51.425  47.248  1.00  0.00     0.046 C 
HETATM   32  C   UNL     1      19.457  49.259  48.580  1.00  0.00     0.257 C 
HETATM   33  C   UNL     1      16.728  51.244  48.715  1.00  0.00    -0.049 A 
HETATM   34  C   UNL     1      17.567  52.348  48.938  1.00  0.00    -0.052 A 
HETATM   35  C   UNL     1      15.430  51.245  49.251  1.00  0.00     0.007 A 
HETATM   36  C   UNL     1      18.975  52.395  48.403  1.00  0.00     0.042 C 
HETATM   37  C   UNL     1      17.106  53.411  49.731  1.00  0.00     0.007 A 
HETATM   38  C   UNL     1      15.818  53.394  50.266  1.00  0.00     0.001 A 
HETATM   39  C   UNL     1      14.977  52.314  50.021  1.00  0.00     0.001 A 
HETATM   40  O   UNL     1      19.835  49.692  49.659  1.00  0.00    -0.270 OA
ENDBRANCH  23  24
ENDBRANCH   2  23
TORSDOF 6
ENDMDL
MODEL 3
REMARK VINA RESULT:     -10.4      2.614      3.605
REMARK  6 active torsions:
REMARK  status: ('A' for Active; 'I' for Inactive)
REMARK    1  A    between atoms: C_2  and  N_3 
REMARK    2  A    between atoms: C_2  and  C_32 
REMARK       I    between atoms: N_3  and  C_4 
REMARK    3  A    between atoms: C_4  and  C_5 
REMARK    4  A    between atoms: C_6  and  N_7 
REMARK       I    between atoms: N_7  and  C_8 
REMARK    5  A    between atoms: C_8  and  C_9 
REMARK    6  A    between atoms: C_9  and  N_10 
ROOT
HETATM    1  N   UNL     1      22.839  46.801  49.473  1.00  0.00    -0.325 N 
HETATM    2  C   UNL     1      22.243  46.100  48.445  1.00  0.00     0.240 C 
HETATM    3  O   UNL     1      22.857  45.491  47.568  1.00  0.00    -0.271 OA
HETATM    4  H   UNL     1      22.286  46.987  50.312  1.00  0.00     0.169 HD
ENDROOT
BRANCH   1   5
HETATM    5  C   UNL     1      24.176  47.275  49.508  1.00  0.00     0.050 A 
HETATM    6  C   UNL     1      25.175  46.531  50.167  1.00  0.00     0.058 A 
HETATM    7  C   UNL     1      26.480  47.045  50.285  1.00  0.00     0.019 A 
HETATM    8  C   UNL     1      26.808  48.275  49.719  1.00  0.00     0.001 A 
HETATM    9  C   UNL     1      25.835  49.000  49.042  1.00  0.00     0.002 A 
HETATM   10  C   UNL     1      24.531  48.508  48.943  1.00  0.00     0.030 A 
BRANCH   6  11
HETATM   11  C   UNL     1      24.872  45.184  50.732  1.00  0.00     0.254 C 
HETATM   12  N   UNL     1      25.804  44.208  50.461  1.00  0.00    -0.349 N 
HETATM   13  H   UNL     1      26.604  44.425  49.884  1.00  0.00     0.163 HD
HETATM   14  O   UNL     1      23.833  44.997  51.357  1.00  0.00    -0.268 OA
BRANCH  12  15
HETATM   15  C   UNL     1      25.777  42.885  51.062  1.00  0.00     0.114 C 
HETATM   16  C   UNL     1      25.345  41.846  50.026  1.00  0.00     0.037 C 
BRANCH  15  17
HETATM   17  C   UNL     1      27.139  42.620  51.682  1.00  0.00    -0.036 A 
HETATM   18  C   UNL     1      27.487  41.300  52.019  1.00  0.00     0.009 A 
HETATM   19  C   UNL     1      28.704  41.014  52.638  1.00  0.00     0.001 A 
HETATM   20  C   UNL     1      29.591  42.045  52.942  1.00  0.00     0.000 A 
HETATM   21  C   UNL     1      29.258  43.361  52.629  1.00  0.00     0.001 A 
HETATM   22  C   UNL     1      28.038  43.649  52.008  1.00  0.00     0.009 A 
ENDBRANCH  15  17
ENDBRANCH  12  15
ENDBRANCH   6  11
ENDBRANCH   1   5
BRANCH   2  23
HETATM   23  C   UNL     1      20.726  45.954  48.548  1.00  0.00     0.240 C 
BRANCH  23  24
HETATM   24  N   UNL     1      19.970  46.977  47.856  1.00  0.00    -0.259 N 
HETATM   25  C   UNL     1      19.769  46.958  46.512  1.00  0.00     0.326 C 
HETATM   26  O   UNL     1      19.974  46.036  45.742  1.00  0.00    -0.247 OA
HETATM   27  N   UNL     1      19.364  48.208  46.111  1.00  0.00    -0.324 N 
HETATM   28  C   UNL     1      19.206  49.132  47.222  1.00  0.00     0.120 C 
HETATM   29  H   UNL     1      19.134  48.395  45.144  1.00  0.00     0.165 HD
HETATM   30  C   UNL     1      17.713  49.328  47.517  1.00  0.00     0.080 C 
HETATM   31  C   UNL     1      19.939  50.446  46.975  1.00  0.00     0.046 C 
HETATM   32  C   UNL     1      19.880  48.268  48.308  1.00  0.00     0.257 C 
HETATM   33  C   UNL     1      17.386  50.545  48.344  1.00  0.00    -0.049 A 
HETATM   34  C   UNL     1      18.333  51.549  48.602  1.00  0.00    -0.052 A 
HETATM   35  C   UNL     1      16.076  50.691  48.829  1.00  0.00     0.007 A 
HETATM   36  C   UNL     1      19.757  51.438  48.122  1.00  0.00     0.042 C 
HETATM   37  C   UNL     1      17.963  52.657  49.380  1.00  0.00     0.007 A 
HETATM   38  C   UNL     1      16.661  52.784  49.866  1.00  0.00     0.001 A 
HETATM   39  C   UNL     1      15.715  51.804  49.585  1.00  0.00     0.001 A 
HETATM   40  O   UNL     1      20.262  48.658  49.403  1.00  0.00    -0.270 OA
ENDBRANCH  23  24
ENDBRANCH   2  23
TORSDOF 6
ENDMDL
MODEL 4
REMARK VINA RESULT:     -10.3      2.255      3.708
REMARK  6 active torsions:
REMARK  status: ('A' for Active; 'I' for Inactive)
REMARK    1  A    between atoms: C_2  and  N_3 
REMARK    2  A    between atoms: C_2  and  C_32 
REMARK       I    between atoms: N_3  and  C_4 
REMARK    3  A    between atoms: C_4  and  C_5 
REMARK    4  A    between atoms: C_6  and  N_7 
REMARK       I    between atoms: N_7  and  C_8 
REMARK    5  A    between atoms: C_8  and  C_9 
REMARK    6  A    between atoms: C_9  and  N_10 
ROOT
HETATM    1  N   UNL     1      23.385  45.904  49.996  1.00  0.00    -0.325 N 
HETATM    2  C   UNL     1      23.222  46.830  48.987  1.00  0.00     0.240 C 
HETATM    3  O   UNL     1      23.025  46.546  47.804  1.00  0.00    -0.271 OA
HETATM    4  H   UNL     1      23.215  46.206  50.957  1.00  0.00     0.169 HD
ENDROOT
BRANCH   1   5
HETATM    5  C   UNL     1      23.739  44.539  49.840  1.00  0.00     0.050 A 
HETATM    6  C   UNL     1      24.998  44.078  50.278  1.00  0.00     0.058 A 
HETATM    7  C   UNL     1      25.389  42.748  50.038  1.00  0.00     0.019 A 
HETATM    8  C   UNL     1      24.523  41.862  49.400  1.00  0.00     0.001 A 
HETATM    9  C   UNL     1      23.270  42.301  48.992  1.00  0.00     0.002 A 
HETATM   10  C   UNL     1      22.884  43.628  49.204  1.00  0.00     0.030 A 
BRANCH   6  11
HETATM   11  C   UNL     1      25.925  44.984  51.017  1.00  0.00     0.254 C 
HETATM   12  N   UNL     1      26.043  44.734  52.365  1.00  0.00    -0.349 N 
HETATM   13  H   UNL     1      25.494  44.000  52.789  1.00  0.00     0.163 HD
HETATM   14  O   UNL     1      26.491  45.900  50.428  1.00  0.00    -0.268 OA
BRANCH  12  15
HETATM   15  C   UNL     1      27.019  45.390  53.219  1.00  0.00     0.114 C 
HETATM   16  C   UNL     1      26.343  45.898  54.494  1.00  0.00     0.037 C 
BRANCH  15  17
HETATM   17  C   UNL     1      28.163  44.419  53.463  1.00  0.00    -0.036 A 
HETATM   18  C   UNL     1      28.845  44.468  54.690  1.00  0.00     0.009 A 
HETATM   19  C   UNL     1      29.935  43.632  54.940  1.00  0.00     0.001 A 
HETATM   20  C   UNL     1      30.368  42.741  53.961  1.00  0.00     0.000 A 
HETATM   21  C   UNL     1      29.713  42.688  52.733  1.00  0.00     0.001 A 
HETATM   22  C   UNL     1      28.621  43.524  52.482  1.00  0.00     0.009 A 
ENDBRANCH  15  17
ENDBRANCH  12  15
ENDBRANCH   6  11
ENDBRANCH   1   5
BRANCH   2  23
HETATM   23  C   UNL     1      23.113  48.282  49.445  1.00  0.00     0.240 C 
BRANCH  23  24
HETATM   24  N   UNL     1      22.304  49.129  48.592  1.00  0.00    -0.259 N 
HETATM   25  C   UNL     1      22.843  50.015  47.714  1.00  0.00     0.326 C 
HETATM   26  O   UNL     1      24.004  50.090  47.351  1.00  0.00    -0.247 OA
HETATM   27  N   UNL     1      21.870  50.911  47.342  1.00  0.00    -0.324 N 
HETATM   28  C   UNL     1      20.573  50.608  47.924  1.00  0.00     0.120 C 
HETATM   29  H   UNL     1      22.065  51.639  46.667  1.00  0.00     0.165 HD
HETATM   30  C   UNL     1      19.663  49.990  46.855  1.00  0.00     0.080 C 
HETATM   31  C   UNL     1      19.956  51.829  48.596  1.00  0.00     0.046 C 
HETATM   32  C   UNL     1      21.045  49.545  48.938  1.00  0.00     0.257 C 
HETATM   33  C   UNL     1      18.193  50.008  47.188  1.00  0.00    -0.049 A 
HETATM   34  C   UNL     1      17.680  50.755  48.261  1.00  0.00    -0.052 A 
HETATM   35  C   UNL     1      17.313  49.287  46.365  1.00  0.00     0.007 A 
HETATM   36  C   UNL     1      18.578  51.533  49.187  1.00  0.00     0.042 C 
HETATM   37  C   UNL     1      16.300  50.728  48.517  1.00  0.00     0.007 A 
HETATM   38  C   UNL     1      15.437  49.999  47.698  1.00  0.00     0.001 A 
HETATM   39  C   UNL     1      15.943  49.283  46.618  1.00  0.00     0.001 A 
HETATM   40  O   UNL     1      20.402  49.123  49.889  1.00  0.00    -0.270 OA
ENDBRANCH  23  24
ENDBRANCH   2  23
TORSDOF 6
ENDMDL
MODEL 5
REMARK VINA RESULT:     -10.1      4.946      7.601
REMARK  6 active torsions:
REMARK  status: ('A' for Active; 'I' for Inactive)
REMARK    1  A    between atoms: C_2  and  N_3 
REMARK    2  A    between atoms: C_2  and  C_32 
REMARK       I    between atoms: N_3  and  C_4 
REMARK    3  A    between atoms: C_4  and  C_5 
REMARK    4  A    between atoms: C_6  and  N_7 
REMARK       I    between atoms: N_7  and  C_8 
REMARK    5  A    between atoms: C_8  and  C_9 
REMARK    6  A    between atoms: C_9  and  N_10 
ROOT
HETATM    1  N   UNL     1      24.852  41.284  48.575  1.00  0.00    -0.325 N 
HETATM    2  C   UNL     1      24.337  41.757  47.385  1.00  0.00     0.240 C 
HETATM    3  O   UNL     1      24.663  41.346  46.271  1.00  0.00    -0.271 OA
HETATM    4  H   UNL     1      24.309  41.435  49.427  1.00  0.00     0.169 HD
ENDROOT
BRANCH   1   5
HETATM    5  C   UNL     1      26.064  40.566  48.744  1.00  0.00     0.050 A 
HETATM    6  C   UNL     1      27.177  41.186  49.348  1.00  0.00     0.058 A 
HETATM    7  C   UNL     1      28.408  40.508  49.429  1.00  0.00     0.019 A 
HETATM    8  C   UNL     1      28.530  39.206  48.950  1.00  0.00     0.001 A 
HETATM    9  C   UNL     1      27.429  38.578  48.380  1.00  0.00     0.002 A 
HETATM   10  C   UNL     1      26.210  39.254  48.272  1.00  0.00     0.030 A 
BRANCH   6  11
HETATM   11  C   UNL     1      27.064  42.557  49.925  1.00  0.00     0.254 C 
HETATM   12  N   UNL     1      27.132  42.625  51.298  1.00  0.00    -0.349 N 
HETATM   13  H   UNL     1      27.216  41.777  51.839  1.00  0.00     0.163 HD
HETATM   14  O   UNL     1      26.885  43.522  49.189  1.00  0.00    -0.268 OA
BRANCH  12  15
HETATM   15  C   UNL     1      27.214  43.876  52.034  1.00  0.00     0.114 C 
HETATM   16  C   UNL     1      25.867  44.190  52.688  1.00  0.00     0.037 C 
BRANCH  15  17
HETATM   17  C   UNL     1      28.373  43.773  53.012  1.00  0.00    -0.036 A 
HETATM   18  C   UNL     1      29.406  42.856  52.747  1.00  0.00     0.009 A 
HETATM   19  C   UNL     1      30.464  42.689  53.641  1.00  0.00     0.001 A 
HETATM   20  C   UNL     1      30.502  43.428  54.821  1.00  0.00     0.000 A 
HETATM   21  C   UNL     1      29.481  44.331  55.108  1.00  0.00     0.001 A 
HETATM   22  C   UNL     1      28.420  44.500  54.213  1.00  0.00     0.009 A 
ENDBRANCH  15  17
ENDBRANCH  12  15
ENDBRANCH   6  11
ENDBRANCH   1   5
BRANCH   2  23
HETATM   23  C   UNL     1      23.167  42.729  47.521  1.00  0.00     0.240 C 
BRANCH  23  24
HETATM   24  N   UNL     1      23.361  43.780  48.497  1.00  0.00    -0.259 N 
HETATM   25  C   UNL     1      22.929  43.679  49.782  1.00  0.00     0.326 C 
HETATM   26  O   UNL     1      22.538  42.679  50.358  1.00  0.00    -0.247 OA
HETATM   27  N   UNL     1      22.913  44.934  50.341  1.00  0.00    -0.324 N 
HETATM   28  C   UNL     1      23.419  45.957  49.440  1.00  0.00     0.120 C 
HETATM   29  H   UNL     1      22.647  45.070  51.307  1.00  0.00     0.165 HD
HETATM   30  C   UNL     1      24.833  46.366  49.871  1.00  0.00     0.080 C 
HETATM   31  C   UNL     1      22.465  47.142  49.338  1.00  0.00     0.046 C 
HETATM   32  C   UNL     1      23.451  45.105  48.155  1.00  0.00     0.257 C 
HETATM   33  C   UNL     1      25.314  47.677  49.304  1.00  0.00    -0.049 A 
HETATM   34  C   UNL     1      24.449  48.569  48.650  1.00  0.00    -0.052 A 
HETATM   35  C   UNL     1      26.662  48.028  49.481  1.00  0.00     0.007 A 
HETATM   36  C   UNL     1      22.997  48.239  48.417  1.00  0.00     0.042 C 
HETATM   37  C   UNL     1      24.961  49.775  48.146  1.00  0.00     0.007 A 
HETATM   38  C   UNL     1      26.305  50.106  48.318  1.00  0.00     0.001 A 
HETATM   39  C   UNL     1      27.155  49.235  48.992  1.00  0.00     0.001 A 
HETATM   40  O   UNL     1      23.556  45.529  47.013  1.00  0.00    -0.270 OA
ENDBRANCH  23  24
ENDBRANCH   2  23
TORSDOF 6
ENDMDL
MODEL 6
REMARK VINA RESULT:      -9.9      7.261     10.677
REMARK  6 active torsions:
REMARK  status: ('A' for Active; 'I' for Inactive)
REMARK    1  A    between atoms: C_2  and  N_3 
REMARK    2  A    between atoms: C_2  and  C_32 
REMARK       I    between atoms: N_3  and  C_4 
REMARK    3  A    between atoms: C_4  and  C_5 
REMARK    4  A    between atoms: C_6  and  N_7 
REMARK       I    between atoms: N_7  and  C_8 
REMARK    5  A    between atoms: C_8  and  C_9 
REMARK    6  A    between atoms: C_9  and  N_10 
ROOT
HETATM    1  N   UNL     1      25.561  43.082  51.312  1.00  0.00    -0.325 N 
HETATM    2  C   UNL     1      26.175  42.492  50.226  1.00  0.00     0.240 C 
HETATM    3  O   UNL     1      27.148  42.961  49.634  1.00  0.00    -0.271 OA
HETATM    4  H   UNL     1      24.999  42.490  51.926  1.00  0.00     0.169 HD
ENDROOT
BRANCH   1   5
HETATM    5  C   UNL     1      25.654  44.445  51.696  1.00  0.00     0.050 A 
HETATM    6  C   UNL     1      26.400  44.811  52.834  1.00  0.00     0.058 A 
HETATM    7  C   UNL     1      26.414  46.149  53.272  1.00  0.00     0.019 A 
HETATM    8  C   UNL     1      25.723  47.131  52.564  1.00  0.00     0.001 A 
HETATM    9  C   UNL     1      25.009  46.781  51.425  1.00  0.00     0.002 A 
HETATM   10  C   UNL     1      24.969  45.450  50.999  1.00  0.00     0.030 A 
BRANCH   6  11
HETATM   11  C   UNL     1      27.200  43.796  53.579  1.00  0.00     0.254 C 
HETATM   12  N   UNL     1      28.560  43.854  53.378  1.00  0.00    -0.349 N 
HETATM   13  H   UNL     1      28.944  44.531  52.733  1.00  0.00     0.163 HD
HETATM   14  O   UNL     1      26.636  42.962  54.281  1.00  0.00    -0.268 OA
BRANCH  12  15
HETATM   15  C   UNL     1      29.517  43.069  54.140  1.00  0.00     0.114 C 
HETATM   16  C   UNL     1      30.692  42.663  53.249  1.00  0.00     0.037 C 
BRANCH  15  17
HETATM   17  C   UNL     1      29.912  43.870  55.370  1.00  0.00    -0.036 A 
HETATM   18  C   UNL     1      29.335  45.136  55.571  1.00  0.00     0.009 A 
HETATM   19  C   UNL     1      29.706  45.930  56.657  1.00  0.00     0.001 A 
HETATM   20  C   UNL     1      30.669  45.477  57.554  1.00  0.00     0.000 A 
HETATM   21  C   UNL     1      31.264  44.232  57.363  1.00  0.00     0.001 A 
HETATM   22  C   UNL     1      30.893  43.435  56.276  1.00  0.00     0.009 A 
ENDBRANCH  15  17
ENDBRANCH  12  15
ENDBRANCH   6  11
ENDBRANCH   1   5
BRANCH   2  23
HETATM   23  C   UNL     1      25.689  41.084  49.887  1.00  0.00     0.240 C 
BRANCH  23  24
HETATM   24  N   UNL     1      25.496  40.833  48.474  1.00  0.00    -0.259 N 
HETATM   25  C   UNL     1      24.269  40.834  47.889  1.00  0.00     0.326 C 
HETATM   26  O   UNL     1      23.221  41.238  48.361  1.00  0.00    -0.247 OA
HETATM   27  N   UNL     1      24.364  40.208  46.670  1.00  0.00    -0.324 N 
HETATM   28  C   UNL     1      25.723  39.808  46.346  1.00  0.00     0.120 C 
HETATM   29  H   UNL     1      23.559  40.130  46.062  1.00  0.00     0.165 HD
HETATM   30  C   UNL     1      26.304  40.768  45.299  1.00  0.00     0.080 C 
HETATM   31  C   UNL     1      25.796  38.347  45.916  1.00  0.00     0.046 C 
HETATM   32  C   UNL     1      26.348  40.053  47.735  1.00  0.00     0.257 C 
HETATM   33  C   UNL     1      27.521  40.253  44.574  1.00  0.00    -0.049 A 
HETATM   34  C   UNL     1      27.931  38.912  44.663  1.00  0.00    -0.052 A 
HETATM   35  C   UNL     1      28.233  41.139  43.750  1.00  0.00     0.007 A 
HETATM   36  C   UNL     1      27.216  37.921  45.545  1.00  0.00     0.042 C 
HETATM   37  C   UNL     1      29.074  38.497  43.962  1.00  0.00     0.007 A 
HETATM   38  C   UNL     1      29.779  39.390  43.156  1.00  0.00     0.001 A 
HETATM   39  C   UNL     1      29.355  40.710  43.044  1.00  0.00     0.001 A 
HETATM   40  O   UNL     1      27.432  39.638  48.119  1.00  0.00    -0.270 OA
ENDBRANCH  23  24
ENDBRANCH   2  23
TORSDOF 6
ENDMDL
MODEL 7
REMARK VINA RESULT:      -9.6     21.890     25.369
REMARK  6 active torsions:
REMARK  status: ('A' for Active; 'I' for Inactive)
REMARK    1  A    between atoms: C_2  and  N_3 
REMARK    2  A    between atoms: C_2  and  C_32 
REMARK       I    between atoms: N_3  and  C_4 
REMARK    3  A    between atoms: C_4  and  C_5 
REMARK    4  A    between atoms: C_6  and  N_7 
REMARK       I    between atoms: N_7  and  C_8 
REMARK    5  A    between atoms: C_8  and  C_9 
REMARK    6  A    between atoms: C_9  and  N_10 
ROOT
HETATM    1  N   UNL     1      37.655  46.311  64.218  1.00  0.00    -0.325 N 
HETATM    2  C   UNL     1      36.943  45.277  64.790  1.00  0.00     0.240 C 
HETATM    3  O   UNL     1      36.251  45.382  65.804  1.00  0.00    -0.271 OA
HETATM    4  H   UNL     1      37.919  46.227  63.235  1.00  0.00     0.169 HD
ENDROOT
BRANCH   1   5
HETATM    5  C   UNL     1      38.040  47.521  64.851  1.00  0.00     0.050 A 
HETATM    6  C   UNL     1      39.259  47.595  65.556  1.00  0.00     0.058 A 
HETATM    7  C   UNL     1      39.598  48.763  66.264  1.00  0.00     0.019 A 
HETATM    8  C   UNL     1      38.752  49.871  66.246  1.00  0.00     0.001 A 
HETATM    9  C   UNL     1      37.563  49.814  65.530  1.00  0.00     0.002 A 
HETATM   10  C   UNL     1      37.208  48.649  64.845  1.00  0.00     0.030 A 
BRANCH   6  11
HETATM   11  C   UNL     1      40.214  46.450  65.546  1.00  0.00     0.254 C 
HETATM   12  N   UNL     1      41.433  46.704  64.959  1.00  0.00    -0.349 N 
HETATM   13  H   UNL     1      41.612  47.607  64.544  1.00  0.00     0.163 HD
HETATM   14  O   UNL     1      39.879  45.364  66.008  1.00  0.00    -0.268 OA
BRANCH  12  15
HETATM   15  C   UNL     1      42.552  45.778  65.004  1.00  0.00     0.114 C 
HETATM   16  C   UNL     1      42.643  45.000  63.690  1.00  0.00     0.037 C 
BRANCH  15  17
HETATM   17  C   UNL     1      43.805  46.567  65.351  1.00  0.00    -0.036 A 
HETATM   18  C   UNL     1      43.778  47.431  66.459  1.00  0.00     0.009 A 
HETATM   19  C   UNL     1      44.886  48.214  66.785  1.00  0.00     0.001 A 
HETATM   20  C   UNL     1      46.036  48.155  66.002  1.00  0.00     0.000 A 
HETATM   21  C   UNL     1      46.076  47.315  64.891  1.00  0.00     0.001 A 
HETATM   22  C   UNL     1      44.967  46.530  64.563  1.00  0.00     0.009 A 
ENDBRANCH  15  17
ENDBRANCH  12  15
ENDBRANCH   6  11
ENDBRANCH   1   5
BRANCH   2  23
HETATM   23  C   UNL     1      36.904  43.984  63.977  1.00  0.00     0.240 C 
BRANCH  23  24
HETATM   24  N   UNL     1      38.155  43.258  63.930  1.00  0.00    -0.259 N 
HETATM   25  C   UNL     1      39.153  43.569  63.060  1.00  0.00     0.326 C 
HETATM   26  O   UNL     1      39.258  44.573  62.378  1.00  0.00    -0.247 OA
HETATM   27  N   UNL     1      40.021  42.507  62.991  1.00  0.00    -0.324 N 
HETATM   28  C   UNL     1      39.665  41.428  63.898  1.00  0.00     0.120 C 
HETATM   29  H   UNL     1      40.852  42.551  62.415  1.00  0.00     0.165 HD
HETATM   30  C   UNL     1      40.613  41.437  65.103  1.00  0.00     0.080 C 
HETATM   31  C   UNL     1      39.624  40.080  63.185  1.00  0.00     0.046 C 
HETATM   32  C   UNL     1      38.263  41.939  64.287  1.00  0.00     0.257 C 
HETATM   33  C   UNL     1      40.636  40.158  65.901  1.00  0.00    -0.049 A 
HETATM   34  C   UNL     1      40.038  38.976  65.434  1.00  0.00    -0.052 A 
HETATM   35  C   UNL     1      41.317  40.148  67.129  1.00  0.00     0.007 A 
HETATM   36  C   UNL     1      39.279  38.932  64.133  1.00  0.00     0.042 C 
HETATM   37  C   UNL     1      40.095  37.820  66.227  1.00  0.00     0.007 A 
HETATM   38  C   UNL     1      40.766  37.826  67.450  1.00  0.00     0.001 A 
HETATM   39  C   UNL     1      41.383  38.989  67.899  1.00  0.00     0.001 A 
HETATM   40  O   UNL     1      37.387  41.287  64.840  1.00  0.00    -0.270 OA
ENDBRANCH  23  24
ENDBRANCH   2  23
TORSDOF 6
ENDMDL
MODEL 8
REMARK VINA RESULT:      -9.6      2.420     11.229
REMARK  6 active torsions:
REMARK  status: ('A' for Active; 'I' for Inactive)
REMARK    1  A    between atoms: C_2  and  N_3 
REMARK    2  A    between atoms: C_2  and  C_32 
REMARK       I    between atoms: N_3  and  C_4 
REMARK    3  A    between atoms: C_4  and  C_5 
REMARK    4  A    between atoms: C_6  and  N_7 
REMARK       I    between atoms: N_7  and  C_8 
REMARK    5  A    between atoms: C_8  and  C_9 
REMARK    6  A    between atoms: C_9  and  N_10 
ROOT
HETATM    1  N   UNL     1      22.181  46.404  49.148  1.00  0.00    -0.325 N 
HETATM    2  C   UNL     1      23.420  45.829  48.946  1.00  0.00     0.240 C 
HETATM    3  O   UNL     1      23.744  45.207  47.934  1.00  0.00    -0.271 OA
HETATM    4  H   UNL     1      22.107  47.156  49.837  1.00  0.00     0.169 HD
ENDROOT
BRANCH   1   5
HETATM    5  C   UNL     1      20.980  46.081  48.467  1.00  0.00     0.050 A 
HETATM    6  C   UNL     1      19.850  46.915  48.587  1.00  0.00     0.058 A 
HETATM    7  C   UNL     1      18.630  46.546  47.991  1.00  0.00     0.019 A 
HETATM    8  C   UNL     1      18.535  45.374  47.244  1.00  0.00     0.001 A 
HETATM    9  C   UNL     1      19.652  44.561  47.097  1.00  0.00     0.002 A 
HETATM   10  C   UNL     1      20.861  44.908  47.708  1.00  0.00     0.030 A 
BRANCH   6  11
HETATM   11  C   UNL     1      19.934  48.206  49.329  1.00  0.00     0.254 C 
HETATM   12  N   UNL     1      20.817  49.127  48.812  1.00  0.00    -0.349 N 
HETATM   13  H   UNL     1      21.377  48.887  48.006  1.00  0.00     0.163 HD
HETATM   14  O   UNL     1      19.269  48.377  50.347  1.00  0.00    -0.268 OA
BRANCH  12  15
HETATM   15  C   UNL     1      20.915  50.497  49.287  1.00  0.00     0.114 C 
HETATM   16  C   UNL     1      22.162  51.166  48.705  1.00  0.00     0.037 C 
BRANCH  15  17
HETATM   17  C   UNL     1      19.613  51.206  48.955  1.00  0.00    -0.036 A 
HETATM   18  C   UNL     1      19.201  51.278  47.613  1.00  0.00     0.009 A 
HETATM   19  C   UNL     1      18.040  51.963  47.254  1.00  0.00     0.001 A 
HETATM   20  C   UNL     1      17.276  52.599  48.230  1.00  0.00     0.000 A 
HETATM   21  C   UNL     1      17.676  52.552  49.563  1.00  0.00     0.001 A 
HETATM   22  C   UNL     1      18.839  51.865  49.925  1.00  0.00     0.009 A 
ENDBRANCH  15  17
ENDBRANCH  12  15
ENDBRANCH   6  11
ENDBRANCH   1   5
BRANCH   2  23
HETATM   23  C   UNL     1      24.475  46.166  49.998  1.00  0.00     0.240 C 
BRANCH  23  24
HETATM   24  N   UNL     1      24.855  45.060  50.852  1.00  0.00    -0.259 N 
HETATM   25  C   UNL     1      24.029  44.010  51.105  1.00  0.00     0.326 C 
HETATM   26  O   UNL     1      22.996  43.720  50.527  1.00  0.00    -0.247 OA
HETATM   27  N   UNL     1      24.498  43.339  52.209  1.00  0.00    -0.324 N 
HETATM   28  C   UNL     1      25.742  43.893  52.718  1.00  0.00     0.120 C 
HETATM   29  H   UNL     1      24.035  42.505  52.545  1.00  0.00     0.165 HD
HETATM   30  C   UNL     1      26.909  42.976  52.328  1.00  0.00     0.080 C 
HETATM   31  C   UNL     1      25.671  44.157  54.218  1.00  0.00     0.046 C 
HETATM   32  C   UNL     1      25.748  45.190  51.883  1.00  0.00     0.257 C 
HETATM   33  C   UNL     1      28.174  43.190  53.118  1.00  0.00    -0.049 A 
HETATM   34  C   UNL     1      28.203  43.978  54.281  1.00  0.00    -0.052 A 
HETATM   35  C   UNL     1      29.344  42.540  52.695  1.00  0.00     0.007 A 
HETATM   36  C   UNL     1      26.983  44.712  54.772  1.00  0.00     0.042 C 
HETATM   37  C   UNL     1      29.415  44.136  54.971  1.00  0.00     0.007 A 
HETATM   38  C   UNL     1      30.573  43.494  54.534  1.00  0.00     0.001 A 
HETATM   39  C   UNL     1      30.537  42.690  53.399  1.00  0.00     0.001 A 
HETATM   40  O   UNL     1      26.445  46.174  52.089  1.00  0.00    -0.270 OA
ENDBRANCH  23  24
ENDBRANCH   2  23
TORSDOF 6
ENDMDL
MODEL 9
REMARK VINA RESULT:      -9.6      3.294     11.266
REMARK  6 active torsions:
REMARK  status: ('A' for Active; 'I' for Inactive)
REMARK    1  A    between atoms: C_2  and  N_3 
REMARK    2  A    between atoms: C_2  and  C_32 
REMARK       I    between atoms: N_3  and  C_4 
REMARK    3  A    between atoms: C_4  and  C_5 
REMARK    4  A    between atoms: C_6  and  N_7 
REMARK       I    between atoms: N_7  and  C_8 
REMARK    5  A    between atoms: C_8  and  C_9 
REMARK    6  A    between atoms: C_9  and  N_10 
ROOT
HETATM    1  N   UNL     1      23.513  47.388  48.933  1.00  0.00    -0.325 N 
HETATM    2  C   UNL     1      24.459  47.120  49.902  1.00  0.00     0.240 C 
HETATM    3  O   UNL     1      24.583  47.756  50.950  1.00  0.00    -0.271 OA
HETATM    4  H   UNL     1      23.268  46.640  48.281  1.00  0.00     0.169 HD
ENDROOT
BRANCH   1   5
HETATM    5  C   UNL     1      22.804  48.604  48.759  1.00  0.00     0.050 A 
HETATM    6  C   UNL     1      21.426  48.585  48.462  1.00  0.00     0.058 A 
HETATM    7  C   UNL     1      20.742  49.786  48.195  1.00  0.00     0.019 A 
HETATM    8  C   UNL     1      21.409  51.008  48.258  1.00  0.00     0.001 A 
HETATM    9  C   UNL     1      22.760  51.036  48.579  1.00  0.00     0.002 A 
HETATM   10  C   UNL     1      23.453  49.846  48.820  1.00  0.00     0.030 A 
BRANCH   6  11
HETATM   11  C   UNL     1      20.669  47.300  48.445  1.00  0.00     0.254 C 
HETATM   12  N   UNL     1      19.345  47.401  48.083  1.00  0.00    -0.349 N 
HETATM   13  H   UNL     1      18.946  48.308  47.886  1.00  0.00     0.163 HD
HETATM   14  O   UNL     1      21.221  46.255  48.776  1.00  0.00    -0.268 OA
BRANCH  12  15
HETATM   15  C   UNL     1      18.491  46.250  47.841  1.00  0.00     0.114 C 
HETATM   16  C   UNL     1      17.128  46.459  48.506  1.00  0.00     0.037 C 
BRANCH  15  17
HETATM   17  C   UNL     1      18.424  46.018  46.340  1.00  0.00    -0.036 A 
HETATM   18  C   UNL     1      17.578  45.010  45.846  1.00  0.00     0.009 A 
HETATM   19  C   UNL     1      17.523  44.725  44.481  1.00  0.00     0.001 A 
HETATM   20  C   UNL     1      18.322  45.435  43.588  1.00  0.00     0.000 A 
HETATM   21  C   UNL     1      19.178  46.427  44.061  1.00  0.00     0.001 A 
HETATM   22  C   UNL     1      19.234  46.714  45.428  1.00  0.00     0.009 A 
ENDBRANCH  15  17
ENDBRANCH  12  15
ENDBRANCH   6  11
ENDBRANCH   1   5
BRANCH   2  23
HETATM   23  C   UNL     1      25.261  45.838  49.694  1.00  0.00     0.240 C 
BRANCH  23  24
HETATM   24  N   UNL     1      25.420  45.022  50.879  1.00  0.00    -0.259 N 
HETATM   25  C   UNL     1      24.428  44.227  51.361  1.00  0.00     0.326 C 
HETATM   26  O   UNL     1      23.394  43.906  50.802  1.00  0.00    -0.247 OA
HETATM   27  N   UNL     1      24.729  43.888  52.658  1.00  0.00    -0.324 N 
HETATM   28  C   UNL     1      26.016  44.406  53.092  1.00  0.00     0.120 C 
HETATM   29  H   UNL     1      24.125  43.273  53.188  1.00  0.00     0.165 HD
HETATM   30  C   UNL     1      27.044  43.268  53.120  1.00  0.00     0.080 C 
HETATM   31  C   UNL     1      25.910  45.142  54.423  1.00  0.00     0.046 C 
HETATM   32  C   UNL     1      26.268  45.356  51.903  1.00  0.00     0.257 C 
HETATM   33  C   UNL     1      28.285  43.554  53.926  1.00  0.00    -0.049 A 
HETATM   34  C   UNL     1      28.377  44.660  54.786  1.00  0.00    -0.052 A 
HETATM   35  C   UNL     1      29.360  42.655  53.841  1.00  0.00     0.007 A 
HETATM   36  C   UNL     1      27.262  45.668  54.905  1.00  0.00     0.042 C 
HETATM   37  C   UNL     1      29.561  44.870  55.510  1.00  0.00     0.007 A 
HETATM   38  C   UNL     1      30.626  43.975  55.408  1.00  0.00     0.001 A 
HETATM   39  C   UNL     1      30.524  42.863  54.578  1.00  0.00     0.001 A 
HETATM   40  O   UNL     1      27.098  46.254  51.863  1.00  0.00    -0.270 OA
ENDBRANCH  23  24
ENDBRANCH   2  23
TORSDOF 6
ENDMDL
MODEL 10
REMARK VINA RESULT:      -9.6      3.293     10.630
REMARK  6 active torsions:
REMARK  status: ('A' for Active; 'I' for Inactive)
REMARK    1  A    between atoms: C_2  and  N_3 
REMARK    2  A    between atoms: C_2  and  C_32 
REMARK       I    between atoms: N_3  and  C_4 
REMARK    3  A    between atoms: C_4  and  C_5 
REMARK    4  A    between atoms: C_6  and  N_7 
REMARK       I    between atoms: N_7  and  C_8 
REMARK    5  A    between atoms: C_8  and  C_9 
REMARK    6  A    between atoms: C_9  and  N_10 
ROOT
HETATM    1  N   UNL     1      17.084  47.090  46.647  1.00  0.00    -0.325 N 
HETATM    2  C   UNL     1      18.335  47.674  46.656  1.00  0.00     0.240 C 
HETATM    3  O   UNL     1      18.567  48.831  46.304  1.00  0.00    -0.271 OA
HETATM    4  H   UNL     1      16.931  46.275  47.244  1.00  0.00     0.169 HD
ENDROOT
BRANCH   1   5
HETATM    5  C   UNL     1      15.954  47.526  45.909  1.00  0.00     0.050 A 
HETATM    6  C   UNL     1      15.094  48.506  46.443  1.00  0.00     0.058 A 
HETATM    7  C   UNL     1      13.921  48.870  45.755  1.00  0.00     0.019 A 
HETATM    8  C   UNL     1      13.617  48.295  44.523  1.00  0.00     0.001 A 
HETATM    9  C   UNL     1      14.476  47.350  43.977  1.00  0.00     0.002 A 
HETATM   10  C   UNL     1      15.630  46.964  44.666  1.00  0.00     0.030 A 
BRANCH   6  11
HETATM   11  C   UNL     1      15.420  49.185  47.731  1.00  0.00     0.254 C 
HETATM   12  N   UNL     1      15.987  50.433  47.612  1.00  0.00    -0.349 N 
HETATM   13  H   UNL     1      16.184  50.810  46.695  1.00  0.00     0.163 HD
HETATM   14  O   UNL     1      15.214  48.614  48.797  1.00  0.00    -0.268 OA
BRANCH  12  15
HETATM   15  C   UNL     1      16.216  51.320  48.740  1.00  0.00     0.114 C 
HETATM   16  C   UNL     1      17.701  51.674  48.837  1.00  0.00     0.037 C 
BRANCH  15  17
HETATM   17  C   UNL     1      15.296  52.520  48.593  1.00  0.00    -0.036 A 
HETATM   18  C   UNL     1      14.693  53.059  49.743  1.00  0.00     0.009 A 
HETATM   19  C   UNL     1      13.801  54.128  49.652  1.00  0.00     0.001 A 
HETATM   20  C   UNL     1      13.486  54.669  48.408  1.00  0.00     0.000 A 
HETATM   21  C   UNL     1      14.061  54.138  47.255  1.00  0.00     0.001 A 
HETATM   22  C   UNL     1      14.956  53.068  47.345  1.00  0.00     0.009 A 
ENDBRANCH  15  17
ENDBRANCH  12  15
ENDBRANCH   6  11
ENDBRANCH   1   5
BRANCH   2  23
HETATM   23  C   UNL     1      19.436  46.847  47.316  1.00  0.00     0.240 C 
BRANCH  23  24
HETATM   24  N   UNL     1      20.259  47.576  48.258  1.00  0.00    -0.259 N 
HETATM   25  C   UNL     1      19.760  48.128  49.396  1.00  0.00     0.326 C 
HETATM   26  O   UNL     1      18.669  47.930  49.901  1.00  0.00    -0.247 OA
HETATM   27  N   UNL     1      20.665  49.046  49.872  1.00  0.00    -0.324 N 
HETATM   28  C   UNL     1      21.883  49.099  49.080  1.00  0.00     0.120 C 
HETATM   29  H   UNL     1      20.491  49.549  50.732  1.00  0.00     0.165 HD
HETATM   30  C   UNL     1      23.015  48.389  49.834  1.00  0.00     0.080 C 
HETATM   31  C   UNL     1      22.239  50.527  48.684  1.00  0.00     0.046 C 
HETATM   32  C   UNL     1      21.391  48.254  47.887  1.00  0.00     0.257 C 
HETATM   33  C   UNL     1      24.403  48.715  49.345  1.00  0.00    -0.049 A 
HETATM   34  C   UNL     1      24.651  49.770  48.452  1.00  0.00    -0.052 A 
HETATM   35  C   UNL     1      25.480  47.962  49.840  1.00  0.00     0.007 A 
HETATM   36  C   UNL     1      23.533  50.601  47.876  1.00  0.00     0.042 C 
HETATM   37  C   UNL     1      25.968  50.021  48.036  1.00  0.00     0.007 A 
HETATM   38  C   UNL     1      27.028  49.258  48.526  1.00  0.00     0.001 A 
HETATM   39  C   UNL     1      26.785  48.232  49.433  1.00  0.00     0.001 A 
HETATM   40  O   UNL     1      21.926  48.181  46.789  1.00  0.00    -0.270 OA
ENDBRANCH  23  24
ENDBRANCH   2  23
TORSDOF 6
ENDMDL
