MODEL 1
REMARK VINA RESULT:      -9.2      0.000      0.000
REMARK  3 active torsions:
REMARK  status: ('A' for Active; 'I' for Inactive)
REMARK    1  A    between atoms: C_6  and  N_7 
REMARK       I    between atoms: N_7  and  C_8 
REMARK    2  A    between atoms: C_8  and  C_9 
REMARK    3  A    between atoms: C_9  and  C_10 
ROOT
HETATM    1  C   UNL     1      26.180  45.894  52.454  1.00  0.00     0.286 C 
HETATM    2  N   UNL     1      25.398  46.974  51.720  1.00  0.00    -0.056 N 
HETATM    3  H   UNL     1      24.393  46.766  51.902  1.00  0.00     0.278 HD
HETATM    4  H   UNL     1      25.577  47.896  52.134  1.00  0.00     0.278 HD
HETATM    5  C   UNL     1      25.677  46.972  50.238  1.00  0.00     0.209 C 
HETATM    6  C   UNL     1      25.320  45.580  49.652  1.00  0.00     0.115 C 
HETATM    7  N   UNL     1      25.899  44.483  50.431  1.00  0.00    -0.353 N 
HETATM    8  C   UNL     1      26.051  44.504  51.796  1.00  0.00     0.249 C 
HETATM    9  O   UNL     1      26.197  43.456  52.415  1.00  0.00    -0.271 OA
HETATM   10  C   UNL     1      24.910  48.117  49.578  1.00  0.00     0.035 C 
HETATM   11  C   UNL     1      23.410  47.856  49.465  1.00  0.00     0.002 C 
HETATM   12  C   UNL     1      23.129  46.521  48.786  1.00  0.00     0.002 C 
HETATM   13  C   UNL     1      23.804  45.371  49.520  1.00  0.00     0.027 C 
HETATM   14  H   UNL     1      25.840  43.542  50.045  1.00  0.00     0.163 HD
ENDROOT
BRANCH   1  15
HETATM   15  C   UNL     1      25.848  45.855  53.952  1.00  0.00     0.146 C 
BRANCH  15  16
HETATM   16  C   UNL     1      26.348  47.078  54.673  1.00  0.00     0.224 C 
HETATM   17  N   UNL     1      27.505  47.088  55.384  1.00  0.00    -0.327 N 
HETATM   18  H   UNL     1      27.692  48.011  55.767  1.00  0.00     0.169 HD
HETATM   19  O   UNL     1      25.727  48.142  54.534  1.00  0.00    -0.273 OA
BRANCH  17  20
HETATM   20  C   UNL     1      28.498  46.128  55.672  1.00  0.00     0.035 A 
HETATM   21  C   UNL     1      28.910  45.088  54.837  1.00  0.00     0.037 A 
HETATM   22  C   UNL     1      29.917  44.181  55.228  1.00  0.00    -0.054 A 
HETATM   23  C   UNL     1      30.555  44.341  56.471  1.00  0.00    -0.056 A 
HETATM   24  C   UNL     1      30.305  43.066  54.292  1.00  0.00     0.049 C 
HETATM   25  C   UNL     1      31.641  43.408  56.933  1.00  0.00     0.049 C 
HETATM   26  C   UNL     1      30.135  45.373  57.315  1.00  0.00     0.009 A 
HETATM   27  C   UNL     1      29.119  46.248  56.922  1.00  0.00     0.030 A 
ENDBRANCH  17  20
ENDBRANCH  15  16
ENDBRANCH   1  15
TORSDOF 3
ENDMDL
MODEL 2
REMARK VINA RESULT:      -9.0      1.881      2.888
REMARK  3 active torsions:
REMARK  status: ('A' for Active; 'I' for Inactive)
REMARK    1  A    between atoms: C_6  and  N_7 
REMARK       I    between atoms: N_7  and  C_8 
REMARK    2  A    between atoms: C_8  and  C_9 
REMARK    3  A    between atoms: C_9  and  C_10 
ROOT
HETATM    1  C   UNL     1      26.209  45.977  53.225  1.00  0.00     0.286 C 
HETATM    2  N   UNL     1      26.939  44.687  52.878  1.00  0.00    -0.056 N 
HETATM    3  H   UNL     1      27.649  44.951  52.161  1.00  0.00     0.278 HD
HETATM    4  H   UNL     1      27.467  44.339  53.686  1.00  0.00     0.278 HD
HETATM    5  C   UNL     1      26.007  43.633  52.333  1.00  0.00     0.209 C 
HETATM    6  C   UNL     1      25.293  44.186  51.071  1.00  0.00     0.115 C 
HETATM    7  N   UNL     1      24.722  45.516  51.292  1.00  0.00    -0.353 N 
HETATM    8  C   UNL     1      25.295  46.479  52.087  1.00  0.00     0.249 C 
HETATM    9  O   UNL     1      24.982  47.656  51.953  1.00  0.00    -0.271 OA
HETATM   10  C   UNL     1      26.795  42.352  52.066  1.00  0.00     0.035 C 
HETATM   11  C   UNL     1      27.689  42.436  50.832  1.00  0.00     0.002 C 
HETATM   12  C   UNL     1      26.902  42.882  49.606  1.00  0.00     0.002 C 
HETATM   13  C   UNL     1      26.214  44.220  49.843  1.00  0.00     0.027 C 
HETATM   14  H   UNL     1      24.112  45.899  50.570  1.00  0.00     0.163 HD
ENDROOT
BRANCH   1  15
HETATM   15  C   UNL     1      27.167  47.069  53.719  1.00  0.00     0.146 C 
BRANCH  15  16
HETATM   16  C   UNL     1      26.892  47.459  55.146  1.00  0.00     0.224 C 
HETATM   17  N   UNL     1      27.595  46.955  56.193  1.00  0.00    -0.327 N 
HETATM   18  H   UNL     1      27.288  47.365  57.072  1.00  0.00     0.169 HD
HETATM   19  O   UNL     1      26.053  48.346  55.366  1.00  0.00    -0.273 OA
BRANCH  17  20
HETATM   20  C   UNL     1      28.657  46.035  56.321  1.00  0.00     0.035 A 
HETATM   21  C   UNL     1      29.051  45.090  55.373  1.00  0.00     0.037 A 
HETATM   22  C   UNL     1      30.132  44.214  55.607  1.00  0.00    -0.054 A 
HETATM   23  C   UNL     1      30.863  44.313  56.804  1.00  0.00    -0.056 A 
HETATM   24  C   UNL     1      30.497  43.200  54.554  1.00  0.00     0.049 C 
HETATM   25  C   UNL     1      32.030  43.412  57.100  1.00  0.00     0.049 C 
HETATM   26  C   UNL     1      30.462  45.251  57.761  1.00  0.00     0.009 A 
HETATM   27  C   UNL     1      29.374  46.094  57.523  1.00  0.00     0.030 A 
ENDBRANCH  17  20
ENDBRANCH  15  16
ENDBRANCH   1  15
TORSDOF 3
ENDMDL
MODEL 3
REMARK VINA RESULT:      -8.5      2.461      3.334
REMARK  3 active torsions:
REMARK  status: ('A' for Active; 'I' for Inactive)
REMARK    1  A    between atoms: C_6  and  N_7 
REMARK       I    between atoms: N_7  and  C_8 
REMARK    2  A    between atoms: C_8  and  C_9 
REMARK    3  A    between atoms: C_9  and  C_10 
ROOT
HETATM    1  C   UNL     1      27.210  43.411  51.138  1.00  0.00     0.286 C 
HETATM    2  N   UNL     1      26.918  44.900  51.260  1.00  0.00    -0.056 N 
HETATM    3  H   UNL     1      26.048  44.969  51.829  1.00  0.00     0.278 HD
HETATM    4  H   UNL     1      27.651  45.371  51.802  1.00  0.00     0.278 HD
HETATM    5  C   UNL     1      26.722  45.554  49.915  1.00  0.00     0.209 C 
HETATM    6  C   UNL     1      25.555  44.852  49.170  1.00  0.00     0.115 C 
HETATM    7  N   UNL     1      25.687  43.394  49.178  1.00  0.00    -0.353 N 
HETATM    8  C   UNL     1      26.210  42.672  50.224  1.00  0.00     0.249 C 
HETATM    9  O   UNL     1      25.970  41.475  50.327  1.00  0.00    -0.271 OA
HETATM   10  C   UNL     1      26.495  47.053  50.111  1.00  0.00     0.035 C 
HETATM   11  C   UNL     1      25.112  47.389  50.662  1.00  0.00     0.002 C 
HETATM   12  C   UNL     1      24.010  46.756  49.823  1.00  0.00     0.002 C 
HETATM   13  C   UNL     1      24.181  45.245  49.731  1.00  0.00     0.027 C 
HETATM   14  H   UNL     1      25.049  42.854  48.594  1.00  0.00     0.163 HD
ENDROOT
BRANCH   1  15
HETATM   15  C   UNL     1      27.347  42.734  52.509  1.00  0.00     0.146 C 
BRANCH  15  16
HETATM   16  C   UNL     1      28.641  41.978  52.639  1.00  0.00     0.224 C 
HETATM   17  N   UNL     1      29.597  42.310  53.545  1.00  0.00    -0.327 N 
HETATM   18  H   UNL     1      30.380  41.663  53.506  1.00  0.00     0.169 HD
HETATM   19  O   UNL     1      28.800  40.955  51.956  1.00  0.00    -0.273 OA
BRANCH  17  20
HETATM   20  C   UNL     1      29.722  43.314  54.529  1.00  0.00     0.035 A 
HETATM   21  C   UNL     1      28.937  44.462  54.644  1.00  0.00     0.037 A 
HETATM   22  C   UNL     1      29.151  45.404  55.672  1.00  0.00    -0.054 A 
HETATM   23  C   UNL     1      30.151  45.173  56.633  1.00  0.00    -0.056 A 
HETATM   24  C   UNL     1      28.284  46.635  55.732  1.00  0.00     0.049 C 
HETATM   25  C   UNL     1      30.414  46.139  57.755  1.00  0.00     0.049 C 
HETATM   26  C   UNL     1      30.948  44.030  56.512  1.00  0.00     0.009 A 
HETATM   27  C   UNL     1      30.738  43.119  55.473  1.00  0.00     0.030 A 
ENDBRANCH  17  20
ENDBRANCH  15  16
ENDBRANCH   1  15
TORSDOF 3
ENDMDL
MODEL 4
REMARK VINA RESULT:      -8.4      3.261      4.763
REMARK  3 active torsions:
REMARK  status: ('A' for Active; 'I' for Inactive)
REMARK    1  A    between atoms: C_6  and  N_7 
REMARK       I    between atoms: N_7  and  C_8 
REMARK    2  A    between atoms: C_8  and  C_9 
REMARK    3  A    between atoms: C_9  and  C_10 
ROOT
HETATM    1  C   UNL     1      26.931  42.992  51.023  1.00  0.00     0.286 C 
HETATM    2  N   UNL     1      27.348  41.528  51.000  1.00  0.00    -0.056 N 
HETATM    3  H   UNL     1      28.345  41.526  50.696  1.00  0.00     0.278 HD
HETATM    4  H   UNL     1      27.339  41.133  51.947  1.00  0.00     0.278 HD
HETATM    5  C   UNL     1      26.505  40.710  50.054  1.00  0.00     0.209 C 
HETATM    6  C   UNL     1      26.615  41.306  48.626  1.00  0.00     0.115 C 
HETATM    7  N   UNL     1      26.401  42.755  48.609  1.00  0.00    -0.353 N 
HETATM    8  C   UNL     1      26.801  43.604  49.612  1.00  0.00     0.249 C 
HETATM    9  O   UNL     1      26.922  44.804  49.392  1.00  0.00    -0.271 OA
HETATM   10  C   UNL     1      26.938  39.246  50.129  1.00  0.00     0.035 C 
HETATM   11  C   UNL     1      28.273  38.973  49.442  1.00  0.00     0.002 C 
HETATM   12  C   UNL     1      28.275  39.490  48.009  1.00  0.00     0.002 C 
HETATM   13  C   UNL     1      27.956  40.978  47.954  1.00  0.00     0.027 C 
HETATM   14  H   UNL     1      26.312  43.213  47.703  1.00  0.00     0.163 HD
ENDROOT
BRANCH   1  15
HETATM   15  C   UNL     1      27.828  43.835  51.937  1.00  0.00     0.146 C 
BRANCH  15  16
HETATM   16  C   UNL     1      27.029  44.734  52.841  1.00  0.00     0.224 C 
HETATM   17  N   UNL     1      27.441  45.071  54.091  1.00  0.00    -0.327 N 
HETATM   18  H   UNL     1      26.787  45.713  54.532  1.00  0.00     0.169 HD
HETATM   19  O   UNL     1      26.001  45.262  52.392  1.00  0.00    -0.273 OA
BRANCH  17  20
HETATM   20  C   UNL     1      28.569  44.760  54.879  1.00  0.00     0.035 A 
HETATM   21  C   UNL     1      29.052  45.498  55.960  1.00  0.00     0.037 A 
HETATM   22  C   UNL     1      30.195  45.093  56.681  1.00  0.00    -0.054 A 
HETATM   23  C   UNL     1      30.849  43.896  56.336  1.00  0.00    -0.056 A 
HETATM   24  C   UNL     1      30.681  45.943  57.825  1.00  0.00     0.049 C 
HETATM   25  C   UNL     1      32.065  43.413  57.077  1.00  0.00     0.049 C 
HETATM   26  C   UNL     1      30.374  43.161  55.245  1.00  0.00     0.009 A 
HETATM   27  C   UNL     1      29.256  43.591  54.527  1.00  0.00     0.030 A 
ENDBRANCH  17  20
ENDBRANCH  15  16
ENDBRANCH   1  15
TORSDOF 3
ENDMDL
MODEL 5
REMARK VINA RESULT:      -8.3      1.884      7.591
REMARK  3 active torsions:
REMARK  status: ('A' for Active; 'I' for Inactive)
REMARK    1  A    between atoms: C_6  and  N_7 
REMARK       I    between atoms: N_7  and  C_8 
REMARK    2  A    between atoms: C_8  and  C_9 
REMARK    3  A    between atoms: C_9  and  C_10 
ROOT
HETATM    1  C   UNL     1      28.492  44.044  54.218  1.00  0.00     0.286 C 
HETATM    2  N   UNL     1      29.507  43.607  55.265  1.00  0.00    -0.056 N 
HETATM    3  H   UNL     1      28.957  43.443  56.136  1.00  0.00     0.278 HD
HETATM    4  H   UNL     1      29.919  42.702  55.015  1.00  0.00     0.278 HD
HETATM    5  C   UNL     1      30.569  44.651  55.500  1.00  0.00     0.209 C 
HETATM    6  C   UNL     1      29.894  45.975  55.948  1.00  0.00     0.115 C 
HETATM    7  N   UNL     1      28.782  46.356  55.075  1.00  0.00    -0.353 N 
HETATM    8  C   UNL     1      27.932  45.459  54.474  1.00  0.00     0.249 C 
HETATM    9  O   UNL     1      26.837  45.828  54.065  1.00  0.00    -0.271 OA
HETATM   10  C   UNL     1      31.582  44.120  56.514  1.00  0.00     0.035 C 
HETATM   11  C   UNL     1      31.053  44.096  57.945  1.00  0.00     0.002 C 
HETATM   12  C   UNL     1      30.502  45.456  58.356  1.00  0.00     0.002 C 
HETATM   13  C   UNL     1      29.409  45.924  57.403  1.00  0.00     0.027 C 
HETATM   14  H   UNL     1      28.371  47.280  55.202  1.00  0.00     0.163 HD
ENDROOT
BRANCH   1  15
HETATM   15  C   UNL     1      27.376  43.009  54.024  1.00  0.00     0.146 C 
BRANCH  15  16
HETATM   16  C   UNL     1      27.552  42.219  52.756  1.00  0.00     0.224 C 
HETATM   17  N   UNL     1      27.114  42.662  51.549  1.00  0.00    -0.327 N 
HETATM   18  H   UNL     1      27.356  42.008  50.809  1.00  0.00     0.169 HD
HETATM   19  O   UNL     1      28.207  41.166  52.800  1.00  0.00    -0.273 OA
BRANCH  17  20
HETATM   20  C   UNL     1      26.441  43.819  51.104  1.00  0.00     0.035 A 
HETATM   21  C   UNL     1      27.031  44.959  50.556  1.00  0.00     0.037 A 
HETATM   22  C   UNL     1      26.259  46.066  50.143  1.00  0.00    -0.054 A 
HETATM   23  C   UNL     1      24.858  46.015  50.246  1.00  0.00    -0.056 A 
HETATM   24  C   UNL     1      26.955  47.276  49.578  1.00  0.00     0.049 C 
HETATM   25  C   UNL     1      23.987  47.162  49.812  1.00  0.00     0.049 C 
HETATM   26  C   UNL     1      24.265  44.880  50.807  1.00  0.00     0.009 A 
HETATM   27  C   UNL     1      25.046  43.803  51.233  1.00  0.00     0.030 A 
ENDBRANCH  17  20
ENDBRANCH  15  16
ENDBRANCH   1  15
TORSDOF 3
ENDMDL
MODEL 6
REMARK VINA RESULT:      -8.3      2.042      7.701
REMARK  3 active torsions:
REMARK  status: ('A' for Active; 'I' for Inactive)
REMARK    1  A    between atoms: C_6  and  N_7 
REMARK       I    between atoms: N_7  and  C_8 
REMARK    2  A    between atoms: C_8  and  C_9 
REMARK    3  A    between atoms: C_9  and  C_10 
ROOT
HETATM    1  C   UNL     1      26.413  45.669  53.419  1.00  0.00     0.286 C 
HETATM    2  N   UNL     1      27.871  45.254  53.555  1.00  0.00    -0.056 N 
HETATM    3  H   UNL     1      28.130  44.832  52.638  1.00  0.00     0.278 HD
HETATM    4  H   UNL     1      28.474  46.077  53.669  1.00  0.00     0.278 HD
HETATM    5  C   UNL     1      28.079  44.260  54.671  1.00  0.00     0.209 C 
HETATM    6  C   UNL     1      27.202  43.007  54.408  1.00  0.00     0.115 C 
HETATM    7  N   UNL     1      25.816  43.355  54.089  1.00  0.00    -0.353 N 
HETATM    8  C   UNL     1      25.446  44.468  53.373  1.00  0.00     0.249 C 
HETATM    9  O   UNL     1      24.344  44.518  52.839  1.00  0.00    -0.271 OA
HETATM   10  C   UNL     1      29.568  43.938  54.788  1.00  0.00     0.035 C 
HETATM   11  C   UNL     1      30.085  43.040  53.667  1.00  0.00     0.002 C 
HETATM   12  C   UNL     1      29.242  41.778  53.534  1.00  0.00     0.002 C 
HETATM   13  C   UNL     1      27.774  42.112  53.300  1.00  0.00     0.027 C 
HETATM   14  H   UNL     1      25.133  42.599  54.042  1.00  0.00     0.163 HD
ENDROOT
BRANCH   1  15
HETATM   15  C   UNL     1      26.193  46.631  52.244  1.00  0.00     0.146 C 
BRANCH  15  16
HETATM   16  C   UNL     1      26.397  45.957  50.915  1.00  0.00     0.224 C 
HETATM   17  N   UNL     1      25.852  46.427  49.762  1.00  0.00    -0.327 N 
HETATM   18  H   UNL     1      26.132  45.859  48.966  1.00  0.00     0.169 HD
HETATM   19  O   UNL     1      27.170  44.989  50.854  1.00  0.00    -0.273 OA
BRANCH  17  20
HETATM   20  C   UNL     1      25.030  47.525  49.432  1.00  0.00     0.035 A 
HETATM   21  C   UNL     1      23.635  47.545  49.439  1.00  0.00     0.037 A 
HETATM   22  C   UNL     1      22.910  48.703  49.088  1.00  0.00    -0.054 A 
HETATM   23  C   UNL     1      23.599  49.884  48.759  1.00  0.00    -0.056 A 
HETATM   24  C   UNL     1      21.404  48.658  49.095  1.00  0.00     0.049 C 
HETATM   25  C   UNL     1      22.876  51.149  48.387  1.00  0.00     0.049 C 
HETATM   26  C   UNL     1      24.997  49.862  48.738  1.00  0.00     0.009 A 
HETATM   27  C   UNL     1      25.699  48.699  49.065  1.00  0.00     0.030 A 
ENDBRANCH  17  20
ENDBRANCH  15  16
ENDBRANCH   1  15
TORSDOF 3
ENDMDL
MODEL 7
REMARK VINA RESULT:      -8.2      2.142      3.832
REMARK  3 active torsions:
REMARK  status: ('A' for Active; 'I' for Inactive)
REMARK    1  A    between atoms: C_6  and  N_7 
REMARK       I    between atoms: N_7  and  C_8 
REMARK    2  A    between atoms: C_8  and  C_9 
REMARK    3  A    between atoms: C_9  and  C_10 
ROOT
HETATM    1  C   UNL     1      26.498  43.459  51.782  1.00  0.00     0.286 C 
HETATM    2  N   UNL     1      25.983  42.737  50.545  1.00  0.00    -0.056 N 
HETATM    3  H   UNL     1      26.334  43.288  49.732  1.00  0.00     0.278 HD
HETATM    4  H   UNL     1      26.408  41.807  50.463  1.00  0.00     0.278 HD
HETATM    5  C   UNL     1      24.477  42.658  50.517  1.00  0.00     0.209 C 
HETATM    6  C   UNL     1      23.889  44.093  50.567  1.00  0.00     0.115 C 
HETATM    7  N   UNL     1      24.483  44.902  51.633  1.00  0.00    -0.353 N 
HETATM    8  C   UNL     1      25.797  44.812  52.027  1.00  0.00     0.249 C 
HETATM    9  O   UNL     1      26.318  45.731  52.648  1.00  0.00    -0.271 OA
HETATM   10  C   UNL     1      24.035  41.870  49.284  1.00  0.00     0.035 C 
HETATM   11  C   UNL     1      24.185  42.650  47.981  1.00  0.00     0.002 C 
HETATM   12  C   UNL     1      23.494  44.005  48.063  1.00  0.00     0.002 C 
HETATM   13  C   UNL     1      24.025  44.831  49.227  1.00  0.00     0.027 C 
HETATM   14  H   UNL     1      24.062  45.808  51.836  1.00  0.00     0.163 HD
ENDROOT
BRANCH   1  15
HETATM   15  C   UNL     1      28.027  43.595  51.778  1.00  0.00     0.146 C 
BRANCH  15  16
HETATM   16  C   UNL     1      28.703  42.375  52.341  1.00  0.00     0.224 C 
HETATM   17  N   UNL     1      29.329  42.374  53.547  1.00  0.00    -0.327 N 
HETATM   18  H   UNL     1      29.693  41.452  53.771  1.00  0.00     0.169 HD
HETATM   19  O   UNL     1      28.604  41.304  51.723  1.00  0.00    -0.273 OA
BRANCH  17  20
HETATM   20  C   UNL     1      29.549  43.343  54.549  1.00  0.00     0.035 A 
HETATM   21  C   UNL     1      28.765  44.472  54.794  1.00  0.00     0.037 A 
HETATM   22  C   UNL     1      29.079  45.381  55.827  1.00  0.00    -0.054 A 
HETATM   23  C   UNL     1      30.184  45.132  56.662  1.00  0.00    -0.056 A 
HETATM   24  C   UNL     1      28.208  46.592  56.029  1.00  0.00     0.049 C 
HETATM   25  C   UNL     1      30.557  46.062  57.783  1.00  0.00     0.049 C 
HETATM   26  C   UNL     1      30.978  44.009  56.410  1.00  0.00     0.009 A 
HETATM   27  C   UNL     1      30.666  43.133  55.367  1.00  0.00     0.030 A 
ENDBRANCH  17  20
ENDBRANCH  15  16
ENDBRANCH   1  15
TORSDOF 3
ENDMDL
MODEL 8
REMARK VINA RESULT:      -8.2     12.328     14.130
REMARK  3 active torsions:
REMARK  status: ('A' for Active; 'I' for Inactive)
REMARK    1  A    between atoms: C_6  and  N_7 
REMARK       I    between atoms: N_7  and  C_8 
REMARK    2  A    between atoms: C_8  and  C_9 
REMARK    3  A    between atoms: C_9  and  C_10 
ROOT
HETATM    1  C   UNL     1      30.842  52.606  41.771  1.00  0.00     0.286 C 
HETATM    2  N   UNL     1      29.758  51.598  41.419  1.00  0.00    -0.056 N 
HETATM    3  H   UNL     1      30.107  51.094  40.575  1.00  0.00     0.278 HD
HETATM    4  H   UNL     1      29.668  50.889  42.156  1.00  0.00     0.278 HD
HETATM    5  C   UNL     1      28.435  52.261  41.129  1.00  0.00     0.209 C 
HETATM    6  C   UNL     1      28.613  53.266  39.960  1.00  0.00     0.115 C 
HETATM    7  N   UNL     1      29.762  54.152  40.157  1.00  0.00    -0.353 N 
HETATM    8  C   UNL     1      30.935  53.770  40.761  1.00  0.00     0.249 C 
HETATM    9  O   UNL     1      31.960  54.416  40.580  1.00  0.00    -0.271 OA
HETATM   10  C   UNL     1      27.384  51.188  40.845  1.00  0.00     0.035 C 
HETATM   11  C   UNL     1      27.543  50.530  39.477  1.00  0.00     0.002 C 
HETATM   12  C   UNL     1      27.605  51.569  38.365  1.00  0.00     0.002 C 
HETATM   13  C   UNL     1      28.732  52.567  38.598  1.00  0.00     0.027 C 
HETATM   14  H   UNL     1      29.875  54.936  39.516  1.00  0.00     0.163 HD
ENDROOT
BRANCH   1  15
HETATM   15  C   UNL     1      32.203  51.936  42.004  1.00  0.00     0.146 C 
BRANCH  15  16
HETATM   16  C   UNL     1      32.203  51.071  43.236  1.00  0.00     0.224 C 
HETATM   17  N   UNL     1      31.732  49.797  43.237  1.00  0.00    -0.327 N 
HETATM   18  H   UNL     1      31.850  49.363  44.149  1.00  0.00     0.169 HD
HETATM   19  O   UNL     1      32.740  51.507  44.265  1.00  0.00    -0.273 OA
BRANCH  17  20
HETATM   20  C   UNL     1      31.161  48.952  42.262  1.00  0.00     0.035 A 
HETATM   21  C   UNL     1      29.818  48.586  42.169  1.00  0.00     0.037 A 
HETATM   22  C   UNL     1      29.353  47.729  41.149  1.00  0.00    -0.054 A 
HETATM   23  C   UNL     1      30.249  47.258  40.173  1.00  0.00    -0.056 A 
HETATM   24  C   UNL     1      27.895  47.354  41.113  1.00  0.00     0.049 C 
HETATM   25  C   UNL     1      29.805  46.350  39.058  1.00  0.00     0.049 C 
HETATM   26  C   UNL     1      31.598  47.612  40.272  1.00  0.00     0.009 A 
HETATM   27  C   UNL     1      32.045  48.441  41.303  1.00  0.00     0.030 A 
ENDBRANCH  17  20
ENDBRANCH  15  16
ENDBRANCH   1  15
TORSDOF 3
ENDMDL
MODEL 9
REMARK VINA RESULT:      -8.2     15.534     17.714
REMARK  3 active torsions:
REMARK  status: ('A' for Active; 'I' for Inactive)
REMARK    1  A    between atoms: C_6  and  N_7 
REMARK       I    between atoms: N_7  and  C_8 
REMARK    2  A    between atoms: C_8  and  C_9 
REMARK    3  A    between atoms: C_9  and  C_10 
ROOT
HETATM    1  C   UNL     1      39.742  45.269  64.425  1.00  0.00     0.286 C 
HETATM    2  N   UNL     1      38.587  46.169  64.843  1.00  0.00    -0.056 N 
HETATM    3  H   UNL     1      38.398  46.781  64.021  1.00  0.00     0.278 HD
HETATM    4  H   UNL     1      37.734  45.619  64.991  1.00  0.00     0.278 HD
HETATM    5  C   UNL     1      38.923  47.002  66.055  1.00  0.00     0.209 C 
HETATM    6  C   UNL     1      40.175  47.866  65.750  1.00  0.00     0.115 C 
HETATM    7  N   UNL     1      41.267  47.081  65.171  1.00  0.00    -0.353 N 
HETATM    8  C   UNL     1      41.084  46.023  64.313  1.00  0.00     0.249 C 
HETATM    9  O   UNL     1      42.004  45.646  63.596  1.00  0.00    -0.271 OA
HETATM   10  C   UNL     1      37.702  47.831  66.452  1.00  0.00     0.035 C 
HETATM   11  C   UNL     1      37.435  49.004  65.514  1.00  0.00     0.002 C 
HETATM   12  C   UNL     1      38.675  49.871  65.342  1.00  0.00     0.002 C 
HETATM   13  C   UNL     1      39.858  49.056  64.834  1.00  0.00     0.027 C 
HETATM   14  H   UNL     1      42.176  47.530  65.070  1.00  0.00     0.163 HD
ENDROOT
BRANCH   1  15
HETATM   15  C   UNL     1      39.422  44.470  63.155  1.00  0.00     0.146 C 
BRANCH  15  16
HETATM   16  C   UNL     1      38.047  43.861  63.202  1.00  0.00     0.224 C 
HETATM   17  N   UNL     1      37.836  42.545  63.464  1.00  0.00    -0.327 N 
HETATM   18  H   UNL     1      36.842  42.331  63.488  1.00  0.00     0.169 HD
HETATM   19  O   UNL     1      37.065  44.610  63.090  1.00  0.00    -0.273 OA
BRANCH  17  20
HETATM   20  C   UNL     1      38.673  41.443  63.737  1.00  0.00     0.035 A 
HETATM   21  C   UNL     1      39.213  41.102  64.978  1.00  0.00     0.037 A 
HETATM   22  C   UNL     1      40.044  39.973  65.138  1.00  0.00    -0.054 A 
HETATM   23  C   UNL     1      40.309  39.141  64.036  1.00  0.00    -0.056 A 
HETATM   24  C   UNL     1      40.614  39.668  66.498  1.00  0.00     0.049 C 
HETATM   25  C   UNL     1      41.179  37.920  64.153  1.00  0.00     0.049 C 
HETATM   26  C   UNL     1      39.780  39.488  62.788  1.00  0.00     0.009 A 
HETATM   27  C   UNL     1      38.980  40.624  62.643  1.00  0.00     0.030 A 
ENDBRANCH  17  20
ENDBRANCH  15  16
ENDBRANCH   1  15
TORSDOF 3
ENDMDL
MODEL 10
REMARK VINA RESULT:      -8.2     12.586     15.314
REMARK  3 active torsions:
REMARK  status: ('A' for Active; 'I' for Inactive)
REMARK    1  A    between atoms: C_6  and  N_7 
REMARK       I    between atoms: N_7  and  C_8 
REMARK    2  A    between atoms: C_8  and  C_9 
REMARK    3  A    between atoms: C_9  and  C_10 
ROOT
HETATM    1  C   UNL     1      33.845  50.554  41.614  1.00  0.00     0.286 C 
HETATM    2  N   UNL     1      33.097  49.582  40.713  1.00  0.00    -0.056 N 
HETATM    3  H   UNL     1      32.315  50.131  40.297  1.00  0.00     0.278 HD
HETATM    4  H   UNL     1      33.687  49.287  39.927  1.00  0.00     0.278 HD
HETATM    5  C   UNL     1      32.562  48.395  41.475  1.00  0.00     0.209 C 
HETATM    6  C   UNL     1      31.619  48.894  42.602  1.00  0.00     0.115 C 
HETATM    7  N   UNL     1      32.220  49.967  43.397  1.00  0.00    -0.353 N 
HETATM    8  C   UNL     1      33.053  50.932  42.884  1.00  0.00     0.249 C 
HETATM    9  O   UNL     1      33.230  51.981  43.493  1.00  0.00    -0.271 OA
HETATM   10  C   UNL     1      31.879  47.436  40.500  1.00  0.00     0.035 C 
HETATM   11  C   UNL     1      30.526  47.938  40.003  1.00  0.00     0.002 C 
HETATM   12  C   UNL     1      29.612  48.311  41.163  1.00  0.00     0.002 C 
HETATM   13  C   UNL     1      30.256  49.356  42.065  1.00  0.00     0.027 C 
HETATM   14  H   UNL     1      31.737  50.260  44.245  1.00  0.00     0.163 HD
ENDROOT
BRANCH   1  15
HETATM   15  C   UNL     1      34.335  51.791  40.851  1.00  0.00     0.146 C 
BRANCH  15  16
HETATM   16  C   UNL     1      34.081  51.680  39.372  1.00  0.00     0.224 C 
HETATM   17  N   UNL     1      32.840  51.787  38.830  1.00  0.00    -0.327 N 
HETATM   18  H   UNL     1      32.876  51.721  37.816  1.00  0.00     0.169 HD
HETATM   19  O   UNL     1      35.055  51.581  38.610  1.00  0.00    -0.273 OA
BRANCH  17  20
HETATM   20  C   UNL     1      31.547  51.999  39.353  1.00  0.00     0.035 A 
HETATM   21  C   UNL     1      30.371  51.381  38.927  1.00  0.00     0.037 A 
HETATM   22  C   UNL     1      29.125  51.670  39.524  1.00  0.00    -0.054 A 
HETATM   23  C   UNL     1      29.061  52.572  40.600  1.00  0.00    -0.056 A 
HETATM   24  C   UNL     1      27.887  50.986  39.006  1.00  0.00     0.049 C 
HETATM   25  C   UNL     1      27.761  52.909  41.279  1.00  0.00     0.049 C 
HETATM   26  C   UNL     1      30.236  53.203  41.020  1.00  0.00     0.009 A 
HETATM   27  C   UNL     1      31.457  52.924  40.402  1.00  0.00     0.030 A 
ENDBRANCH  17  20
ENDBRANCH  15  16
ENDBRANCH   1  15
TORSDOF 3
ENDMDL
