MODEL 1
REMARK VINA RESULT:      -9.8      0.000      0.000
REMARK  6 active torsions:
REMARK  status: ('A' for Active; 'I' for Inactive)
REMARK    1  A    between atoms: C_2  and  O_3 
REMARK    2  A    between atoms: C_2  and  C_4 
REMARK    3  A    between atoms: C_6  and  N_7 
REMARK       I    between atoms: N_7  and  C_8 
REMARK    4  A    between atoms: C_8  and  C_9 
REMARK    5  A    between atoms: C_12  and  C_13 
REMARK    6  A    between atoms: C_18  and  C_19 
ROOT
HETATM    1  C   UNL     1      26.284  44.029  51.413  1.00  0.00     0.096 C 
HETATM    2  C   UNL     1      25.430  44.977  50.879  1.00  0.00     0.138 C 
HETATM    3  N   UNL     1      25.140  44.543  49.604  1.00  0.00    -0.240 N 
HETATM    4  C   UNL     1      24.282  45.251  48.670  1.00  0.00     0.221 C 
HETATM    5  C   UNL     1      23.438  46.298  49.420  1.00  0.00     0.066 C 
HETATM    6  C   UNL     1      24.290  47.094  50.418  1.00  0.00     0.118 C 
HETATM    7  N   UNL     1      24.927  46.153  51.354  1.00  0.00    -0.365 N 
HETATM    8  N   UNL     1      25.878  43.490  49.219  1.00  0.00    -0.181 NA
HETATM    9  C   UNL     1      26.551  43.163  50.326  1.00  0.00     0.160 C 
HETATM   10  H   UNL     1      25.444  46.638  52.091  1.00  0.00     0.161 HD
ENDROOT
BRANCH   1  11
HETATM   11  C   UNL     1      26.835  43.924  52.752  1.00  0.00     0.261 C 
HETATM   12  N   UNL     1      28.215  44.021  52.784  1.00  0.00    -0.323 N 
HETATM   13  H   UNL     1      28.655  44.220  51.892  1.00  0.00     0.169 HD
HETATM   14  O   UNL     1      26.094  43.816  53.722  1.00  0.00    -0.267 OA
BRANCH  12  15
HETATM   15  C   UNL     1      29.051  44.037  53.918  1.00  0.00     0.035 A 
HETATM   16  C   UNL     1      28.963  44.989  54.938  1.00  0.00     0.039 A 
HETATM   17  C   UNL     1      29.850  44.969  56.030  1.00  0.00    -0.028 A 
HETATM   18  C   UNL     1      30.841  43.978  56.080  1.00  0.00     0.010 A 
HETATM   19  C   UNL     1      30.923  43.013  55.078  1.00  0.00     0.003 A 
HETATM   20  C   UNL     1      30.028  43.040  54.006  1.00  0.00     0.029 A 
BRANCH  17  21
HETATM   21  C   UNL     1      29.747  46.035  57.100  1.00  0.00     0.147 C 
HETATM   22  C   UNL     1      30.531  45.664  58.350  1.00  0.00     0.044 C 
BRANCH  21  23
HETATM   23  O   UNL     1      28.383  46.254  57.459  1.00  0.00    -0.391 OA
HETATM   24  H   UNL     1      27.849  45.684  56.880  1.00  0.00     0.210 HD
ENDBRANCH  21  23
ENDBRANCH  17  21
ENDBRANCH  12  15
ENDBRANCH   1  11
BRANCH   4  25
HETATM   25  C   UNL     1      23.365  44.306  47.925  1.00  0.00     0.409 C 
HETATM   26  F   UNL     1      23.917  43.770  46.818  1.00  0.00    -0.169 F 
HETATM   27  F   UNL     1      22.919  43.298  48.709  1.00  0.00    -0.169 F 
HETATM   28  F   UNL     1      22.260  44.982  47.506  1.00  0.00    -0.169 F 
ENDBRANCH   4  25
BRANCH   6  29
HETATM   29  C   UNL     1      25.265  48.045  49.734  1.00  0.00    -0.035 A 
HETATM   30  C   UNL     1      24.751  49.045  48.885  1.00  0.00     0.009 A 
HETATM   31  C   UNL     1      25.598  49.921  48.203  1.00  0.00     0.001 A 
HETATM   32  C   UNL     1      26.976  49.823  48.363  1.00  0.00     0.000 A 
HETATM   33  C   UNL     1      27.506  48.852  49.206  1.00  0.00     0.001 A 
HETATM   34  C   UNL     1      26.659  47.972  49.886  1.00  0.00     0.009 A 
ENDBRANCH   6  29
TORSDOF 6
ENDMDL
MODEL 2
REMARK VINA RESULT:      -9.2      3.955      8.833
REMARK  6 active torsions:
REMARK  status: ('A' for Active; 'I' for Inactive)
REMARK    1  A    between atoms: C_2  and  O_3 
REMARK    2  A    between atoms: C_2  and  C_4 
REMARK    3  A    between atoms: C_6  and  N_7 
REMARK       I    between atoms: N_7  and  C_8 
REMARK    4  A    between atoms: C_8  and  C_9 
REMARK    5  A    between atoms: C_12  and  C_13 
REMARK    6  A    between atoms: C_18  and  C_19 
ROOT
HETATM    1  C   UNL     1      24.912  45.548  51.607  1.00  0.00     0.096 C 
HETATM    2  C   UNL     1      25.531  45.214  52.797  1.00  0.00     0.138 C 
HETATM    3  N   UNL     1      26.233  46.335  53.181  1.00  0.00    -0.240 N 
HETATM    4  C   UNL     1      27.048  46.425  54.379  1.00  0.00     0.221 C 
HETATM    5  C   UNL     1      26.698  45.276  55.343  1.00  0.00     0.066 C 
HETATM    6  C   UNL     1      26.587  43.936  54.600  1.00  0.00     0.118 C 
HETATM    7  N   UNL     1      25.579  44.067  53.535  1.00  0.00    -0.365 N 
HETATM    8  N   UNL     1      26.253  47.296  52.245  1.00  0.00    -0.181 NA
HETATM    9  C   UNL     1      25.430  46.829  51.303  1.00  0.00     0.160 C 
HETATM   10  H   UNL     1      25.408  43.178  53.060  1.00  0.00     0.161 HD
ENDROOT
BRANCH   1  11
HETATM   11  C   UNL     1      23.975  44.785  50.801  1.00  0.00     0.261 C 
HETATM   12  N   UNL     1      23.571  45.450  49.657  1.00  0.00    -0.323 N 
HETATM   13  H   UNL     1      24.025  46.342  49.492  1.00  0.00     0.169 HD
HETATM   14  O   UNL     1      23.656  43.648  51.128  1.00  0.00    -0.267 OA
BRANCH  12  15
HETATM   15  C   UNL     1      22.736  44.967  48.630  1.00  0.00     0.035 A 
HETATM   16  C   UNL     1      21.367  45.238  48.547  1.00  0.00     0.039 A 
HETATM   17  C   UNL     1      20.580  44.699  47.512  1.00  0.00    -0.028 A 
HETATM   18  C   UNL     1      21.190  43.870  46.560  1.00  0.00     0.010 A 
HETATM   19  C   UNL     1      22.557  43.610  46.624  1.00  0.00     0.003 A 
HETATM   20  C   UNL     1      23.326  44.162  47.650  1.00  0.00     0.029 A 
BRANCH  17  21
HETATM   21  C   UNL     1      19.095  44.987  47.472  1.00  0.00     0.147 C 
HETATM   22  C   UNL     1      18.805  46.430  47.085  1.00  0.00     0.044 C 
BRANCH  21  23
HETATM   23  O   UNL     1      18.497  44.721  48.740  1.00  0.00    -0.391 OA
HETATM   24  H   UNL     1      17.584  44.438  48.563  1.00  0.00     0.210 HD
ENDBRANCH  21  23
ENDBRANCH  17  21
ENDBRANCH  12  15
ENDBRANCH   1  11
BRANCH   4  25
HETATM   25  C   UNL     1      26.861  47.749  55.088  1.00  0.00     0.409 C 
HETATM   26  F   UNL     1      25.701  48.368  54.788  1.00  0.00    -0.169 F 
HETATM   27  F   UNL     1      26.944  47.628  56.432  1.00  0.00    -0.169 F 
HETATM   28  F   UNL     1      27.852  48.605  54.718  1.00  0.00    -0.169 F 
ENDBRANCH   4  25
BRANCH   6  29
HETATM   29  C   UNL     1      27.936  43.417  54.117  1.00  0.00    -0.035 A 
HETATM   30  C   UNL     1      29.080  43.683  54.895  1.00  0.00     0.009 A 
HETATM   31  C   UNL     1      30.348  43.264  54.484  1.00  0.00     0.001 A 
HETATM   32  C   UNL     1      30.496  42.560  53.294  1.00  0.00     0.000 A 
HETATM   33  C   UNL     1      29.379  42.275  52.516  1.00  0.00     0.001 A 
HETATM   34  C   UNL     1      28.111  42.698  52.924  1.00  0.00     0.009 A 
ENDBRANCH   6  29
TORSDOF 6
ENDMDL
MODEL 3
REMARK VINA RESULT:      -9.1      4.166      7.903
REMARK  6 active torsions:
REMARK  status: ('A' for Active; 'I' for Inactive)
REMARK    1  A    between atoms: C_2  and  O_3 
REMARK    2  A    between atoms: C_2  and  C_4 
REMARK    3  A    between atoms: C_6  and  N_7 
REMARK       I    between atoms: N_7  and  C_8 
REMARK    4  A    between atoms: C_8  and  C_9 
REMARK    5  A    between atoms: C_12  and  C_13 
REMARK    6  A    between atoms: C_18  and  C_19 
ROOT
HETATM    1  C   UNL     1      26.753  42.789  50.747  1.00  0.00     0.096 C 
HETATM    2  C   UNL     1      26.615  43.420  51.970  1.00  0.00     0.138 C 
HETATM    3  N   UNL     1      26.671  44.770  51.702  1.00  0.00    -0.240 N 
HETATM    4  C   UNL     1      26.581  45.812  52.709  1.00  0.00     0.221 C 
HETATM    5  C   UNL     1      26.014  45.233  54.018  1.00  0.00     0.066 C 
HETATM    6  C   UNL     1      26.676  43.894  54.371  1.00  0.00     0.118 C 
HETATM    7  N   UNL     1      26.487  42.961  53.248  1.00  0.00    -0.365 N 
HETATM    8  N   UNL     1      27.011  45.048  50.434  1.00  0.00    -0.181 NA
HETATM    9  C   UNL     1      27.034  43.847  49.850  1.00  0.00     0.160 C 
HETATM   10  H   UNL     1      26.841  42.026  53.464  1.00  0.00     0.161 HD
ENDROOT
BRANCH   1  11
HETATM   11  C   UNL     1      26.677  41.377  50.416  1.00  0.00     0.261 C 
HETATM   12  N   UNL     1      27.315  41.058  49.231  1.00  0.00    -0.323 N 
HETATM   13  H   UNL     1      27.807  41.825  48.785  1.00  0.00     0.169 HD
HETATM   14  O   UNL     1      26.135  40.588  51.181  1.00  0.00    -0.267 OA
BRANCH  12  15
HETATM   15  C   UNL     1      27.493  39.780  48.665  1.00  0.00     0.035 A 
HETATM   16  C   UNL     1      26.456  39.022  48.114  1.00  0.00     0.039 A 
HETATM   17  C   UNL     1      26.694  37.736  47.592  1.00  0.00    -0.028 A 
HETATM   18  C   UNL     1      27.994  37.216  47.641  1.00  0.00     0.010 A 
HETATM   19  C   UNL     1      29.037  37.973  48.171  1.00  0.00     0.003 A 
HETATM   20  C   UNL     1      28.788  39.251  48.674  1.00  0.00     0.029 A 
BRANCH  17  21
HETATM   21  C   UNL     1      25.542  36.930  47.032  1.00  0.00     0.147 C 
HETATM   22  C   UNL     1      24.528  37.808  46.313  1.00  0.00     0.044 C 
BRANCH  21  23
HETATM   23  O   UNL     1      24.876  36.216  48.073  1.00  0.00    -0.391 OA
HETATM   24  H   UNL     1      24.609  36.876  48.736  1.00  0.00     0.210 HD
ENDBRANCH  21  23
ENDBRANCH  17  21
ENDBRANCH  12  15
ENDBRANCH   1  11
BRANCH   4  25
HETATM   25  C   UNL     1      25.711  46.962  52.250  1.00  0.00     0.409 C 
HETATM   26  F   UNL     1      26.347  47.842  51.450  1.00  0.00    -0.169 F 
HETATM   27  F   UNL     1      24.594  46.539  51.615  1.00  0.00    -0.169 F 
HETATM   28  F   UNL     1      25.290  47.673  53.333  1.00  0.00    -0.169 F 
ENDBRANCH   4  25
BRANCH   6  29
HETATM   29  C   UNL     1      28.128  44.052  54.809  1.00  0.00    -0.035 A 
HETATM   30  C   UNL     1      29.047  43.038  54.477  1.00  0.00     0.009 A 
HETATM   31  C   UNL     1      30.382  43.111  54.883  1.00  0.00     0.001 A 
HETATM   32  C   UNL     1      30.827  44.203  55.619  1.00  0.00     0.000 A 
HETATM   33  C   UNL     1      29.939  45.223  55.947  1.00  0.00     0.001 A 
HETATM   34  C   UNL     1      28.603  45.149  55.545  1.00  0.00     0.009 A 
ENDBRANCH   6  29
TORSDOF 6
ENDMDL
MODEL 4
REMARK VINA RESULT:      -8.7      3.729      8.076
REMARK  6 active torsions:
REMARK  status: ('A' for Active; 'I' for Inactive)
REMARK    1  A    between atoms: C_2  and  O_3 
REMARK    2  A    between atoms: C_2  and  C_4 
REMARK    3  A    between atoms: C_6  and  N_7 
REMARK       I    between atoms: N_7  and  C_8 
REMARK    4  A    between atoms: C_8  and  C_9 
REMARK    5  A    between atoms: C_12  and  C_13 
REMARK    6  A    between atoms: C_18  and  C_19 
ROOT
HETATM    1  C   UNL     1      23.250  44.910  49.176  1.00  0.00     0.096 C 
HETATM    2  C   UNL     1      24.550  44.586  49.519  1.00  0.00     0.138 C 
HETATM    3  N   UNL     1      24.508  43.279  49.951  1.00  0.00    -0.240 N 
HETATM    4  C   UNL     1      25.660  42.533  50.426  1.00  0.00     0.221 C 
HETATM    5  C   UNL     1      26.959  43.241  50.000  1.00  0.00     0.066 C 
HETATM    6  C   UNL     1      26.880  44.754  50.252  1.00  0.00     0.118 C 
HETATM    7  N   UNL     1      25.716  45.294  49.531  1.00  0.00    -0.365 N 
HETATM    8  N   UNL     1      23.261  42.800  50.078  1.00  0.00    -0.181 NA
HETATM    9  C   UNL     1      22.501  43.780  49.582  1.00  0.00     0.160 C 
HETATM   10  H   UNL     1      25.663  46.313  49.601  1.00  0.00     0.161 HD
ENDROOT
BRANCH   1  11
HETATM   11  C   UNL     1      22.721  46.122  48.576  1.00  0.00     0.261 C 
HETATM   12  N   UNL     1      22.778  47.218  49.417  1.00  0.00    -0.323 N 
HETATM   13  H   UNL     1      23.238  47.056  50.307  1.00  0.00     0.169 HD
HETATM   14  O   UNL     1      22.330  46.120  47.415  1.00  0.00    -0.267 OA
BRANCH  12  15
HETATM   15  C   UNL     1      22.423  48.549  49.123  1.00  0.00     0.035 A 
HETATM   16  C   UNL     1      21.116  49.041  49.199  1.00  0.00     0.039 A 
HETATM   17  C   UNL     1      20.821  50.375  48.861  1.00  0.00    -0.028 A 
HETATM   18  C   UNL     1      21.861  51.211  48.432  1.00  0.00     0.010 A 
HETATM   19  C   UNL     1      23.169  50.735  48.372  1.00  0.00     0.003 A 
HETATM   20  C   UNL     1      23.448  49.412  48.722  1.00  0.00     0.029 A 
BRANCH  17  21
HETATM   21  C   UNL     1      19.390  50.865  48.925  1.00  0.00     0.147 C 
HETATM   22  C   UNL     1      19.266  52.318  48.488  1.00  0.00     0.044 C 
BRANCH  21  23
HETATM   23  O   UNL     1      18.874  50.737  50.249  1.00  0.00    -0.391 OA
HETATM   24  H   UNL     1      18.066  50.200  50.181  1.00  0.00     0.210 HD
ENDBRANCH  21  23
ENDBRANCH  17  21
ENDBRANCH  12  15
ENDBRANCH   1  11
BRANCH   4  25
HETATM   25  C   UNL     1      25.666  41.114  49.898  1.00  0.00     0.409 C 
HETATM   26  F   UNL     1      25.702  40.173  50.862  1.00  0.00    -0.169 F 
HETATM   27  F   UNL     1      24.607  40.861  49.095  1.00  0.00    -0.169 F 
HETATM   28  F   UNL     1      26.778  40.918  49.138  1.00  0.00    -0.169 F 
ENDBRANCH   4  25
BRANCH   6  29
HETATM   29  C   UNL     1      26.911  45.107  51.735  1.00  0.00    -0.035 A 
HETATM   30  C   UNL     1      27.719  44.339  52.595  1.00  0.00     0.009 A 
HETATM   31  C   UNL     1      27.760  44.592  53.968  1.00  0.00     0.001 A 
HETATM   32  C   UNL     1      27.001  45.625  54.508  1.00  0.00     0.000 A 
HETATM   33  C   UNL     1      26.204  46.405  53.675  1.00  0.00     0.001 A 
HETATM   34  C   UNL     1      26.161  46.150  52.302  1.00  0.00     0.009 A 
ENDBRANCH   6  29
TORSDOF 6
ENDMDL
MODEL 5
REMARK VINA RESULT:      -8.6      3.909      8.841
REMARK  6 active torsions:
REMARK  status: ('A' for Active; 'I' for Inactive)
REMARK    1  A    between atoms: C_2  and  O_3 
REMARK    2  A    between atoms: C_2  and  C_4 
REMARK    3  A    between atoms: C_6  and  N_7 
REMARK       I    between atoms: N_7  and  C_8 
REMARK    4  A    between atoms: C_8  and  C_9 
REMARK    5  A    between atoms: C_12  and  C_13 
REMARK    6  A    between atoms: C_18  and  C_19 
ROOT
HETATM    1  C   UNL     1      24.857  45.601  51.547  1.00  0.00     0.096 C 
HETATM    2  C   UNL     1      25.479  45.276  52.739  1.00  0.00     0.138 C 
HETATM    3  N   UNL     1      26.175  46.402  53.118  1.00  0.00    -0.240 N 
HETATM    4  C   UNL     1      26.990  46.501  54.316  1.00  0.00     0.221 C 
HETATM    5  C   UNL     1      26.645  45.354  55.284  1.00  0.00     0.066 C 
HETATM    6  C   UNL     1      26.541  44.011  54.547  1.00  0.00     0.118 C 
HETATM    7  N   UNL     1      25.532  44.133  53.482  1.00  0.00    -0.365 N 
HETATM    8  N   UNL     1      26.190  47.360  52.178  1.00  0.00    -0.181 NA
HETATM    9  C   UNL     1      25.369  46.884  51.238  1.00  0.00     0.160 C 
HETATM   10  H   UNL     1      25.366  43.241  53.011  1.00  0.00     0.161 HD
ENDROOT
BRANCH   1  11
HETATM   11  C   UNL     1      23.924  44.830  50.745  1.00  0.00     0.261 C 
HETATM   12  N   UNL     1      23.521  45.486  49.595  1.00  0.00    -0.323 N 
HETATM   13  H   UNL     1      23.974  46.378  49.425  1.00  0.00     0.169 HD
HETATM   14  O   UNL     1      23.608  43.695  51.080  1.00  0.00    -0.267 OA
BRANCH  12  15
HETATM   15  C   UNL     1      22.690  44.993  48.569  1.00  0.00     0.035 A 
HETATM   16  C   UNL     1      23.159  44.274  47.466  1.00  0.00     0.039 A 
HETATM   17  C   UNL     1      22.280  43.837  46.457  1.00  0.00    -0.028 A 
HETATM   18  C   UNL     1      20.916  44.142  46.568  1.00  0.00     0.010 A 
HETATM   19  C   UNL     1      20.438  44.842  47.674  1.00  0.00     0.003 A 
HETATM   20  C   UNL     1      21.321  45.259  48.672  1.00  0.00     0.029 A 
BRANCH  17  21
HETATM   21  C   UNL     1      22.826  43.088  45.260  1.00  0.00     0.147 C 
HETATM   22  C   UNL     1      22.007  41.844  44.944  1.00  0.00     0.044 C 
BRANCH  21  23
HETATM   23  O   UNL     1      24.182  42.701  45.486  1.00  0.00    -0.391 OA
HETATM   24  H   UNL     1      24.732  43.296  44.949  1.00  0.00     0.210 HD
ENDBRANCH  21  23
ENDBRANCH  17  21
ENDBRANCH  12  15
ENDBRANCH   1  11
BRANCH   4  25
HETATM   25  C   UNL     1      26.796  47.827  55.019  1.00  0.00     0.409 C 
HETATM   26  F   UNL     1      27.784  48.716  54.790  1.00  0.00    -0.169 F 
HETATM   27  F   UNL     1      25.617  48.409  54.700  1.00  0.00    -0.169 F 
HETATM   28  F   UNL     1      26.773  47.627  56.365  1.00  0.00    -0.169 F 
ENDBRANCH   4  25
BRANCH   6  29
HETATM   29  C   UNL     1      27.893  43.497  54.066  1.00  0.00    -0.035 A 
HETATM   30  C   UNL     1      27.941  42.722  52.890  1.00  0.00     0.009 A 
HETATM   31  C   UNL     1      29.146  42.194  52.421  1.00  0.00     0.001 A 
HETATM   32  C   UNL     1      30.329  42.438  53.111  1.00  0.00     0.000 A 
HETATM   33  C   UNL     1      30.307  43.211  54.267  1.00  0.00     0.001 A 
HETATM   34  C   UNL     1      29.101  43.737  54.740  1.00  0.00     0.009 A 
ENDBRANCH   6  29
TORSDOF 6
ENDMDL
MODEL 6
REMARK VINA RESULT:      -8.5      4.544      6.392
REMARK  6 active torsions:
REMARK  status: ('A' for Active; 'I' for Inactive)
REMARK    1  A    between atoms: C_2  and  O_3 
REMARK    2  A    between atoms: C_2  and  C_4 
REMARK    3  A    between atoms: C_6  and  N_7 
REMARK       I    between atoms: N_7  and  C_8 
REMARK    4  A    between atoms: C_8  and  C_9 
REMARK    5  A    between atoms: C_12  and  C_13 
REMARK    6  A    between atoms: C_18  and  C_19 
ROOT
HETATM    1  C   UNL     1      21.996  47.009  48.332  1.00  0.00     0.096 C 
HETATM    2  C   UNL     1      20.706  47.379  48.665  1.00  0.00     0.138 C 
HETATM    3  N   UNL     1      19.947  47.141  47.541  1.00  0.00    -0.240 N 
HETATM    4  C   UNL     1      18.522  47.404  47.440  1.00  0.00     0.221 C 
HETATM    5  C   UNL     1      17.919  47.586  48.846  1.00  0.00     0.066 C 
HETATM    6  C   UNL     1      18.797  48.493  49.719  1.00  0.00     0.118 C 
HETATM    7  N   UNL     1      20.151  47.918  49.788  1.00  0.00    -0.365 N 
HETATM    8  N   UNL     1      20.677  46.815  46.464  1.00  0.00    -0.181 NA
HETATM    9  C   UNL     1      21.917  46.709  46.951  1.00  0.00     0.160 C 
HETATM   10  H   UNL     1      20.756  48.442  50.425  1.00  0.00     0.161 HD
ENDROOT
BRANCH   1  11
HETATM   11  C   UNL     1      23.191  46.959  49.156  1.00  0.00     0.261 C 
HETATM   12  N   UNL     1      23.521  45.679  49.563  1.00  0.00    -0.323 N 
HETATM   13  H   UNL     1      22.937  44.941  49.185  1.00  0.00     0.169 HD
HETATM   14  O   UNL     1      23.830  47.979  49.385  1.00  0.00    -0.267 OA
BRANCH  12  15
HETATM   15  C   UNL     1      24.652  45.275  50.301  1.00  0.00     0.035 A 
HETATM   16  C   UNL     1      24.673  45.163  51.694  1.00  0.00     0.039 A 
HETATM   17  C   UNL     1      25.845  44.784  52.375  1.00  0.00    -0.028 A 
HETATM   18  C   UNL     1      27.006  44.527  51.633  1.00  0.00     0.010 A 
HETATM   19  C   UNL     1      26.989  44.618  50.242  1.00  0.00     0.003 A 
HETATM   20  C   UNL     1      25.815  44.984  49.581  1.00  0.00     0.029 A 
BRANCH  17  21
HETATM   21  C   UNL     1      25.841  44.703  53.887  1.00  0.00     0.147 C 
HETATM   22  C   UNL     1      27.183  44.238  54.435  1.00  0.00     0.044 C 
BRANCH  21  23
HETATM   23  O   UNL     1      24.824  43.810  54.339  1.00  0.00    -0.391 OA
HETATM   24  H   UNL     1      24.135  43.804  53.652  1.00  0.00     0.210 HD
ENDBRANCH  21  23
ENDBRANCH  17  21
ENDBRANCH  12  15
ENDBRANCH   1  11
BRANCH   4  25
HETATM   25  C   UNL     1      17.795  46.288  46.722  1.00  0.00     0.409 C 
HETATM   26  F   UNL     1      18.187  45.053  47.095  1.00  0.00    -0.169 F 
HETATM   27  F   UNL     1      16.453  46.372  46.870  1.00  0.00    -0.169 F 
HETATM   28  F   UNL     1      18.039  46.374  45.386  1.00  0.00    -0.169 F 
ENDBRANCH   4  25
BRANCH   6  29
HETATM   29  C   UNL     1      18.764  49.951  49.274  1.00  0.00    -0.035 A 
HETATM   30  C   UNL     1      19.977  50.580  48.931  1.00  0.00     0.009 A 
HETATM   31  C   UNL     1      20.013  51.923  48.550  1.00  0.00     0.001 A 
HETATM   32  C   UNL     1      18.836  52.662  48.493  1.00  0.00     0.000 A 
HETATM   33  C   UNL     1      17.625  52.058  48.815  1.00  0.00     0.001 A 
HETATM   34  C   UNL     1      17.589  50.715  49.200  1.00  0.00     0.009 A 
ENDBRANCH   6  29
TORSDOF 6
ENDMDL
MODEL 7
REMARK VINA RESULT:      -8.4     12.778     13.926
REMARK  6 active torsions:
REMARK  status: ('A' for Active; 'I' for Inactive)
REMARK    1  A    between atoms: C_2  and  O_3 
REMARK    2  A    between atoms: C_2  and  C_4 
REMARK    3  A    between atoms: C_6  and  N_7 
REMARK       I    between atoms: N_7  and  C_8 
REMARK    4  A    between atoms: C_8  and  C_9 
REMARK    5  A    between atoms: C_12  and  C_13 
REMARK    6  A    between atoms: C_18  and  C_19 
ROOT
HETATM    1  C   UNL     1      32.887  51.366  41.916  1.00  0.00     0.096 C 
HETATM    2  C   UNL     1      32.154  51.196  40.755  1.00  0.00     0.138 C 
HETATM    3  N   UNL     1      30.948  51.822  40.980  1.00  0.00    -0.240 N 
HETATM    4  C   UNL     1      29.859  51.876  40.021  1.00  0.00     0.221 C 
HETATM    5  C   UNL     1      30.376  51.513  38.616  1.00  0.00     0.066 C 
HETATM    6  C   UNL     1      31.289  50.280  38.656  1.00  0.00     0.118 C 
HETATM    7  N   UNL     1      32.402  50.545  39.583  1.00  0.00    -0.365 N 
HETATM    8  N   UNL     1      30.785  52.224  42.249  1.00  0.00    -0.181 NA
HETATM    9  C   UNL     1      31.972  51.972  42.809  1.00  0.00     0.160 C 
HETATM   10  H   UNL     1      33.085  49.784  39.586  1.00  0.00     0.161 HD
ENDROOT
BRANCH   1  11
HETATM   11  C   UNL     1      34.260  50.995  42.211  1.00  0.00     0.261 C 
HETATM   12  N   UNL     1      34.965  51.986  42.869  1.00  0.00    -0.323 N 
HETATM   13  H   UNL     1      34.425  52.807  43.120  1.00  0.00     0.169 HD
HETATM   14  O   UNL     1      34.675  49.877  41.929  1.00  0.00    -0.267 OA
BRANCH  12  15
HETATM   15  C   UNL     1      36.283  51.922  43.365  1.00  0.00     0.035 A 
HETATM   16  C   UNL     1      36.737  52.656  44.464  1.00  0.00     0.039 A 
HETATM   17  C   UNL     1      38.076  52.572  44.891  1.00  0.00    -0.028 A 
HETATM   18  C   UNL     1      38.960  51.743  44.188  1.00  0.00     0.010 A 
HETATM   19  C   UNL     1      38.511  50.993  43.103  1.00  0.00     0.003 A 
HETATM   20  C   UNL     1      37.177  51.078  42.698  1.00  0.00     0.029 A 
BRANCH  17  21
HETATM   21  C   UNL     1      38.541  53.406  46.066  1.00  0.00     0.147 C 
HETATM   22  C   UNL     1      39.970  53.899  45.883  1.00  0.00     0.044 C 
BRANCH  21  23
HETATM   23  O   UNL     1      38.464  52.654  47.276  1.00  0.00    -0.391 OA
HETATM   24  H   UNL     1      37.595  52.847  47.668  1.00  0.00     0.210 HD
ENDBRANCH  21  23
ENDBRANCH  17  21
ENDBRANCH  12  15
ENDBRANCH   1  11
BRANCH   4  25
HETATM   25  C   UNL     1      29.214  53.244  39.981  1.00  0.00     0.409 C 
HETATM   26  F   UNL     1      28.195  53.392  40.851  1.00  0.00    -0.169 F 
HETATM   27  F   UNL     1      30.106  54.238  40.196  1.00  0.00    -0.169 F 
HETATM   28  F   UNL     1      28.689  53.462  38.744  1.00  0.00    -0.169 F 
ENDBRANCH   4  25
BRANCH   6  29
HETATM   29  C   UNL     1      30.528  48.993  38.952  1.00  0.00    -0.035 A 
HETATM   30  C   UNL     1      29.170  48.912  38.587  1.00  0.00     0.009 A 
HETATM   31  C   UNL     1      28.413  47.771  38.865  1.00  0.00     0.001 A 
HETATM   32  C   UNL     1      29.000  46.684  39.503  1.00  0.00     0.000 A 
HETATM   33  C   UNL     1      30.343  46.737  39.861  1.00  0.00     0.001 A 
HETATM   34  C   UNL     1      31.101  47.879  39.586  1.00  0.00     0.009 A 
ENDBRANCH   6  29
TORSDOF 6
ENDMDL
MODEL 8
REMARK VINA RESULT:      -8.3      4.221      9.150
REMARK  6 active torsions:
REMARK  status: ('A' for Active; 'I' for Inactive)
REMARK    1  A    between atoms: C_2  and  O_3 
REMARK    2  A    between atoms: C_2  and  C_4 
REMARK    3  A    between atoms: C_6  and  N_7 
REMARK       I    between atoms: N_7  and  C_8 
REMARK    4  A    between atoms: C_8  and  C_9 
REMARK    5  A    between atoms: C_12  and  C_13 
REMARK    6  A    between atoms: C_18  and  C_19 
ROOT
HETATM    1  C   UNL     1      24.917  46.598  50.658  1.00  0.00     0.096 C 
HETATM    2  C   UNL     1      25.207  45.923  51.831  1.00  0.00     0.138 C 
HETATM    3  N   UNL     1      26.179  46.669  52.461  1.00  0.00    -0.240 N 
HETATM    4  C   UNL     1      26.791  46.317  53.730  1.00  0.00     0.221 C 
HETATM    5  C   UNL     1      25.938  45.257  54.451  1.00  0.00     0.066 C 
HETATM    6  C   UNL     1      25.495  44.145  53.489  1.00  0.00     0.118 C 
HETATM    7  N   UNL     1      24.758  44.753  52.369  1.00  0.00    -0.365 N 
HETATM    8  N   UNL     1      26.658  47.668  51.704  1.00  0.00    -0.181 NA
HETATM    9  C   UNL     1      25.874  47.640  50.622  1.00  0.00     0.160 C 
HETATM   10  H   UNL     1      24.371  44.047  51.738  1.00  0.00     0.161 HD
ENDROOT
BRANCH   1  11
HETATM   11  C   UNL     1      23.909  46.320  49.651  1.00  0.00     0.261 C 
HETATM   12  N   UNL     1      22.886  47.250  49.631  1.00  0.00    -0.323 N 
HETATM   13  H   UNL     1      23.001  48.034  50.265  1.00  0.00     0.169 HD
HETATM   14  O   UNL     1      24.039  45.371  48.887  1.00  0.00    -0.267 OA
BRANCH  12  15
HETATM   15  C   UNL     1      21.800  47.318  48.735  1.00  0.00     0.035 A 
HETATM   16  C   UNL     1      20.916  46.261  48.502  1.00  0.00     0.039 A 
HETATM   17  C   UNL     1      19.870  46.381  47.569  1.00  0.00    -0.028 A 
HETATM   18  C   UNL     1      19.727  47.583  46.862  1.00  0.00     0.010 A 
HETATM   19  C   UNL     1      20.592  48.649  47.102  1.00  0.00     0.003 A 
HETATM   20  C   UNL     1      21.619  48.518  48.039  1.00  0.00     0.029 A 
BRANCH  17  21
HETATM   21  C   UNL     1      18.950  45.204  47.317  1.00  0.00     0.147 C 
HETATM   22  C   UNL     1      17.730  45.600  46.499  1.00  0.00     0.044 C 
BRANCH  21  23
HETATM   23  O   UNL     1      18.514  44.636  48.552  1.00  0.00    -0.391 OA
HETATM   24  H   UNL     1      18.415  43.681  48.398  1.00  0.00     0.210 HD
ENDBRANCH  21  23
ENDBRANCH  17  21
ENDBRANCH  12  15
ENDBRANCH   1  11
BRANCH   4  25
HETATM   25  C   UNL     1      26.956  47.524  54.627  1.00  0.00     0.409 C 
HETATM   26  F   UNL     1      26.995  47.226  55.941  1.00  0.00    -0.169 F 
HETATM   27  F   UNL     1      28.058  48.245  54.320  1.00  0.00    -0.169 F 
HETATM   28  F   UNL     1      25.894  48.360  54.462  1.00  0.00    -0.169 F 
ENDBRANCH   4  25
BRANCH   6  29
HETATM   29  C   UNL     1      26.648  43.246  53.057  1.00  0.00    -0.035 A 
HETATM   30  C   UNL     1      27.572  42.818  54.031  1.00  0.00     0.009 A 
HETATM   31  C   UNL     1      28.668  42.022  53.689  1.00  0.00     0.001 A 
HETATM   32  C   UNL     1      28.857  41.630  52.368  1.00  0.00     0.000 A 
HETATM   33  C   UNL     1      27.951  42.031  51.391  1.00  0.00     0.001 A 
HETATM   34  C   UNL     1      26.856  42.829  51.733  1.00  0.00     0.009 A 
ENDBRANCH   6  29
TORSDOF 6
ENDMDL
MODEL 9
REMARK VINA RESULT:      -8.2      9.223     13.102
REMARK  6 active torsions:
REMARK  status: ('A' for Active; 'I' for Inactive)
REMARK    1  A    between atoms: C_2  and  O_3 
REMARK    2  A    between atoms: C_2  and  C_4 
REMARK    3  A    between atoms: C_6  and  N_7 
REMARK       I    between atoms: N_7  and  C_8 
REMARK    4  A    between atoms: C_8  and  C_9 
REMARK    5  A    between atoms: C_12  and  C_13 
REMARK    6  A    between atoms: C_18  and  C_19 
ROOT
HETATM    1  C   UNL     1      17.967  51.738  49.025  1.00  0.00     0.096 C 
HETATM    2  C   UNL     1      18.622  50.520  49.018  1.00  0.00     0.138 C 
HETATM    3  N   UNL     1      19.935  50.804  48.716  1.00  0.00    -0.240 N 
HETATM    4  C   UNL     1      20.983  49.806  48.590  1.00  0.00     0.221 C 
HETATM    5  C   UNL     1      20.529  48.480  49.228  1.00  0.00     0.066 C 
HETATM    6  C   UNL     1      19.093  48.125  48.819  1.00  0.00     0.118 C 
HETATM    7  N   UNL     1      18.203  49.234  49.202  1.00  0.00    -0.365 N 
HETATM    8  N   UNL     1      20.135  52.081  48.358  1.00  0.00    -0.181 NA
HETATM    9  C   UNL     1      18.947  52.652  48.571  1.00  0.00     0.160 C 
HETATM   10  H   UNL     1      17.221  49.015  49.024  1.00  0.00     0.161 HD
ENDROOT
BRANCH   1  11
HETATM   11  C   UNL     1      16.591  52.052  49.370  1.00  0.00     0.261 C 
HETATM   12  N   UNL     1      16.415  53.361  49.778  1.00  0.00    -0.323 N 
HETATM   13  H   UNL     1      17.241  53.947  49.720  1.00  0.00     0.169 HD
HETATM   14  O   UNL     1      15.710  51.210  49.237  1.00  0.00    -0.267 OA
BRANCH  12  15
HETATM   15  C   UNL     1      15.206  54.006  50.106  1.00  0.00     0.035 A 
HETATM   16  C   UNL     1      14.985  54.678  51.312  1.00  0.00     0.039 A 
HETATM   17  C   UNL     1      13.742  55.275  51.593  1.00  0.00    -0.028 A 
HETATM   18  C   UNL     1      12.714  55.180  50.645  1.00  0.00     0.010 A 
HETATM   19  C   UNL     1      12.932  54.528  49.433  1.00  0.00     0.003 A 
HETATM   20  C   UNL     1      14.174  53.951  49.163  1.00  0.00     0.029 A 
BRANCH  17  21
HETATM   21  C   UNL     1      13.527  55.968  52.922  1.00  0.00     0.147 C 
HETATM   22  C   UNL     1      14.803  56.615  53.441  1.00  0.00     0.044 C 
BRANCH  21  23
HETATM   23  O   UNL     1      13.050  55.042  53.899  1.00  0.00    -0.391 OA
HETATM   24  H   UNL     1      12.115  55.259  54.053  1.00  0.00     0.210 HD
ENDBRANCH  21  23
ENDBRANCH  17  21
ENDBRANCH  12  15
ENDBRANCH   1  11
BRANCH   4  25
HETATM   25  C   UNL     1      22.272  50.261  49.240  1.00  0.00     0.409 C 
HETATM   26  F   UNL     1      23.041  51.033  48.446  1.00  0.00    -0.169 F 
HETATM   27  F   UNL     1      22.055  50.925  50.399  1.00  0.00    -0.169 F 
HETATM   28  F   UNL     1      23.029  49.175  49.557  1.00  0.00    -0.169 F 
ENDBRANCH   4  25
BRANCH   6  29
HETATM   29  C   UNL     1      18.981  47.717  47.355  1.00  0.00    -0.035 A 
HETATM   30  C   UNL     1      19.896  46.776  46.844  1.00  0.00     0.009 A 
HETATM   31  C   UNL     1      19.864  46.390  45.502  1.00  0.00     0.001 A 
HETATM   32  C   UNL     1      18.911  46.929  44.645  1.00  0.00     0.000 A 
HETATM   33  C   UNL     1      17.989  47.851  45.131  1.00  0.00     0.001 A 
HETATM   34  C   UNL     1      18.021  48.240  46.473  1.00  0.00     0.009 A 
ENDBRANCH   6  29
TORSDOF 6
ENDMDL
MODEL 10
REMARK VINA RESULT:      -8.2      4.462      8.083
REMARK  6 active torsions:
REMARK  status: ('A' for Active; 'I' for Inactive)
REMARK    1  A    between atoms: C_2  and  O_3 
REMARK    2  A    between atoms: C_2  and  C_4 
REMARK    3  A    between atoms: C_6  and  N_7 
REMARK       I    between atoms: N_7  and  C_8 
REMARK    4  A    between atoms: C_8  and  C_9 
REMARK    5  A    between atoms: C_12  and  C_13 
REMARK    6  A    between atoms: C_18  and  C_19 
ROOT
HETATM    1  C   UNL     1      25.648  45.980  49.876  1.00  0.00     0.096 C 
HETATM    2  C   UNL     1      24.985  44.770  49.970  1.00  0.00     0.138 C 
HETATM    3  N   UNL     1      25.966  43.804  49.952  1.00  0.00    -0.240 N 
HETATM    4  C   UNL     1      25.714  42.375  50.016  1.00  0.00     0.221 C 
HETATM    5  C   UNL     1      24.279  42.115  50.510  1.00  0.00     0.066 C 
HETATM    6  C   UNL     1      23.269  43.032  49.805  1.00  0.00     0.118 C 
HETATM    7  N   UNL     1      23.665  44.432  50.028  1.00  0.00    -0.365 N 
HETATM    8  N   UNL     1      27.187  44.289  49.678  1.00  0.00    -0.181 NA
HETATM    9  C   UNL     1      26.997  45.611  49.659  1.00  0.00     0.160 C 
HETATM   10  H   UNL     1      22.979  45.088  49.646  1.00  0.00     0.161 HD
ENDROOT
BRANCH   1  11
HETATM   11  C   UNL     1      25.126  47.334  49.940  1.00  0.00     0.261 C 
HETATM   12  N   UNL     1      24.092  47.563  49.050  1.00  0.00    -0.323 N 
HETATM   13  H   UNL     1      23.787  46.752  48.524  1.00  0.00     0.169 HD
HETATM   14  O   UNL     1      25.564  48.131  50.761  1.00  0.00    -0.267 OA
BRANCH  12  15
HETATM   15  C   UNL     1      23.320  48.734  48.910  1.00  0.00     0.035 A 
HETATM   16  C   UNL     1      21.995  48.849  49.342  1.00  0.00     0.039 A 
HETATM   17  C   UNL     1      21.267  50.036  49.144  1.00  0.00    -0.028 A 
HETATM   18  C   UNL     1      21.887  51.111  48.492  1.00  0.00     0.010 A 
HETATM   19  C   UNL     1      23.213  51.011  48.075  1.00  0.00     0.003 A 
HETATM   20  C   UNL     1      23.927  49.830  48.289  1.00  0.00     0.029 A 
BRANCH  17  21
HETATM   21  C   UNL     1      19.824  50.115  49.596  1.00  0.00     0.147 C 
HETATM   22  C   UNL     1      19.368  51.553  49.797  1.00  0.00     0.044 C 
BRANCH  21  23
HETATM   23  O   UNL     1      19.641  49.399  50.817  1.00  0.00    -0.391 OA
HETATM   24  H   UNL     1      18.775  48.962  50.755  1.00  0.00     0.210 HD
ENDBRANCH  21  23
ENDBRANCH  17  21
ENDBRANCH  12  15
ENDBRANCH   1  11
BRANCH   4  25
HETATM   25  C   UNL     1      26.695  41.673  50.929  1.00  0.00     0.409 C 
HETATM   26  F   UNL     1      27.012  42.377  52.034  1.00  0.00    -0.169 F 
HETATM   27  F   UNL     1      26.254  40.453  51.314  1.00  0.00    -0.169 F 
HETATM   28  F   UNL     1      27.865  41.466  50.265  1.00  0.00    -0.169 F 
ENDBRANCH   4  25
BRANCH   6  29
HETATM   29  C   UNL     1      23.068  42.670  48.338  1.00  0.00    -0.035 A 
HETATM   30  C   UNL     1      22.905  41.313  47.994  1.00  0.00     0.009 A 
HETATM   31  C   UNL     1      22.752  40.919  46.662  1.00  0.00     0.001 A 
HETATM   32  C   UNL     1      22.749  41.872  45.650  1.00  0.00     0.000 A 
HETATM   33  C   UNL     1      22.896  43.218  45.968  1.00  0.00     0.001 A 
HETATM   34  C   UNL     1      23.051  43.614  47.299  1.00  0.00     0.009 A 
ENDBRANCH   6  29
TORSDOF 6
ENDMDL
