MODEL 1
REMARK VINA RESULT:      -7.8      0.000      0.000
REMARK  6 active torsions:
REMARK  status: ('A' for Active; 'I' for Inactive)
REMARK    1  A    between atoms: C_2  and  O_3 
REMARK    2  A    between atoms: O_3  and  C_4 
REMARK    3  A    between atoms: C_4  and  C_5 
REMARK    4  A    between atoms: C_10  and  C_11 
REMARK    5  A    between atoms: C_11  and  N_12 
REMARK    6  A    between atoms: C_11  and  C_16 
ROOT
HETATM    1  C   UNL     1      27.269  42.775  51.424  1.00  0.00     0.118 A 
HETATM    2  N   UNL     1      27.175  43.516  50.275  1.00  0.00    -0.350 N 
HETATM    3  H   UNL     1      27.320  43.154  49.340  1.00  0.00     0.166 HD
HETATM    4  C   UNL     1      26.771  44.794  50.559  1.00  0.00     0.043 A 
HETATM    5  C   UNL     1      26.683  44.911  51.950  1.00  0.00     0.002 A 
HETATM    6  C   UNL     1      27.053  43.634  52.513  1.00  0.00     0.022 A 
HETATM    7  C   UNL     1      26.486  45.843  49.677  1.00  0.00     0.030 A 
HETATM    8  C   UNL     1      26.090  47.064  50.221  1.00  0.00     0.002 A 
HETATM    9  C   UNL     1      25.988  47.225  51.595  1.00  0.00     0.001 A 
HETATM   10  C   UNL     1      26.282  46.166  52.464  1.00  0.00     0.014 A 
ENDROOT
BRANCH   6  11
HETATM   11  C   UNL     1      27.174  43.163  53.946  1.00  0.00     0.252 C 
BRANCH  11  12
HETATM   12  N   UNL     1      25.915  43.401  54.682  1.00  0.00    -0.067 N 
HETATM   13  H   UNL     1      25.102  43.277  54.073  1.00  0.00     0.275 HD
HETATM   14  H   UNL     1      25.847  42.793  55.501  1.00  0.00     0.275 HD
HETATM   15  H   UNL     1      25.922  44.385  55.001  1.00  0.00     0.275 HD
ENDBRANCH  11  12
BRANCH  11  16
HETATM   16  C   UNL     1      28.413  43.711  54.610  1.00  0.00    -0.024 A 
HETATM   17  C   UNL     1      29.566  42.899  54.669  1.00  0.00     0.009 A 
HETATM   18  C   UNL     1      30.723  43.339  55.311  1.00  0.00     0.001 A 
HETATM   19  C   UNL     1      30.753  44.595  55.908  1.00  0.00     0.000 A 
HETATM   20  C   UNL     1      29.626  45.414  55.861  1.00  0.00     0.001 A 
HETATM   21  C   UNL     1      28.463  44.979  55.218  1.00  0.00     0.009 A 
ENDBRANCH  11  16
ENDBRANCH   6  11
BRANCH   1  22
HETATM   22  C   UNL     1      27.529  41.356  51.459  1.00  0.00     0.310 C 
HETATM   23  O   UNL     1      28.628  40.895  51.748  1.00  0.00    -0.258 OA
BRANCH  22  24
HETATM   24  O   UNL     1      26.411  40.662  51.143  1.00  0.00    -0.317 OA
BRANCH  24  25
HETATM   25  C   UNL     1      26.456  39.904  49.923  1.00  0.00     0.175 C 
HETATM   26  C   UNL     1      25.573  40.565  48.880  1.00  0.00     0.034 C 
ENDBRANCH  24  25
ENDBRANCH  22  24
ENDBRANCH   1  22
TORSDOF 6
ENDMDL
MODEL 2
REMARK VINA RESULT:      -7.2      2.643      5.871
REMARK  6 active torsions:
REMARK  status: ('A' for Active; 'I' for Inactive)
REMARK    1  A    between atoms: C_2  and  O_3 
REMARK    2  A    between atoms: O_3  and  C_4 
REMARK    3  A    between atoms: C_4  and  C_5 
REMARK    4  A    between atoms: C_10  and  C_11 
REMARK    5  A    between atoms: C_11  and  N_12 
REMARK    6  A    between atoms: C_11  and  C_16 
ROOT
HETATM    1  C   UNL     1      27.497  46.275  54.467  1.00  0.00     0.118 A 
HETATM    2  N   UNL     1      28.698  46.657  55.004  1.00  0.00    -0.350 N 
HETATM    3  H   UNL     1      28.965  47.614  55.203  1.00  0.00     0.166 HD
HETATM    4  C   UNL     1      29.455  45.558  55.316  1.00  0.00     0.043 A 
HETATM    5  C   UNL     1      28.755  44.426  54.888  1.00  0.00     0.002 A 
HETATM    6  C   UNL     1      27.521  44.883  54.294  1.00  0.00     0.022 A 
HETATM    7  C   UNL     1      30.706  45.501  55.942  1.00  0.00     0.030 A 
HETATM    8  C   UNL     1      31.275  44.245  56.150  1.00  0.00     0.002 A 
HETATM    9  C   UNL     1      30.616  43.094  55.741  1.00  0.00     0.001 A 
HETATM   10  C   UNL     1      29.366  43.170  55.112  1.00  0.00     0.014 A 
ENDROOT
BRANCH   6  11
HETATM   11  C   UNL     1      26.383  44.134  53.636  1.00  0.00     0.252 C 
BRANCH  11  12
HETATM   12  N   UNL     1      25.642  43.329  54.630  1.00  0.00    -0.067 N 
HETATM   13  H   UNL     1      24.753  42.996  54.247  1.00  0.00     0.275 HD
HETATM   14  H   UNL     1      26.207  42.546  54.964  1.00  0.00     0.275 HD
HETATM   15  H   UNL     1      25.427  43.947  55.431  1.00  0.00     0.275 HD
ENDBRANCH  11  12
BRANCH  11  16
HETATM   16  C   UNL     1      26.848  43.371  52.419  1.00  0.00    -0.024 A 
HETATM   17  C   UNL     1      26.667  43.951  51.146  1.00  0.00     0.009 A 
HETATM   18  C   UNL     1      27.036  43.269  49.986  1.00  0.00     0.001 A 
HETATM   19  C   UNL     1      27.591  41.997  50.074  1.00  0.00     0.000 A 
HETATM   20  C   UNL     1      27.779  41.405  51.321  1.00  0.00     0.001 A 
HETATM   21  C   UNL     1      27.411  42.083  52.487  1.00  0.00     0.009 A 
ENDBRANCH  11  16
ENDBRANCH   6  11
BRANCH   1  22
HETATM   22  C   UNL     1      26.415  47.182  54.165  1.00  0.00     0.310 C 
HETATM   23  O   UNL     1      25.606  47.545  55.012  1.00  0.00    -0.258 OA
BRANCH  22  24
HETATM   24  O   UNL     1      26.452  47.546  52.863  1.00  0.00    -0.317 OA
BRANCH  24  25
HETATM   25  C   UNL     1      25.330  47.148  52.059  1.00  0.00     0.175 C 
HETATM   26  C   UNL     1      25.649  47.377  50.592  1.00  0.00     0.034 C 
ENDBRANCH  24  25
ENDBRANCH  22  24
ENDBRANCH   1  22
TORSDOF 6
ENDMDL
MODEL 3
REMARK VINA RESULT:      -7.1      2.210      5.486
REMARK  6 active torsions:
REMARK  status: ('A' for Active; 'I' for Inactive)
REMARK    1  A    between atoms: C_2  and  O_3 
REMARK    2  A    between atoms: O_3  and  C_4 
REMARK    3  A    between atoms: C_4  and  C_5 
REMARK    4  A    between atoms: C_10  and  C_11 
REMARK    5  A    between atoms: C_11  and  N_12 
REMARK    6  A    between atoms: C_11  and  C_16 
ROOT
HETATM    1  C   UNL     1      26.394  44.806  51.610  1.00  0.00     0.118 A 
HETATM    2  N   UNL     1      27.176  44.445  52.675  1.00  0.00    -0.350 N 
HETATM    3  H   UNL     1      27.701  43.581  52.740  1.00  0.00     0.166 HD
HETATM    4  C   UNL     1      27.220  45.453  53.602  1.00  0.00     0.043 A 
HETATM    5  C   UNL     1      26.367  46.469  53.164  1.00  0.00     0.002 A 
HETATM    6  C   UNL     1      25.792  46.038  51.911  1.00  0.00     0.022 A 
HETATM    7  C   UNL     1      27.954  45.521  54.793  1.00  0.00     0.030 A 
HETATM    8  C   UNL     1      27.825  46.668  55.574  1.00  0.00     0.002 A 
HETATM    9  C   UNL     1      26.990  47.703  55.177  1.00  0.00     0.001 A 
HETATM   10  C   UNL     1      26.258  47.616  53.984  1.00  0.00     0.014 A 
ENDROOT
BRANCH   6  11
HETATM   11  C   UNL     1      24.787  46.690  50.987  1.00  0.00     0.252 C 
BRANCH  11  12
HETATM   12  N   UNL     1      24.003  45.668  50.262  1.00  0.00    -0.067 N 
HETATM   13  H   UNL     1      24.461  44.754  50.304  1.00  0.00     0.275 HD
HETATM   14  H   UNL     1      23.049  45.610  50.625  1.00  0.00     0.275 HD
HETATM   15  H   UNL     1      23.962  45.955  49.269  1.00  0.00     0.275 HD
ENDBRANCH  11  12
BRANCH  11  16
HETATM   16  C   UNL     1      25.433  47.736  50.112  1.00  0.00    -0.024 A 
HETATM   17  C   UNL     1      24.605  48.599  49.363  1.00  0.00     0.009 A 
HETATM   18  C   UNL     1      25.151  49.553  48.503  1.00  0.00     0.001 A 
HETATM   19  C   UNL     1      26.531  49.663  48.373  1.00  0.00     0.000 A 
HETATM   20  C   UNL     1      27.368  48.822  49.103  1.00  0.00     0.001 A 
HETATM   21  C   UNL     1      26.827  47.864  49.966  1.00  0.00     0.009 A 
ENDBRANCH  11  16
ENDBRANCH   6  11
BRANCH   1  22
HETATM   22  C   UNL     1      26.256  44.030  50.400  1.00  0.00     0.310 C 
HETATM   23  O   UNL     1      26.885  44.288  49.379  1.00  0.00    -0.258 OA
BRANCH  22  24
HETATM   24  O   UNL     1      25.370  43.024  50.582  1.00  0.00    -0.317 OA
BRANCH  24  25
HETATM   25  C   UNL     1      25.762  41.734  50.086  1.00  0.00     0.175 C 
HETATM   26  C   UNL     1      26.749  41.098  51.047  1.00  0.00     0.034 C 
ENDBRANCH  24  25
ENDBRANCH  22  24
ENDBRANCH   1  22
TORSDOF 6
ENDMDL
MODEL 4
REMARK VINA RESULT:      -7.0      1.910      3.283
REMARK  6 active torsions:
REMARK  status: ('A' for Active; 'I' for Inactive)
REMARK    1  A    between atoms: C_2  and  O_3 
REMARK    2  A    between atoms: O_3  and  C_4 
REMARK    3  A    between atoms: C_4  and  C_5 
REMARK    4  A    between atoms: C_10  and  C_11 
REMARK    5  A    between atoms: C_11  and  N_12 
REMARK    6  A    between atoms: C_11  and  C_16 
ROOT
HETATM    1  C   UNL     1      27.408  42.507  52.256  1.00  0.00     0.118 A 
HETATM    2  N   UNL     1      27.245  42.477  50.897  1.00  0.00    -0.350 N 
HETATM    3  H   UNL     1      27.756  41.872  50.265  1.00  0.00     0.166 HD
HETATM    4  C   UNL     1      26.232  43.318  50.517  1.00  0.00     0.043 A 
HETATM    5  C   UNL     1      25.779  43.981  51.662  1.00  0.00     0.002 A 
HETATM    6  C   UNL     1      26.567  43.503  52.774  1.00  0.00     0.022 A 
HETATM    7  C   UNL     1      25.698  43.532  49.240  1.00  0.00     0.030 A 
HETATM    8  C   UNL     1      24.658  44.452  49.113  1.00  0.00     0.002 A 
HETATM    9  C   UNL     1      24.177  45.133  50.223  1.00  0.00     0.001 A 
HETATM   10  C   UNL     1      24.726  44.910  51.493  1.00  0.00     0.014 A 
ENDROOT
BRANCH   6  11
HETATM   11  C   UNL     1      26.561  43.869  54.243  1.00  0.00     0.252 C 
BRANCH  11  12
HETATM   12  N   UNL     1      25.311  43.415  54.889  1.00  0.00    -0.067 N 
HETATM   13  H   UNL     1      25.476  42.586  55.467  1.00  0.00     0.275 HD
HETATM   14  H   UNL     1      24.891  44.163  55.444  1.00  0.00     0.275 HD
HETATM   15  H   UNL     1      24.652  43.149  54.138  1.00  0.00     0.275 HD
ENDBRANCH  11  12
BRANCH  11  16
HETATM   16  C   UNL     1      26.895  45.325  54.455  1.00  0.00    -0.024 A 
HETATM   17  C   UNL     1      28.209  45.671  54.834  1.00  0.00     0.009 A 
HETATM   18  C   UNL     1      28.559  46.997  55.089  1.00  0.00     0.001 A 
HETATM   19  C   UNL     1      27.605  48.003  54.972  1.00  0.00     0.000 A 
HETATM   20  C   UNL     1      26.301  47.685  54.598  1.00  0.00     0.001 A 
HETATM   21  C   UNL     1      25.945  46.357  54.342  1.00  0.00     0.009 A 
ENDBRANCH  11  16
ENDBRANCH   6  11
BRANCH   1  22
HETATM   22  C   UNL     1      28.292  41.631  52.989  1.00  0.00     0.310 C 
HETATM   23  O   UNL     1      27.883  40.833  53.826  1.00  0.00    -0.258 OA
BRANCH  22  24
HETATM   24  O   UNL     1      29.575  41.828  52.609  1.00  0.00    -0.317 OA
BRANCH  24  25
HETATM   25  C   UNL     1      30.178  43.067  53.019  1.00  0.00     0.175 C 
HETATM   26  C   UNL     1      30.451  43.028  54.512  1.00  0.00     0.034 C 
ENDBRANCH  24  25
ENDBRANCH  22  24
ENDBRANCH   1  22
TORSDOF 6
ENDMDL
MODEL 5
REMARK VINA RESULT:      -7.0      7.409     10.746
REMARK  6 active torsions:
REMARK  status: ('A' for Active; 'I' for Inactive)
REMARK    1  A    between atoms: C_2  and  O_3 
REMARK    2  A    between atoms: O_3  and  C_4 
REMARK    3  A    between atoms: C_4  and  C_5 
REMARK    4  A    between atoms: C_10  and  C_11 
REMARK    5  A    between atoms: C_11  and  N_12 
REMARK    6  A    between atoms: C_11  and  C_16 
ROOT
HETATM    1  C   UNL     1      22.537  48.836  48.244  1.00  0.00     0.118 A 
HETATM    2  N   UNL     1      22.279  47.585  47.748  1.00  0.00    -0.350 N 
HETATM    3  H   UNL     1      22.963  46.988  47.298  1.00  0.00     0.166 HD
HETATM    4  C   UNL     1      20.987  47.219  48.020  1.00  0.00     0.043 A 
HETATM    5  C   UNL     1      20.360  48.304  48.640  1.00  0.00     0.002 A 
HETATM    6  C   UNL     1      21.335  49.364  48.739  1.00  0.00     0.022 A 
HETATM    7  C   UNL     1      20.342  46.005  47.753  1.00  0.00     0.030 A 
HETATM    8  C   UNL     1      19.007  45.878  48.132  1.00  0.00     0.002 A 
HETATM    9  C   UNL     1      18.345  46.929  48.751  1.00  0.00     0.001 A 
HETATM   10  C   UNL     1      19.004  48.139  49.006  1.00  0.00     0.014 A 
ENDROOT
BRANCH   6  11
HETATM   11  C   UNL     1      21.238  50.773  49.282  1.00  0.00     0.252 C 
BRANCH  11  12
HETATM   12  N   UNL     1      21.654  50.817  50.700  1.00  0.00    -0.067 N 
HETATM   13  H   UNL     1      21.058  50.218  51.278  1.00  0.00     0.275 HD
HETATM   14  H   UNL     1      22.637  50.554  50.803  1.00  0.00     0.275 HD
HETATM   15  H   UNL     1      21.536  51.790  51.029  1.00  0.00     0.275 HD
ENDBRANCH  11  12
BRANCH  11  16
HETATM   16  C   UNL     1      19.891  51.390  48.995  1.00  0.00    -0.024 A 
HETATM   17  C   UNL     1      19.030  51.671  50.077  1.00  0.00     0.009 A 
HETATM   18  C   UNL     1      17.755  52.197  49.863  1.00  0.00     0.001 A 
HETATM   19  C   UNL     1      17.315  52.450  48.569  1.00  0.00     0.000 A 
HETATM   20  C   UNL     1      18.149  52.181  47.486  1.00  0.00     0.001 A 
HETATM   21  C   UNL     1      19.427  51.654  47.693  1.00  0.00     0.009 A 
ENDBRANCH  11  16
ENDBRANCH   6  11
BRANCH   1  22
HETATM   22  C   UNL     1      23.842  49.455  48.253  1.00  0.00     0.310 C 
HETATM   23  O   UNL     1      24.290  50.057  47.283  1.00  0.00    -0.258 OA
BRANCH  22  24
HETATM   24  O   UNL     1      24.444  49.271  49.450  1.00  0.00    -0.317 OA
BRANCH  24  25
HETATM   25  C   UNL     1      25.217  48.068  49.595  1.00  0.00     0.175 C 
HETATM   26  C   UNL     1      26.695  48.399  49.498  1.00  0.00     0.034 C 
ENDBRANCH  24  25
ENDBRANCH  22  24
ENDBRANCH   1  22
TORSDOF 6
ENDMDL
MODEL 6
REMARK VINA RESULT:      -7.0      1.522      4.598
REMARK  6 active torsions:
REMARK  status: ('A' for Active; 'I' for Inactive)
REMARK    1  A    between atoms: C_2  and  O_3 
REMARK    2  A    between atoms: O_3  and  C_4 
REMARK    3  A    between atoms: C_4  and  C_5 
REMARK    4  A    between atoms: C_10  and  C_11 
REMARK    5  A    between atoms: C_11  and  N_12 
REMARK    6  A    between atoms: C_11  and  C_16 
ROOT
HETATM    1  C   UNL     1      27.970  42.007  51.434  1.00  0.00     0.118 A 
HETATM    2  N   UNL     1      29.173  41.755  52.039  1.00  0.00    -0.350 N 
HETATM    3  H   UNL     1      29.853  41.078  51.716  1.00  0.00     0.166 HD
HETATM    4  C   UNL     1      29.366  42.609  53.094  1.00  0.00     0.043 A 
HETATM    5  C   UNL     1      28.211  43.383  53.230  1.00  0.00     0.002 A 
HETATM    6  C   UNL     1      27.289  42.965  52.200  1.00  0.00     0.022 A 
HETATM    7  C   UNL     1      30.483  42.735  53.929  1.00  0.00     0.030 A 
HETATM    8  C   UNL     1      30.434  43.689  54.945  1.00  0.00     0.002 A 
HETATM    9  C   UNL     1      29.307  44.481  55.116  1.00  0.00     0.001 A 
HETATM   10  C   UNL     1      28.196  44.337  54.274  1.00  0.00     0.014 A 
ENDROOT
BRANCH   6  11
HETATM   11  C   UNL     1      25.882  43.412  51.866  1.00  0.00     0.252 C 
BRANCH  11  12
HETATM   12  N   UNL     1      25.184  42.385  51.064  1.00  0.00    -0.067 N 
HETATM   13  H   UNL     1      24.181  42.580  51.009  1.00  0.00     0.275 HD
HETATM   14  H   UNL     1      25.589  42.311  50.129  1.00  0.00     0.275 HD
HETATM   15  H   UNL     1      25.303  41.479  51.549  1.00  0.00     0.275 HD
ENDBRANCH  11  12
BRANCH  11  16
HETATM   16  C   UNL     1      25.864  44.801  51.277  1.00  0.00    -0.024 A 
HETATM   17  C   UNL     1      26.724  45.090  50.197  1.00  0.00     0.009 A 
HETATM   18  C   UNL     1      26.781  46.371  49.646  1.00  0.00     0.001 A 
HETATM   19  C   UNL     1      25.983  47.386  50.162  1.00  0.00     0.000 A 
HETATM   20  C   UNL     1      25.125  47.123  51.228  1.00  0.00     0.001 A 
HETATM   21  C   UNL     1      25.064  45.842  51.785  1.00  0.00     0.009 A 
ENDBRANCH  11  16
ENDBRANCH   6  11
BRANCH   1  22
HETATM   22  C   UNL     1      27.529  41.383  50.208  1.00  0.00     0.310 C 
HETATM   23  O   UNL     1      27.578  41.955  49.125  1.00  0.00    -0.258 OA
BRANCH  22  24
HETATM   24  O   UNL     1      27.085  40.128  50.450  1.00  0.00    -0.317 OA
BRANCH  24  25
HETATM   25  C   UNL     1      27.546  39.106  49.551  1.00  0.00     0.175 C 
HETATM   26  C   UNL     1      28.943  38.668  49.953  1.00  0.00     0.034 C 
ENDBRANCH  24  25
ENDBRANCH  22  24
ENDBRANCH   1  22
TORSDOF 6
ENDMDL
MODEL 7
REMARK VINA RESULT:      -6.6      8.253     11.129
REMARK  6 active torsions:
REMARK  status: ('A' for Active; 'I' for Inactive)
REMARK    1  A    between atoms: C_2  and  O_3 
REMARK    2  A    between atoms: O_3  and  C_4 
REMARK    3  A    between atoms: C_4  and  C_5 
REMARK    4  A    between atoms: C_10  and  C_11 
REMARK    5  A    between atoms: C_11  and  N_12 
REMARK    6  A    between atoms: C_11  and  C_16 
ROOT
HETATM    1  C   UNL     1      21.149  47.652  47.648  1.00  0.00     0.118 A 
HETATM    2  N   UNL     1      20.888  47.088  46.427  1.00  0.00    -0.350 N 
HETATM    3  H   UNL     1      21.593  46.743  45.787  1.00  0.00     0.166 HD
HETATM    4  C   UNL     1      19.536  46.976  46.230  1.00  0.00     0.043 A 
HETATM    5  C   UNL     1      18.898  47.567  47.324  1.00  0.00     0.002 A 
HETATM    6  C   UNL     1      19.928  48.050  48.214  1.00  0.00     0.022 A 
HETATM    7  C   UNL     1      18.850  46.398  45.155  1.00  0.00     0.030 A 
HETATM    8  C   UNL     1      17.456  46.410  45.189  1.00  0.00     0.002 A 
HETATM    9  C   UNL     1      16.780  46.985  46.256  1.00  0.00     0.001 A 
HETATM   10  C   UNL     1      17.483  47.565  47.321  1.00  0.00     0.014 A 
ENDROOT
BRANCH   6  11
HETATM   11  C   UNL     1      19.854  48.794  49.529  1.00  0.00     0.252 C 
BRANCH  11  12
HETATM   12  N   UNL     1      19.195  47.967  50.562  1.00  0.00    -0.067 N 
HETATM   13  H   UNL     1      19.124  46.991  50.262  1.00  0.00     0.275 HD
HETATM   14  H   UNL     1      19.687  48.034  51.456  1.00  0.00     0.275 HD
HETATM   15  H   UNL     1      18.234  48.329  50.684  1.00  0.00     0.275 HD
ENDBRANCH  11  12
BRANCH  11  16
HETATM   16  C   UNL     1      19.273  50.177  49.355  1.00  0.00    -0.024 A 
HETATM   17  C   UNL     1      18.055  50.485  49.996  1.00  0.00     0.009 A 
HETATM   18  C   UNL     1      17.451  51.732  49.830  1.00  0.00     0.001 A 
HETATM   19  C   UNL     1      18.049  52.693  49.022  1.00  0.00     0.000 A 
HETATM   20  C   UNL     1      19.253  52.410  48.380  1.00  0.00     0.001 A 
HETATM   21  C   UNL     1      19.863  51.162  48.542  1.00  0.00     0.009 A 
ENDBRANCH  11  16
ENDBRANCH   6  11
BRANCH   1  22
HETATM   22  C   UNL     1      22.468  47.777  48.222  1.00  0.00     0.310 C 
HETATM   23  O   UNL     1      22.890  47.003  49.075  1.00  0.00    -0.258 OA
BRANCH  22  24
HETATM   24  O   UNL     1      23.121  48.830  47.680  1.00  0.00    -0.317 OA
BRANCH  24  25
HETATM   25  C   UNL     1      23.989  49.562  48.561  1.00  0.00     0.175 C 
HETATM   26  C   UNL     1      23.366  50.908  48.885  1.00  0.00     0.034 C 
ENDBRANCH  24  25
ENDBRANCH  22  24
ENDBRANCH   1  22
TORSDOF 6
ENDMDL
MODEL 8
REMARK VINA RESULT:      -6.5     15.374     17.123
REMARK  6 active torsions:
REMARK  status: ('A' for Active; 'I' for Inactive)
REMARK    1  A    between atoms: C_2  and  O_3 
REMARK    2  A    between atoms: O_3  and  C_4 
REMARK    3  A    between atoms: C_4  and  C_5 
REMARK    4  A    between atoms: C_10  and  C_11 
REMARK    5  A    between atoms: C_11  and  N_12 
REMARK    6  A    between atoms: C_11  and  C_16 
ROOT
HETATM    1  C   UNL     1      38.115  45.131  64.521  1.00  0.00     0.118 A 
HETATM    2  N   UNL     1      38.876  46.163  65.002  1.00  0.00    -0.350 N 
HETATM    3  H   UNL     1      38.522  46.935  65.555  1.00  0.00     0.166 HD
HETATM    4  C   UNL     1      40.199  45.963  64.705  1.00  0.00     0.043 A 
HETATM    5  C   UNL     1      40.288  44.803  63.930  1.00  0.00     0.002 A 
HETATM    6  C   UNL     1      38.948  44.293  63.763  1.00  0.00     0.022 A 
HETATM    7  C   UNL     1      41.308  46.735  65.070  1.00  0.00     0.030 A 
HETATM    8  C   UNL     1      42.566  46.315  64.638  1.00  0.00     0.002 A 
HETATM    9  C   UNL     1      42.702  45.169  63.867  1.00  0.00     0.001 A 
HETATM   10  C   UNL     1      41.580  44.411  63.507  1.00  0.00     0.014 A 
ENDROOT
BRANCH   6  11
HETATM   11  C   UNL     1      38.413  43.095  63.008  1.00  0.00     0.252 C 
BRANCH  11  12
HETATM   12  N   UNL     1      36.938  43.146  62.925  1.00  0.00    -0.067 N 
HETATM   13  H   UNL     1      36.632  43.631  62.077  1.00  0.00     0.275 HD
HETATM   14  H   UNL     1      36.535  42.207  62.968  1.00  0.00     0.275 HD
HETATM   15  H   UNL     1      36.600  43.688  63.738  1.00  0.00     0.275 HD
ENDBRANCH  11  12
BRANCH  11  16
HETATM   16  C   UNL     1      38.977  41.802  63.543  1.00  0.00    -0.024 A 
HETATM   17  C   UNL     1      39.217  40.743  62.641  1.00  0.00     0.009 A 
HETATM   18  C   UNL     1      39.694  39.511  63.090  1.00  0.00     0.001 A 
HETATM   19  C   UNL     1      39.939  39.312  64.444  1.00  0.00     0.000 A 
HETATM   20  C   UNL     1      39.710  40.343  65.352  1.00  0.00     0.001 A 
HETATM   21  C   UNL     1      39.232  41.580  64.909  1.00  0.00     0.009 A 
ENDBRANCH  11  16
ENDBRANCH   6  11
BRANCH   1  22
HETATM   22  C   UNL     1      36.706  44.964  64.788  1.00  0.00     0.310 C 
HETATM   23  O   UNL     1      35.844  45.595  64.186  1.00  0.00    -0.258 OA
BRANCH  22  24
HETATM   24  O   UNL     1      36.514  44.040  65.757  1.00  0.00    -0.317 OA
BRANCH  24  25
HETATM   25  C   UNL     1      35.151  43.682  66.035  1.00  0.00     0.175 C 
HETATM   26  C   UNL     1      34.914  42.235  65.643  1.00  0.00     0.034 C 
ENDBRANCH  24  25
ENDBRANCH  22  24
ENDBRANCH   1  22
TORSDOF 6
ENDMDL
MODEL 9
REMARK VINA RESULT:      -6.5     12.660     15.408
REMARK  6 active torsions:
REMARK  status: ('A' for Active; 'I' for Inactive)
REMARK    1  A    between atoms: C_2  and  O_3 
REMARK    2  A    between atoms: O_3  and  C_4 
REMARK    3  A    between atoms: C_4  and  C_5 
REMARK    4  A    between atoms: C_10  and  C_11 
REMARK    5  A    between atoms: C_11  and  N_12 
REMARK    6  A    between atoms: C_11  and  C_16 
ROOT
HETATM    1  C   UNL     1      33.286  49.438  41.252  1.00  0.00     0.118 A 
HETATM    2  N   UNL     1      34.369  49.692  42.052  1.00  0.00    -0.350 N 
HETATM    3  H   UNL     1      34.649  49.126  42.844  1.00  0.00     0.166 HD
HETATM    4  C   UNL     1      35.072  50.769  41.580  1.00  0.00     0.043 A 
HETATM    5  C   UNL     1      34.372  51.285  40.485  1.00  0.00     0.002 A 
HETATM    6  C   UNL     1      33.197  50.466  40.302  1.00  0.00     0.022 A 
HETATM    7  C   UNL     1      36.270  51.315  42.056  1.00  0.00     0.030 A 
HETATM    8  C   UNL     1      36.789  52.427  41.395  1.00  0.00     0.002 A 
HETATM    9  C   UNL     1      36.129  52.972  40.302  1.00  0.00     0.001 A 
HETATM   10  C   UNL     1      34.927  52.416  39.842  1.00  0.00     0.014 A 
ENDROOT
BRANCH   6  11
HETATM   11  C   UNL     1      32.057  50.549  39.310  1.00  0.00     0.252 C 
BRANCH  11  12
HETATM   12  N   UNL     1      32.568  50.790  37.944  1.00  0.00    -0.067 N 
HETATM   13  H   UNL     1      31.828  50.675  37.247  1.00  0.00     0.275 HD
HETATM   14  H   UNL     1      32.993  51.717  37.869  1.00  0.00     0.275 HD
HETATM   15  H   UNL     1      33.294  50.078  37.754  1.00  0.00     0.275 HD
ENDBRANCH  11  12
BRANCH  11  16
HETATM   16  C   UNL     1      30.988  51.511  39.769  1.00  0.00    -0.024 A 
HETATM   17  C   UNL     1      29.809  51.629  39.003  1.00  0.00     0.009 A 
HETATM   18  C   UNL     1      28.810  52.537  39.357  1.00  0.00     0.001 A 
HETATM   19  C   UNL     1      28.969  53.343  40.479  1.00  0.00     0.000 A 
HETATM   20  C   UNL     1      30.124  53.242  41.250  1.00  0.00     0.001 A 
HETATM   21  C   UNL     1      31.129  52.335  40.901  1.00  0.00     0.009 A 
ENDBRANCH  11  16
ENDBRANCH   6  11
BRANCH   1  22
HETATM   22  C   UNL     1      32.425  48.287  41.389  1.00  0.00     0.310 C 
HETATM   23  O   UNL     1      32.719  47.187  40.933  1.00  0.00    -0.258 OA
BRANCH  22  24
HETATM   24  O   UNL     1      31.306  48.613  42.076  1.00  0.00    -0.317 OA
BRANCH  24  25
HETATM   25  C   UNL     1      30.056  48.309  41.436  1.00  0.00     0.175 C 
HETATM   26  C   UNL     1      28.985  49.264  41.934  1.00  0.00     0.034 C 
ENDBRANCH  24  25
ENDBRANCH  22  24
ENDBRANCH   1  22
TORSDOF 6
ENDMDL
MODEL 10
REMARK VINA RESULT:      -6.2      2.150      5.254
REMARK  6 active torsions:
REMARK  status: ('A' for Active; 'I' for Inactive)
REMARK    1  A    between atoms: C_2  and  O_3 
REMARK    2  A    between atoms: O_3  and  C_4 
REMARK    3  A    between atoms: C_4  and  C_5 
REMARK    4  A    between atoms: C_10  and  C_11 
REMARK    5  A    between atoms: C_11  and  N_12 
REMARK    6  A    between atoms: C_11  and  C_16 
ROOT
HETATM    1  C   UNL     1      28.932  44.318  54.446  1.00  0.00     0.118 A 
HETATM    2  N   UNL     1      29.200  45.566  54.942  1.00  0.00    -0.350 N 
HETATM    3  H   UNL     1      30.096  45.862  55.312  1.00  0.00     0.166 HD
HETATM    4  C   UNL     1      28.113  46.386  54.791  1.00  0.00     0.043 A 
HETATM    5  C   UNL     1      27.075  45.619  54.255  1.00  0.00     0.002 A 
HETATM    6  C   UNL     1      27.578  44.277  54.081  1.00  0.00     0.022 A 
HETATM    7  C   UNL     1      27.989  47.747  55.097  1.00  0.00     0.030 A 
HETATM    8  C   UNL     1      26.763  48.363  54.848  1.00  0.00     0.002 A 
HETATM    9  C   UNL     1      25.704  47.640  54.316  1.00  0.00     0.001 A 
HETATM   10  C   UNL     1      25.845  46.277  54.020  1.00  0.00     0.014 A 
ENDROOT
BRANCH   6  11
HETATM   11  C   UNL     1      26.918  43.012  53.575  1.00  0.00     0.252 C 
BRANCH  11  12
HETATM   12  N   UNL     1      27.503  41.821  54.226  1.00  0.00    -0.067 N 
HETATM   13  H   UNL     1      28.411  41.585  53.817  1.00  0.00     0.275 HD
HETATM   14  H   UNL     1      27.587  41.958  55.236  1.00  0.00     0.275 HD
HETATM   15  H   UNL     1      26.863  41.027  54.052  1.00  0.00     0.275 HD
ENDBRANCH  11  12
BRANCH  11  16
HETATM   16  C   UNL     1      26.890  42.964  52.067  1.00  0.00    -0.024 A 
HETATM   17  C   UNL     1      27.047  41.717  51.426  1.00  0.00     0.009 A 
HETATM   18  C   UNL     1      27.075  41.623  50.034  1.00  0.00     0.001 A 
HETATM   19  C   UNL     1      26.949  42.769  49.256  1.00  0.00     0.000 A 
HETATM   20  C   UNL     1      26.791  44.010  49.868  1.00  0.00     0.001 A 
HETATM   21  C   UNL     1      26.762  44.111  51.262  1.00  0.00     0.009 A 
ENDBRANCH  11  16
ENDBRANCH   6  11
BRANCH   1  22
HETATM   22  C   UNL     1      29.911  43.263  54.321  1.00  0.00     0.310 C 
HETATM   23  O   UNL     1      30.328  42.879  53.234  1.00  0.00    -0.258 OA
BRANCH  22  24
HETATM   24  O   UNL     1      30.271  42.807  55.543  1.00  0.00    -0.317 OA
BRANCH  24  25
HETATM   25  C   UNL     1      31.504  43.318  56.075  1.00  0.00     0.175 C 
HETATM   26  C   UNL     1      31.309  43.702  57.530  1.00  0.00     0.034 C 
ENDBRANCH  24  25
ENDBRANCH  22  24
ENDBRANCH   1  22
TORSDOF 6
ENDMDL
