MODEL 1
REMARK VINA RESULT:      -8.3      0.000      0.000
REMARK  7 active torsions:
REMARK  status: ('A' for Active; 'I' for Inactive)
REMARK    1  A    between atoms: C_2  and  C_3 
REMARK    2  A    between atoms: C_6  and  C_7 
REMARK       I    between atoms: C_7  and  N_8 
REMARK    3  A    between atoms: C_14  and  C_15 
REMARK       I    between atoms: C_15  and  N_16 
REMARK    4  A    between atoms: N_16  and  C_17 
REMARK    5  A    between atoms: C_17  and  C_18 
REMARK       I    between atoms: N_25  and  C_26 
REMARK    6  A    between atoms: C_26  and  C_27 
REMARK    7  A    between atoms: C_30  and  O_31 
ROOT
HETATM    1  C   UNL     1      26.795  44.409  51.023  1.00  0.00     0.253 C 
HETATM    2  N   UNL     1      26.148  43.394  50.299  1.00  0.00    -0.348 N 
HETATM    3  C   UNL     1      26.393  41.975  50.550  1.00  0.00     0.131 C 
HETATM    4  C   UNL     1      25.282  41.083  50.043  1.00  0.00     0.081 C 
HETATM    5  C   UNL     1      24.895  41.342  48.587  1.00  0.00     0.142 C 
HETATM    6  O   UNL     1      23.595  40.684  48.440  1.00  0.00    -0.358 OA
HETATM    7  C   UNL     1      23.533  40.101  47.134  1.00  0.00     0.206 C 
HETATM    8  C   UNL     1      24.951  39.684  46.848  1.00  0.00     0.206 C 
HETATM    9  N   UNL     1      25.733  40.699  47.558  1.00  0.00    -0.300 N 
HETATM   10  C   UNL     1      27.009  41.109  47.209  1.00  0.00     0.257 C 
HETATM   11  O   UNL     1      27.665  41.933  47.835  1.00  0.00    -0.267 OA
HETATM   12  C   UNL     1      24.623  42.838  48.372  1.00  0.00     0.081 C 
HETATM   13  C   UNL     1      25.658  43.778  48.977  1.00  0.00     0.131 C 
HETATM   14  O   UNL     1      26.620  45.608  50.819  1.00  0.00    -0.267 OA
ENDROOT
BRANCH   8  15
HETATM   15  C   UNL     1      25.171  38.247  47.376  1.00  0.00     0.243 C 
HETATM   16  N   UNL     1      25.952  38.159  48.496  1.00  0.00    -0.354 N 
HETATM   17  H   UNL     1      26.440  38.994  48.809  1.00  0.00     0.162 HD
HETATM   18  O   UNL     1      24.692  37.262  46.819  1.00  0.00    -0.271 OA
BRANCH  16  19
HETATM   19  C   UNL     1      26.465  36.928  49.061  1.00  0.00     0.181 C 
BRANCH  19  20
HETATM   20  C   UNL     1      27.759  37.204  49.804  1.00  0.00     0.051 A 
HETATM   21  N   UNL     1      28.304  38.447  49.656  1.00  0.00    -0.264 NA
HETATM   22  C   UNL     1      29.476  38.695  50.279  1.00  0.00     0.117 A 
HETATM   23  C   UNL     1      30.134  37.765  51.064  1.00  0.00     0.019 A 
HETATM   24  C   UNL     1      29.558  36.509  51.221  1.00  0.00     0.003 A 
HETATM   25  C   UNL     1      28.352  36.219  50.585  1.00  0.00     0.029 A 
ENDBRANCH  19  20
ENDBRANCH  16  19
ENDBRANCH   8  15
BRANCH  10  26
HETATM   26  C   UNL     1      27.635  40.610  45.963  1.00  0.00     0.032 A 
HETATM   27  C   UNL     1      28.185  39.325  45.985  1.00  0.00     0.020 A 
HETATM   28  C   UNL     1      28.717  38.775  44.816  1.00  0.00     0.038 A 
HETATM   29  C   UNL     1      28.695  39.494  43.617  1.00  0.00     0.068 A 
HETATM   30  C   UNL     1      28.135  40.772  43.597  1.00  0.00     0.038 A 
HETATM   31  C   UNL     1      27.593  41.323  44.765  1.00  0.00     0.020 A 
BRANCH  29  32
HETATM   32  O   UNL     1      29.232  38.835  42.546  1.00  0.00    -0.356 OA
HETATM   33  C   UNL     1      30.311  37.947  42.812  1.00  0.00     0.210 C 
ENDBRANCH  29  32
ENDBRANCH  10  26
BRANCH   1  34
HETATM   34  C   UNL     1      27.749  44.035  52.091  1.00  0.00     0.032 A 
HETATM   35  C   UNL     1      27.473  44.346  53.426  1.00  0.00     0.017 A 
HETATM   36  C   UNL     1      28.379  43.988  54.424  1.00  0.00     0.008 A 
HETATM   37  C   UNL     1      29.552  43.287  54.101  1.00  0.00    -0.059 A 
HETATM   38  C   UNL     1      29.797  42.946  52.763  1.00  0.00     0.008 A 
HETATM   39  C   UNL     1      28.898  43.315  51.759  1.00  0.00     0.017 A 
BRANCH  37  40
HETATM   40  C   UNL     1      30.528  42.896  55.184  1.00  0.00     0.034 C 
HETATM   41  C   UNL     1      30.843  44.048  56.127  1.00  0.00     0.010 C 
ENDBRANCH  37  40
ENDBRANCH   1  34
TORSDOF 7
ENDMDL
MODEL 2
REMARK VINA RESULT:      -8.2     11.939     15.514
REMARK  7 active torsions:
REMARK  status: ('A' for Active; 'I' for Inactive)
REMARK    1  A    between atoms: C_2  and  C_3 
REMARK    2  A    between atoms: C_6  and  C_7 
REMARK       I    between atoms: C_7  and  N_8 
REMARK    3  A    between atoms: C_14  and  C_15 
REMARK       I    between atoms: C_15  and  N_16 
REMARK    4  A    between atoms: N_16  and  C_17 
REMARK    5  A    between atoms: C_17  and  C_18 
REMARK       I    between atoms: N_25  and  C_26 
REMARK    6  A    between atoms: C_26  and  C_27 
REMARK    7  A    between atoms: C_30  and  O_31 
ROOT
HETATM    1  C   UNL     1      19.948  49.883  49.753  1.00  0.00     0.253 C 
HETATM    2  N   UNL     1      18.894  49.553  48.886  1.00  0.00    -0.348 N 
HETATM    3  C   UNL     1      19.102  49.290  47.463  1.00  0.00     0.131 C 
HETATM    4  C   UNL     1      17.978  48.496  46.836  1.00  0.00     0.081 C 
HETATM    5  C   UNL     1      16.587  49.070  47.108  1.00  0.00     0.142 C 
HETATM    6  O   UNL     1      15.677  47.974  46.770  1.00  0.00    -0.358 OA
HETATM    7  C   UNL     1      14.511  48.534  46.155  1.00  0.00     0.206 C 
HETATM    8  C   UNL     1      15.030  49.730  45.401  1.00  0.00     0.206 C 
HETATM    9  N   UNL     1      16.148  50.174  46.235  1.00  0.00    -0.300 N 
HETATM   10  C   UNL     1      16.614  51.476  46.314  1.00  0.00     0.257 C 
HETATM   11  O   UNL     1      17.575  51.827  46.988  1.00  0.00    -0.267 OA
HETATM   12  C   UNL     1      16.401  49.308  48.613  1.00  0.00     0.081 C 
HETATM   13  C   UNL     1      17.568  49.997  49.310  1.00  0.00     0.131 C 
HETATM   14  O   UNL     1      19.797  50.125  50.948  1.00  0.00    -0.267 OA
ENDROOT
BRANCH   8  15
HETATM   15  C   UNL     1      15.451  49.286  43.980  1.00  0.00     0.243 C 
HETATM   16  N   UNL     1      16.755  49.548  43.659  1.00  0.00    -0.354 N 
HETATM   17  H   UNL     1      17.299  50.127  44.292  1.00  0.00     0.162 HD
HETATM   18  O   UNL     1      14.666  48.755  43.198  1.00  0.00    -0.271 OA
BRANCH  16  19
HETATM   19  C   UNL     1      17.331  49.414  42.337  1.00  0.00     0.181 C 
BRANCH  19  20
HETATM   20  C   UNL     1      17.283  50.750  41.618  1.00  0.00     0.051 A 
HETATM   21  N   UNL     1      16.165  51.015  40.882  1.00  0.00    -0.264 NA
HETATM   22  C   UNL     1      16.123  52.182  40.205  1.00  0.00     0.117 A 
HETATM   23  C   UNL     1      17.142  53.117  40.234  1.00  0.00     0.019 A 
HETATM   24  C   UNL     1      18.268  52.842  41.004  1.00  0.00     0.003 A 
HETATM   25  C   UNL     1      18.345  51.642  41.709  1.00  0.00     0.029 A 
ENDBRANCH  19  20
ENDBRANCH  16  19
ENDBRANCH   8  15
BRANCH  10  26
HETATM   26  C   UNL     1      15.891  52.567  45.621  1.00  0.00     0.032 A 
HETATM   27  C   UNL     1      14.826  53.169  46.298  1.00  0.00     0.020 A 
HETATM   28  C   UNL     1      14.161  54.256  45.724  1.00  0.00     0.038 A 
HETATM   29  C   UNL     1      14.558  54.758  44.482  1.00  0.00     0.068 A 
HETATM   30  C   UNL     1      15.629  54.162  43.815  1.00  0.00     0.038 A 
HETATM   31  C   UNL     1      16.303  53.078  44.390  1.00  0.00     0.020 A 
BRANCH  29  32
HETATM   32  O   UNL     1      13.836  55.832  44.042  1.00  0.00    -0.356 OA
HETATM   33  C   UNL     1      14.487  56.720  43.141  1.00  0.00     0.210 C 
ENDBRANCH  29  32
ENDBRANCH  10  26
BRANCH   1  34
HETATM   34  C   UNL     1      21.326  49.954  49.216  1.00  0.00     0.032 A 
HETATM   35  C   UNL     1      21.856  51.175  48.790  1.00  0.00     0.017 A 
HETATM   36  C   UNL     1      23.156  51.230  48.287  1.00  0.00     0.008 A 
HETATM   37  C   UNL     1      23.949  50.072  48.238  1.00  0.00    -0.059 A 
HETATM   38  C   UNL     1      23.418  48.861  48.707  1.00  0.00     0.008 A 
HETATM   39  C   UNL     1      22.112  48.800  49.199  1.00  0.00     0.017 A 
BRANCH  37  40
HETATM   40  C   UNL     1      25.357  50.135  47.699  1.00  0.00     0.034 C 
HETATM   41  C   UNL     1      26.364  49.471  48.626  1.00  0.00     0.010 C 
ENDBRANCH  37  40
ENDBRANCH   1  34
TORSDOF 7
ENDMDL
MODEL 3
REMARK VINA RESULT:      -8.2     11.232     14.627
REMARK  7 active torsions:
REMARK  status: ('A' for Active; 'I' for Inactive)
REMARK    1  A    between atoms: C_2  and  C_3 
REMARK    2  A    between atoms: C_6  and  C_7 
REMARK       I    between atoms: C_7  and  N_8 
REMARK    3  A    between atoms: C_14  and  C_15 
REMARK       I    between atoms: C_15  and  N_16 
REMARK    4  A    between atoms: N_16  and  C_17 
REMARK    5  A    between atoms: C_17  and  C_18 
REMARK       I    between atoms: N_25  and  C_26 
REMARK    6  A    between atoms: C_26  and  C_27 
REMARK    7  A    between atoms: C_30  and  O_31 
ROOT
HETATM    1  C   UNL     1      20.450  50.045  49.529  1.00  0.00     0.253 C 
HETATM    2  N   UNL     1      19.463  49.603  48.633  1.00  0.00    -0.348 N 
HETATM    3  C   UNL     1      19.784  49.110  47.294  1.00  0.00     0.131 C 
HETATM    4  C   UNL     1      18.691  48.250  46.701  1.00  0.00     0.081 C 
HETATM    5  C   UNL     1      17.303  48.890  46.752  1.00  0.00     0.142 C 
HETATM    6  O   UNL     1      16.387  47.774  46.510  1.00  0.00    -0.358 OA
HETATM    7  C   UNL     1      15.299  48.253  45.710  1.00  0.00     0.206 C 
HETATM    8  C   UNL     1      15.924  49.300  44.827  1.00  0.00     0.206 C 
HETATM    9  N   UNL     1      16.981  49.849  45.679  1.00  0.00    -0.300 N 
HETATM   10  C   UNL     1      17.484  51.136  45.592  1.00  0.00     0.257 C 
HETATM   11  O   UNL     1      18.395  51.570  46.288  1.00  0.00    -0.267 OA
HETATM   12  C   UNL     1      16.996  49.371  48.177  1.00  0.00     0.081 C 
HETATM   13  C   UNL     1      18.122  50.137  48.859  1.00  0.00     0.131 C 
HETATM   14  O   UNL     1      20.205  50.479  50.652  1.00  0.00    -0.267 OA
ENDROOT
BRANCH   8  15
HETATM   15  C   UNL     1      16.449  48.625  43.538  1.00  0.00     0.243 C 
HETATM   16  N   UNL     1      17.801  48.721  43.350  1.00  0.00    -0.354 N 
HETATM   17  H   UNL     1      18.330  49.332  43.965  1.00  0.00     0.162 HD
HETATM   18  O   UNL     1      15.704  48.061  42.741  1.00  0.00    -0.271 OA
BRANCH  16  19
HETATM   19  C   UNL     1      18.502  48.351  42.138  1.00  0.00     0.181 C 
BRANCH  19  20
HETATM   20  C   UNL     1      18.646  49.564  41.237  1.00  0.00     0.051 A 
HETATM   21  N   UNL     1      17.672  49.758  40.301  1.00  0.00    -0.264 NA
HETATM   22  C   UNL     1      17.806  50.810  39.467  1.00  0.00     0.117 A 
HETATM   23  C   UNL     1      18.863  51.700  39.525  1.00  0.00     0.019 A 
HETATM   24  C   UNL     1      19.838  51.502  40.497  1.00  0.00     0.003 A 
HETATM   25  C   UNL     1      19.734  50.420  41.369  1.00  0.00     0.029 A 
ENDBRANCH  19  20
ENDBRANCH  16  19
ENDBRANCH   8  15
BRANCH  10  26
HETATM   26  C   UNL     1      16.864  52.117  44.673  1.00  0.00     0.032 A 
HETATM   27  C   UNL     1      15.874  52.956  45.195  1.00  0.00     0.020 A 
HETATM   28  C   UNL     1      15.312  53.953  44.393  1.00  0.00     0.038 A 
HETATM   29  C   UNL     1      15.738  54.129  43.074  1.00  0.00     0.068 A 
HETATM   30  C   UNL     1      16.734  53.297  42.560  1.00  0.00     0.038 A 
HETATM   31  C   UNL     1      17.306  52.303  43.363  1.00  0.00     0.020 A 
BRANCH  29  32
HETATM   32  O   UNL     1      15.120  55.149  42.405  1.00  0.00    -0.356 OA
HETATM   33  C   UNL     1      14.646  56.238  43.188  1.00  0.00     0.210 C 
ENDBRANCH  29  32
ENDBRANCH  10  26
BRANCH   1  34
HETATM   34  C   UNL     1      21.871  49.999  49.116  1.00  0.00     0.032 A 
HETATM   35  C   UNL     1      22.462  51.104  48.496  1.00  0.00     0.017 A 
HETATM   36  C   UNL     1      23.802  51.049  48.111  1.00  0.00     0.008 A 
HETATM   37  C   UNL     1      24.571  49.905  48.374  1.00  0.00    -0.059 A 
HETATM   38  C   UNL     1      23.976  48.819  49.033  1.00  0.00     0.008 A 
HETATM   39  C   UNL     1      22.631  48.865  49.408  1.00  0.00     0.017 A 
BRANCH  37  40
HETATM   40  C   UNL     1      26.022  49.851  47.963  1.00  0.00     0.034 C 
HETATM   41  C   UNL     1      26.874  49.055  48.940  1.00  0.00     0.010 C 
ENDBRANCH  37  40
ENDBRANCH   1  34
TORSDOF 7
ENDMDL
MODEL 4
REMARK VINA RESULT:      -8.1     16.341     19.143
REMARK  7 active torsions:
REMARK  status: ('A' for Active; 'I' for Inactive)
REMARK    1  A    between atoms: C_2  and  C_3 
REMARK    2  A    between atoms: C_6  and  C_7 
REMARK       I    between atoms: C_7  and  N_8 
REMARK    3  A    between atoms: C_14  and  C_15 
REMARK       I    between atoms: C_15  and  N_16 
REMARK    4  A    between atoms: N_16  and  C_17 
REMARK    5  A    between atoms: C_17  and  C_18 
REMARK       I    between atoms: N_25  and  C_26 
REMARK    6  A    between atoms: C_26  and  C_27 
REMARK    7  A    between atoms: C_30  and  O_31 
ROOT
HETATM    1  C   UNL     1      37.059  56.105  37.424  1.00  0.00     0.253 C 
HETATM    2  N   UNL     1      36.593  55.000  38.154  1.00  0.00    -0.348 N 
HETATM    3  C   UNL     1      35.509  55.105  39.130  1.00  0.00     0.131 C 
HETATM    4  C   UNL     1      34.845  53.779  39.424  1.00  0.00     0.081 C 
HETATM    5  C   UNL     1      35.825  52.661  39.784  1.00  0.00     0.142 C 
HETATM    6  O   UNL     1      35.038  51.436  39.637  1.00  0.00    -0.358 OA
HETATM    7  C   UNL     1      35.431  50.524  40.669  1.00  0.00     0.206 C 
HETATM    8  C   UNL     1      35.769  51.413  41.837  1.00  0.00     0.206 C 
HETATM    9  N   UNL     1      36.287  52.617  41.184  1.00  0.00    -0.300 N 
HETATM   10  C   UNL     1      37.203  53.493  41.741  1.00  0.00     0.257 C 
HETATM   11  O   UNL     1      37.600  54.517  41.197  1.00  0.00    -0.267 OA
HETATM   12  C   UNL     1      36.931  52.568  38.724  1.00  0.00     0.081 C 
HETATM   13  C   UNL     1      37.543  53.900  38.307  1.00  0.00     0.131 C 
HETATM   14  O   UNL     1      37.979  56.045  36.612  1.00  0.00    -0.267 OA
ENDROOT
BRANCH   8  15
HETATM   15  C   UNL     1      34.489  51.658  42.671  1.00  0.00     0.243 C 
HETATM   16  N   UNL     1      33.319  51.351  42.032  1.00  0.00    -0.354 N 
HETATM   17  H   UNL     1      33.356  51.133  41.040  1.00  0.00     0.162 HD
HETATM   18  O   UNL     1      34.526  52.109  43.813  1.00  0.00    -0.271 OA
BRANCH  16  19
HETATM   19  C   UNL     1      31.994  51.675  42.517  1.00  0.00     0.181 C 
BRANCH  19  20
HETATM   20  C   UNL     1      31.097  52.050  41.351  1.00  0.00     0.051 A 
HETATM   21  N   UNL     1      29.941  52.710  41.648  1.00  0.00    -0.264 NA
HETATM   22  C   UNL     1      29.114  53.015  40.626  1.00  0.00     0.117 A 
HETATM   23  C   UNL     1      29.387  52.708  39.305  1.00  0.00     0.019 A 
HETATM   24  C   UNL     1      30.579  52.052  39.015  1.00  0.00     0.003 A 
HETATM   25  C   UNL     1      31.451  51.716  40.049  1.00  0.00     0.029 A 
ENDBRANCH  19  20
ENDBRANCH  16  19
ENDBRANCH   8  15
BRANCH  10  26
HETATM   26  C   UNL     1      37.838  53.177  43.042  1.00  0.00     0.032 A 
HETATM   27  C   UNL     1      37.415  53.902  44.160  1.00  0.00     0.020 A 
HETATM   28  C   UNL     1      37.923  53.590  45.425  1.00  0.00     0.038 A 
HETATM   29  C   UNL     1      38.842  52.550  45.586  1.00  0.00     0.068 A 
HETATM   30  C   UNL     1      39.253  51.822  44.468  1.00  0.00     0.038 A 
HETATM   31  C   UNL     1      38.740  52.125  43.201  1.00  0.00     0.020 A 
BRANCH  29  32
HETATM   32  O   UNL     1      39.247  52.339  46.874  1.00  0.00    -0.356 OA
HETATM   33  C   UNL     1      38.987  53.380  47.808  1.00  0.00     0.210 C 
ENDBRANCH  29  32
ENDBRANCH  10  26
BRANCH   1  34
HETATM   34  C   UNL     1      36.424  57.426  37.634  1.00  0.00     0.032 A 
HETATM   35  C   UNL     1      37.054  58.591  37.185  1.00  0.00     0.017 A 
HETATM   36  C   UNL     1      36.446  59.830  37.388  1.00  0.00     0.008 A 
HETATM   37  C   UNL     1      35.189  59.913  38.009  1.00  0.00    -0.059 A 
HETATM   38  C   UNL     1      34.551  58.732  38.418  1.00  0.00     0.008 A 
HETATM   39  C   UNL     1      35.163  57.491  38.228  1.00  0.00     0.017 A 
BRANCH  37  40
HETATM   40  C   UNL     1      34.531  61.254  38.221  1.00  0.00     0.034 C 
HETATM   41  C   UNL     1      35.537  62.352  38.532  1.00  0.00     0.010 C 
ENDBRANCH  37  40
ENDBRANCH   1  34
TORSDOF 7
ENDMDL
MODEL 5
REMARK VINA RESULT:      -8.1      9.628     14.507
REMARK  7 active torsions:
REMARK  status: ('A' for Active; 'I' for Inactive)
REMARK    1  A    between atoms: C_2  and  C_3 
REMARK    2  A    between atoms: C_6  and  C_7 
REMARK       I    between atoms: C_7  and  N_8 
REMARK    3  A    between atoms: C_14  and  C_15 
REMARK       I    between atoms: C_15  and  N_16 
REMARK    4  A    between atoms: N_16  and  C_17 
REMARK    5  A    between atoms: C_17  and  C_18 
REMARK       I    between atoms: N_25  and  C_26 
REMARK    6  A    between atoms: C_26  and  C_27 
REMARK    7  A    between atoms: C_30  and  O_31 
ROOT
HETATM    1  C   UNL     1      17.553  45.660  44.769  1.00  0.00     0.253 C 
HETATM    2  N   UNL     1      17.719  46.352  45.980  1.00  0.00    -0.348 N 
HETATM    3  C   UNL     1      17.590  47.805  46.075  1.00  0.00     0.131 C 
HETATM    4  C   UNL     1      17.317  48.285  47.483  1.00  0.00     0.081 C 
HETATM    5  C   UNL     1      18.288  47.732  48.526  1.00  0.00     0.142 C 
HETATM    6  O   UNL     1      17.622  47.988  49.805  1.00  0.00    -0.358 OA
HETATM    7  C   UNL     1      18.621  48.347  50.766  1.00  0.00     0.206 C 
HETATM    8  C   UNL     1      19.657  49.087  49.963  1.00  0.00     0.206 C 
HETATM    9  N   UNL     1      19.581  48.429  48.657  1.00  0.00    -0.300 N 
HETATM   10  C   UNL     1      20.624  48.335  47.751  1.00  0.00     0.257 C 
HETATM   11  O   UNL     1      20.535  47.813  46.646  1.00  0.00    -0.267 OA
HETATM   12  C   UNL     1      18.374  46.204  48.408  1.00  0.00     0.081 C 
HETATM   13  C   UNL     1      18.527  45.671  46.989  1.00  0.00     0.131 C 
HETATM   14  O   UNL     1      17.672  44.442  44.660  1.00  0.00    -0.267 OA
ENDROOT
BRANCH   8  15
HETATM   15  C   UNL     1      19.288  50.589  49.927  1.00  0.00     0.243 C 
HETATM   16  N   UNL     1      17.945  50.851  49.935  1.00  0.00    -0.354 N 
HETATM   17  H   UNL     1      17.302  50.073  49.818  1.00  0.00     0.162 HD
HETATM   18  O   UNL     1      20.139  51.473  49.878  1.00  0.00    -0.271 OA
BRANCH  16  19
HETATM   19  C   UNL     1      17.348  52.150  49.707  1.00  0.00     0.181 C 
BRANCH  19  20
HETATM   20  C   UNL     1      16.903  52.264  48.260  1.00  0.00     0.051 A 
HETATM   21  N   UNL     1      15.587  52.549  48.038  1.00  0.00    -0.264 NA
HETATM   22  C   UNL     1      15.168  52.614  46.757  1.00  0.00     0.117 A 
HETATM   23  C   UNL     1      16.003  52.425  45.671  1.00  0.00     0.019 A 
HETATM   24  C   UNL     1      17.346  52.155  45.911  1.00  0.00     0.003 A 
HETATM   25  C   UNL     1      17.809  52.073  47.223  1.00  0.00     0.029 A 
ENDBRANCH  19  20
ENDBRANCH  16  19
ENDBRANCH   8  15
BRANCH  10  26
HETATM   26  C   UNL     1      21.977  48.806  48.124  1.00  0.00     0.032 A 
HETATM   27  C   UNL     1      22.797  47.923  48.834  1.00  0.00     0.020 A 
HETATM   28  C   UNL     1      24.111  48.287  49.141  1.00  0.00     0.038 A 
HETATM   29  C   UNL     1      24.620  49.524  48.736  1.00  0.00     0.068 A 
HETATM   30  C   UNL     1      23.802  50.398  48.018  1.00  0.00     0.038 A 
HETATM   31  C   UNL     1      22.489  50.033  47.700  1.00  0.00     0.020 A 
BRANCH  29  32
HETATM   32  O   UNL     1      25.922  49.748  49.086  1.00  0.00    -0.356 OA
HETATM   33  C   UNL     1      26.750  48.603  49.255  1.00  0.00     0.210 C 
ENDBRANCH  29  32
ENDBRANCH  10  26
BRANCH   1  34
HETATM   34  C   UNL     1      17.221  46.421  43.544  1.00  0.00     0.032 A 
HETATM   35  C   UNL     1      18.238  46.896  42.710  1.00  0.00     0.017 A 
HETATM   36  C   UNL     1      17.913  47.612  41.557  1.00  0.00     0.008 A 
HETATM   37  C   UNL     1      16.570  47.829  41.210  1.00  0.00    -0.059 A 
HETATM   38  C   UNL     1      15.559  47.312  42.035  1.00  0.00     0.008 A 
HETATM   39  C   UNL     1      15.881  46.606  43.196  1.00  0.00     0.017 A 
BRANCH  37  40
HETATM   40  C   UNL     1      16.222  48.598  39.960  1.00  0.00     0.034 C 
HETATM   41  C   UNL     1      15.280  49.760  40.236  1.00  0.00     0.010 C 
ENDBRANCH  37  40
ENDBRANCH   1  34
TORSDOF 7
ENDMDL
MODEL 6
REMARK VINA RESULT:      -8.0      3.193      8.665
REMARK  7 active torsions:
REMARK  status: ('A' for Active; 'I' for Inactive)
REMARK    1  A    between atoms: C_2  and  C_3 
REMARK    2  A    between atoms: C_6  and  C_7 
REMARK       I    between atoms: C_7  and  N_8 
REMARK    3  A    between atoms: C_14  and  C_15 
REMARK       I    between atoms: C_15  and  N_16 
REMARK    4  A    between atoms: N_16  and  C_17 
REMARK    5  A    between atoms: C_17  and  C_18 
REMARK       I    between atoms: N_25  and  C_26 
REMARK    6  A    between atoms: C_26  and  C_27 
REMARK    7  A    between atoms: C_30  and  O_31 
ROOT
HETATM    1  C   UNL     1      21.364  39.210  45.380  1.00  0.00     0.253 C 
HETATM    2  N   UNL     1      22.675  39.489  45.799  1.00  0.00    -0.348 N 
HETATM    3  C   UNL     1      23.269  38.868  46.982  1.00  0.00     0.131 C 
HETATM    4  C   UNL     1      24.781  38.907  46.977  1.00  0.00     0.081 C 
HETATM    5  C   UNL     1      25.365  40.295  46.712  1.00  0.00     0.142 C 
HETATM    6  O   UNL     1      26.762  40.033  46.363  1.00  0.00    -0.358 OA
HETATM    7  C   UNL     1      27.566  41.080  46.919  1.00  0.00     0.206 C 
HETATM    8  C   UNL     1      26.860  41.447  48.198  1.00  0.00     0.206 C 
HETATM    9  N   UNL     1      25.454  41.203  47.870  1.00  0.00    -0.300 N 
HETATM   10  C   UNL     1      24.378  41.854  48.449  1.00  0.00     0.257 C 
HETATM   11  O   UNL     1      23.204  41.613  48.190  1.00  0.00    -0.267 OA
HETATM   12  C   UNL     1      24.734  40.899  45.449  1.00  0.00     0.081 C 
HETATM   13  C   UNL     1      23.219  40.771  45.357  1.00  0.00     0.131 C 
HETATM   14  O   UNL     1      20.838  39.731  44.400  1.00  0.00    -0.267 OA
ENDROOT
BRANCH   8  15
HETATM   15  C   UNL     1      27.397  40.557  49.344  1.00  0.00     0.243 C 
HETATM   16  N   UNL     1      27.733  41.231  50.486  1.00  0.00    -0.354 N 
HETATM   17  H   UNL     1      27.749  42.247  50.458  1.00  0.00     0.162 HD
HETATM   18  O   UNL     1      27.525  39.341  49.226  1.00  0.00    -0.271 OA
BRANCH  16  19
HETATM   19  C   UNL     1      28.437  40.660  51.615  1.00  0.00     0.181 C 
BRANCH  19  20
HETATM   20  C   UNL     1      28.672  41.728  52.667  1.00  0.00     0.051 A 
HETATM   21  N   UNL     1      27.571  42.222  53.303  1.00  0.00    -0.264 NA
HETATM   22  C   UNL     1      27.760  43.201  54.214  1.00  0.00     0.117 A 
HETATM   23  C   UNL     1      29.005  43.709  54.539  1.00  0.00     0.019 A 
HETATM   24  C   UNL     1      30.120  43.183  53.897  1.00  0.00     0.003 A 
HETATM   25  C   UNL     1      29.958  42.177  52.946  1.00  0.00     0.029 A 
ENDBRANCH  19  20
ENDBRANCH  16  19
ENDBRANCH   8  15
BRANCH  10  26
HETATM   26  C   UNL     1      24.604  42.977  49.387  1.00  0.00     0.032 A 
HETATM   27  C   UNL     1      24.647  44.268  48.851  1.00  0.00     0.020 A 
HETATM   28  C   UNL     1      24.777  45.370  49.700  1.00  0.00     0.038 A 
HETATM   29  C   UNL     1      24.856  45.197  51.085  1.00  0.00     0.068 A 
HETATM   30  C   UNL     1      24.802  43.907  51.616  1.00  0.00     0.038 A 
HETATM   31  C   UNL     1      24.661  42.801  50.769  1.00  0.00     0.020 A 
BRANCH  29  32
HETATM   32  O   UNL     1      24.965  46.356  51.801  1.00  0.00    -0.356 OA
HETATM   33  C   UNL     1      26.050  47.216  51.471  1.00  0.00     0.210 C 
ENDBRANCH  29  32
ENDBRANCH  10  26
BRANCH   1  34
HETATM   34  C   UNL     1      20.552  38.243  46.152  1.00  0.00     0.032 A 
HETATM   35  C   UNL     1      19.729  38.683  47.194  1.00  0.00     0.017 A 
HETATM   36  C   UNL     1      18.968  37.762  47.913  1.00  0.00     0.008 A 
HETATM   37  C   UNL     1      18.996  36.399  47.577  1.00  0.00    -0.059 A 
HETATM   38  C   UNL     1      19.794  35.977  46.503  1.00  0.00     0.008 A 
HETATM   39  C   UNL     1      20.568  36.895  45.789  1.00  0.00     0.017 A 
BRANCH  37  40
HETATM   40  C   UNL     1      18.166  35.406  48.353  1.00  0.00     0.034 C 
HETATM   41  C   UNL     1      17.829  34.167  47.537  1.00  0.00     0.010 C 
ENDBRANCH  37  40
ENDBRANCH   1  34
TORSDOF 7
ENDMDL
MODEL 7
REMARK VINA RESULT:      -8.0     11.050     14.330
REMARK  7 active torsions:
REMARK  status: ('A' for Active; 'I' for Inactive)
REMARK    1  A    between atoms: C_2  and  C_3 
REMARK    2  A    between atoms: C_6  and  C_7 
REMARK       I    between atoms: C_7  and  N_8 
REMARK    3  A    between atoms: C_14  and  C_15 
REMARK       I    between atoms: C_15  and  N_16 
REMARK    4  A    between atoms: N_16  and  C_17 
REMARK    5  A    between atoms: C_17  and  C_18 
REMARK       I    between atoms: N_25  and  C_26 
REMARK    6  A    between atoms: C_26  and  C_27 
REMARK    7  A    between atoms: C_30  and  O_31 
ROOT
HETATM    1  C   UNL     1      20.105  49.980  49.616  1.00  0.00     0.253 C 
HETATM    2  N   UNL     1      19.089  49.674  48.696  1.00  0.00    -0.348 N 
HETATM    3  C   UNL     1      19.368  49.359  47.296  1.00  0.00     0.131 C 
HETATM    4  C   UNL     1      18.246  48.600  46.623  1.00  0.00     0.081 C 
HETATM    5  C   UNL     1      16.871  49.246  46.795  1.00  0.00     0.142 C 
HETATM    6  O   UNL     1      15.931  48.185  46.432  1.00  0.00    -0.358 OA
HETATM    7  C   UNL     1      14.832  48.780  45.732  1.00  0.00     0.206 C 
HETATM    8  C   UNL     1      15.452  49.927  44.980  1.00  0.00     0.206 C 
HETATM    9  N   UNL     1      16.539  50.344  45.868  1.00  0.00    -0.300 N 
HETATM   10  C   UNL     1      17.061  51.624  45.939  1.00  0.00     0.257 C 
HETATM   11  O   UNL     1      17.996  51.949  46.662  1.00  0.00    -0.267 OA
HETATM   12  C   UNL     1      16.607  49.537  48.279  1.00  0.00     0.081 C 
HETATM   13  C   UNL     1      17.763  50.191  49.027  1.00  0.00     0.131 C 
HETATM   14  O   UNL     1      19.894  50.264  50.792  1.00  0.00    -0.267 OA
ENDROOT
BRANCH   8  15
HETATM   15  C   UNL     1      15.934  49.422  43.599  1.00  0.00     0.243 C 
HETATM   16  N   UNL     1      15.878  48.065  43.432  1.00  0.00    -0.354 N 
HETATM   17  H   UNL     1      15.672  47.489  44.243  1.00  0.00     0.162 HD
HETATM   18  O   UNL     1      16.350  50.183  42.730  1.00  0.00    -0.271 OA
BRANCH  16  19
HETATM   19  C   UNL     1      16.452  47.337  42.320  1.00  0.00     0.181 C 
BRANCH  19  20
HETATM   20  C   UNL     1      17.873  46.924  42.656  1.00  0.00     0.051 A 
HETATM   21  N   UNL     1      18.053  46.204  43.801  1.00  0.00    -0.264 NA
HETATM   22  C   UNL     1      19.315  45.862  44.135  1.00  0.00     0.117 A 
HETATM   23  C   UNL     1      20.421  46.190  43.371  1.00  0.00     0.019 A 
HETATM   24  C   UNL     1      20.221  46.907  42.196  1.00  0.00     0.003 A 
HETATM   25  C   UNL     1      18.930  47.282  41.827  1.00  0.00     0.029 A 
ENDBRANCH  19  20
ENDBRANCH  16  19
ENDBRANCH   8  15
BRANCH  10  26
HETATM   26  C   UNL     1      16.435  52.727  45.175  1.00  0.00     0.032 A 
HETATM   27  C   UNL     1      17.065  53.136  43.996  1.00  0.00     0.020 A 
HETATM   28  C   UNL     1      16.474  54.117  43.195  1.00  0.00     0.038 A 
HETATM   29  C   UNL     1      15.251  54.688  43.555  1.00  0.00     0.068 A 
HETATM   30  C   UNL     1      14.620  54.269  44.727  1.00  0.00     0.038 A 
HETATM   31  C   UNL     1      15.204  53.280  45.528  1.00  0.00     0.020 A 
BRANCH  29  32
HETATM   32  O   UNL     1      14.776  55.623  42.678  1.00  0.00    -0.356 OA
HETATM   33  C   UNL     1      14.478  56.909  43.207  1.00  0.00     0.210 C 
ENDBRANCH  29  32
ENDBRANCH  10  26
BRANCH   1  34
HETATM   34  C   UNL     1      21.514  49.970  49.163  1.00  0.00     0.032 A 
HETATM   35  C   UNL     1      22.264  48.791  49.213  1.00  0.00     0.017 A 
HETATM   36  C   UNL     1      23.591  48.794  48.782  1.00  0.00     0.008 A 
HETATM   37  C   UNL     1      24.168  49.965  48.266  1.00  0.00    -0.059 A 
HETATM   38  C   UNL     1      23.391  51.131  48.183  1.00  0.00     0.008 A 
HETATM   39  C   UNL     1      22.067  51.134  48.626  1.00  0.00     0.017 A 
BRANCH  37  40
HETATM   40  C   UNL     1      25.602  49.964  47.795  1.00  0.00     0.034 C 
HETATM   41  C   UNL     1      26.541  49.301  48.791  1.00  0.00     0.010 C 
ENDBRANCH  37  40
ENDBRANCH   1  34
TORSDOF 7
ENDMDL
MODEL 8
REMARK VINA RESULT:      -7.8      2.084      3.458
REMARK  7 active torsions:
REMARK  status: ('A' for Active; 'I' for Inactive)
REMARK    1  A    between atoms: C_2  and  C_3 
REMARK    2  A    between atoms: C_6  and  C_7 
REMARK       I    between atoms: C_7  and  N_8 
REMARK    3  A    between atoms: C_14  and  C_15 
REMARK       I    between atoms: C_15  and  N_16 
REMARK    4  A    between atoms: N_16  and  C_17 
REMARK    5  A    between atoms: C_17  and  C_18 
REMARK       I    between atoms: N_25  and  C_26 
REMARK    6  A    between atoms: C_26  and  C_27 
REMARK    7  A    between atoms: C_30  and  O_31 
ROOT
HETATM    1  C   UNL     1      26.779  44.322  51.069  1.00  0.00     0.253 C 
HETATM    2  N   UNL     1      26.125  43.328  50.323  1.00  0.00    -0.348 N 
HETATM    3  C   UNL     1      26.333  41.901  50.566  1.00  0.00     0.131 C 
HETATM    4  C   UNL     1      25.213  41.039  50.029  1.00  0.00     0.081 C 
HETATM    5  C   UNL     1      24.861  41.319  48.568  1.00  0.00     0.142 C 
HETATM    6  O   UNL     1      23.550  40.691  48.391  1.00  0.00    -0.358 OA
HETATM    7  C   UNL     1      23.501  40.120  47.078  1.00  0.00     0.206 C 
HETATM    8  C   UNL     1      24.915  39.675  46.817  1.00  0.00     0.206 C 
HETATM    9  N   UNL     1      25.705  40.667  47.550  1.00  0.00    -0.300 N 
HETATM   10  C   UNL     1      26.996  41.051  47.230  1.00  0.00     0.257 C 
HETATM   11  O   UNL     1      27.658  41.855  47.876  1.00  0.00    -0.267 OA
HETATM   12  C   UNL     1      24.626  42.822  48.362  1.00  0.00     0.081 C 
HETATM   13  C   UNL     1      25.669  43.734  48.996  1.00  0.00     0.131 C 
HETATM   14  O   UNL     1      26.634  45.526  50.873  1.00  0.00    -0.267 OA
ENDROOT
BRANCH   8  15
HETATM   15  C   UNL     1      25.093  38.229  47.336  1.00  0.00     0.243 C 
HETATM   16  N   UNL     1      24.192  37.326  46.839  1.00  0.00    -0.354 N 
HETATM   17  H   UNL     1      23.406  37.678  46.301  1.00  0.00     0.162 HD
HETATM   18  O   UNL     1      25.966  37.923  48.143  1.00  0.00    -0.271 OA
BRANCH  16  19
HETATM   19  C   UNL     1      24.023  35.969  47.316  1.00  0.00     0.181 C 
BRANCH  19  20
HETATM   20  C   UNL     1      22.566  35.724  47.663  1.00  0.00     0.051 A 
HETATM   21  N   UNL     1      21.657  36.620  47.179  1.00  0.00    -0.264 NA
HETATM   22  C   UNL     1      20.361  36.438  47.511  1.00  0.00     0.117 A 
HETATM   23  C   UNL     1      19.915  35.391  48.297  1.00  0.00     0.019 A 
HETATM   24  C   UNL     1      20.850  34.475  48.767  1.00  0.00     0.003 A 
HETATM   25  C   UNL     1      22.197  34.638  48.448  1.00  0.00     0.029 A 
ENDBRANCH  19  20
ENDBRANCH  16  19
ENDBRANCH   8  15
BRANCH  10  26
HETATM   26  C   UNL     1      27.635  40.550  45.992  1.00  0.00     0.032 A 
HETATM   27  C   UNL     1      28.208  39.275  46.030  1.00  0.00     0.020 A 
HETATM   28  C   UNL     1      28.753  38.721  44.869  1.00  0.00     0.038 A 
HETATM   29  C   UNL     1      28.723  39.426  43.662  1.00  0.00     0.068 A 
HETATM   30  C   UNL     1      28.141  40.694  43.626  1.00  0.00     0.038 A 
HETATM   31  C   UNL     1      27.585  41.248  44.785  1.00  0.00     0.020 A 
BRANCH  29  32
HETATM   32  O   UNL     1      29.276  38.765  42.601  1.00  0.00    -0.356 OA
HETATM   33  C   UNL     1      28.895  37.407  42.420  1.00  0.00     0.210 C 
ENDBRANCH  29  32
ENDBRANCH  10  26
BRANCH   1  34
HETATM   34  C   UNL     1      27.704  43.919  52.152  1.00  0.00     0.032 A 
HETATM   35  C   UNL     1      28.972  43.414  51.846  1.00  0.00     0.017 A 
HETATM   36  C   UNL     1      29.835  43.037  52.876  1.00  0.00     0.008 A 
HETATM   37  C   UNL     1      29.453  43.194  54.217  1.00  0.00    -0.059 A 
HETATM   38  C   UNL     1      28.194  43.740  54.510  1.00  0.00     0.008 A 
HETATM   39  C   UNL     1      27.322  44.106  53.481  1.00  0.00     0.017 A 
BRANCH  37  40
HETATM   40  C   UNL     1      30.391  42.792  55.329  1.00  0.00     0.034 C 
HETATM   41  C   UNL     1      31.036  43.991  56.008  1.00  0.00     0.010 C 
ENDBRANCH  37  40
ENDBRANCH   1  34
TORSDOF 7
ENDMDL
MODEL 9
REMARK VINA RESULT:      -7.8      5.794     11.449
REMARK  7 active torsions:
REMARK  status: ('A' for Active; 'I' for Inactive)
REMARK    1  A    between atoms: C_2  and  C_3 
REMARK    2  A    between atoms: C_6  and  C_7 
REMARK       I    between atoms: C_7  and  N_8 
REMARK    3  A    between atoms: C_14  and  C_15 
REMARK       I    between atoms: C_15  and  N_16 
REMARK    4  A    between atoms: N_16  and  C_17 
REMARK    5  A    between atoms: C_17  and  C_18 
REMARK       I    between atoms: N_25  and  C_26 
REMARK    6  A    between atoms: C_26  and  C_27 
REMARK    7  A    between atoms: C_30  and  O_31 
ROOT
HETATM    1  C   UNL     1      22.796  42.413  43.699  1.00  0.00     0.253 C 
HETATM    2  N   UNL     1      22.267  43.348  44.604  1.00  0.00    -0.348 N 
HETATM    3  C   UNL     1      22.716  44.739  44.647  1.00  0.00     0.131 C 
HETATM    4  C   UNL     1      21.720  45.663  45.310  1.00  0.00     0.081 C 
HETATM    5  C   UNL     1      21.241  45.180  46.679  1.00  0.00     0.142 C 
HETATM    6  O   UNL     1      20.040  45.977  46.938  1.00  0.00    -0.358 OA
HETATM    7  C   UNL     1      20.006  46.294  48.334  1.00  0.00     0.206 C 
HETATM    8  C   UNL     1      21.455  46.437  48.716  1.00  0.00     0.206 C 
HETATM    9  N   UNL     1      22.117  45.480  47.826  1.00  0.00    -0.300 N 
HETATM   10  C   UNL     1      23.308  44.830  48.102  1.00  0.00     0.257 C 
HETATM   11  O   UNL     1      23.869  44.060  47.331  1.00  0.00    -0.267 OA
HETATM   12  C   UNL     1      20.755  43.727  46.584  1.00  0.00     0.081 C 
HETATM   13  C   UNL     1      21.674  42.786  45.816  1.00  0.00     0.131 C 
HETATM   14  O   UNL     1      22.447  41.236  43.655  1.00  0.00    -0.267 OA
ENDROOT
BRANCH   8  15
HETATM   15  C   UNL     1      21.894  47.903  48.491  1.00  0.00     0.243 C 
HETATM   16  N   UNL     1      21.646  48.745  49.541  1.00  0.00    -0.354 N 
HETATM   17  H   UNL     1      21.079  48.399  50.311  1.00  0.00     0.162 HD
HETATM   18  O   UNL     1      22.409  48.281  47.442  1.00  0.00    -0.271 OA
BRANCH  16  19
HETATM   19  C   UNL     1      21.778  50.186  49.504  1.00  0.00     0.181 C 
BRANCH  19  20
HETATM   20  C   UNL     1      20.405  50.824  49.394  1.00  0.00     0.051 A 
HETATM   21  N   UNL     1      19.409  50.284  50.155  1.00  0.00    -0.264 NA
HETATM   22  C   UNL     1      18.174  50.815  50.039  1.00  0.00     0.117 A 
HETATM   23  C   UNL     1      17.877  51.879  49.206  1.00  0.00     0.019 A 
HETATM   24  C   UNL     1      18.906  52.432  48.450  1.00  0.00     0.003 A 
HETATM   25  C   UNL     1      20.191  51.902  48.542  1.00  0.00     0.029 A 
ENDBRANCH  19  20
ENDBRANCH  16  19
ENDBRANCH   8  15
BRANCH  10  26
HETATM   26  C   UNL     1      23.945  44.977  49.430  1.00  0.00     0.032 A 
HETATM   27  C   UNL     1      24.727  46.115  49.650  1.00  0.00     0.020 A 
HETATM   28  C   UNL     1      25.286  46.343  50.911  1.00  0.00     0.038 A 
HETATM   29  C   UNL     1      25.062  45.449  51.961  1.00  0.00     0.068 A 
HETATM   30  C   UNL     1      24.272  44.320  51.740  1.00  0.00     0.038 A 
HETATM   31  C   UNL     1      23.702  44.092  50.482  1.00  0.00     0.020 A 
BRANCH  29  32
HETATM   32  O   UNL     1      25.652  45.797  53.144  1.00  0.00    -0.356 OA
HETATM   33  C   UNL     1      25.819  47.187  53.394  1.00  0.00     0.210 C 
ENDBRANCH  29  32
ENDBRANCH  10  26
BRANCH   1  34
HETATM   34  C   UNL     1      23.836  42.849  42.740  1.00  0.00     0.032 A 
HETATM   35  C   UNL     1      25.188  42.805  43.096  1.00  0.00     0.017 A 
HETATM   36  C   UNL     1      26.159  43.217  42.184  1.00  0.00     0.008 A 
HETATM   37  C   UNL     1      25.792  43.643  40.898  1.00  0.00    -0.059 A 
HETATM   38  C   UNL     1      24.435  43.644  40.540  1.00  0.00     0.008 A 
HETATM   39  C   UNL     1      23.458  43.244  41.456  1.00  0.00     0.017 A 
BRANCH  37  40
HETATM   40  C   UNL     1      26.845  44.083  39.911  1.00  0.00     0.034 C 
HETATM   41  C   UNL     1      27.668  45.256  40.422  1.00  0.00     0.010 C 
ENDBRANCH  37  40
ENDBRANCH   1  34
TORSDOF 7
ENDMDL
MODEL 10
REMARK VINA RESULT:      -7.7     13.306     16.586
REMARK  7 active torsions:
REMARK  status: ('A' for Active; 'I' for Inactive)
REMARK    1  A    between atoms: C_2  and  C_3 
REMARK    2  A    between atoms: C_6  and  C_7 
REMARK       I    between atoms: C_7  and  N_8 
REMARK    3  A    between atoms: C_14  and  C_15 
REMARK       I    between atoms: C_15  and  N_16 
REMARK    4  A    between atoms: N_16  and  C_17 
REMARK    5  A    between atoms: C_17  and  C_18 
REMARK       I    between atoms: N_25  and  C_26 
REMARK    6  A    between atoms: C_26  and  C_27 
REMARK    7  A    between atoms: C_30  and  O_31 
ROOT
HETATM    1  C   UNL     1      38.587  52.253  39.180  1.00  0.00     0.253 C 
HETATM    2  N   UNL     1      37.523  51.958  40.048  1.00  0.00    -0.348 N 
HETATM    3  C   UNL     1      36.895  50.638  40.098  1.00  0.00     0.131 C 
HETATM    4  C   UNL     1      36.146  50.387  41.387  1.00  0.00     0.081 C 
HETATM    5  C   UNL     1      35.163  51.497  41.760  1.00  0.00     0.142 C 
HETATM    6  O   UNL     1      34.867  51.252  43.173  1.00  0.00    -0.358 OA
HETATM    7  C   UNL     1      33.485  51.551  43.399  1.00  0.00     0.206 C 
HETATM    8  C   UNL     1      32.808  51.169  42.110  1.00  0.00     0.206 C 
HETATM    9  N   UNL     1      33.840  51.451  41.110  1.00  0.00    -0.300 N 
HETATM   10  C   UNL     1      33.597  51.789  39.789  1.00  0.00     0.257 C 
HETATM   11  O   UNL     1      34.472  51.986  38.954  1.00  0.00    -0.267 OA
HETATM   12  C   UNL     1      35.868  52.860  41.720  1.00  0.00     0.081 C 
HETATM   13  C   UNL     1      36.735  53.105  40.492  1.00  0.00     0.131 C 
HETATM   14  O   UNL     1      39.120  53.357  39.108  1.00  0.00    -0.267 OA
ENDROOT
BRANCH   8  15
HETATM   15  C   UNL     1      32.399  49.678  42.178  1.00  0.00     0.243 C 
HETATM   16  N   UNL     1      32.622  48.968  41.030  1.00  0.00    -0.354 N 
HETATM   17  H   UNL     1      32.892  49.478  40.193  1.00  0.00     0.162 HD
HETATM   18  O   UNL     1      31.896  49.180  43.182  1.00  0.00    -0.271 OA
BRANCH  16  19
HETATM   19  C   UNL     1      32.147  47.624  40.775  1.00  0.00     0.181 C 
BRANCH  19  20
HETATM   20  C   UNL     1      30.750  47.677  40.183  1.00  0.00     0.051 A 
HETATM   21  N   UNL     1      29.712  47.812  41.059  1.00  0.00    -0.264 NA
HETATM   22  C   UNL     1      28.462  47.821  40.551  1.00  0.00     0.117 A 
HETATM   23  C   UNL     1      28.186  47.717  39.199  1.00  0.00     0.019 A 
HETATM   24  C   UNL     1      29.255  47.601  38.316  1.00  0.00     0.003 A 
HETATM   25  C   UNL     1      30.558  47.580  38.809  1.00  0.00     0.029 A 
ENDBRANCH  19  20
ENDBRANCH  16  19
ENDBRANCH   8  15
BRANCH  10  26
HETATM   26  C   UNL     1      32.211  52.017  39.323  1.00  0.00     0.032 A 
HETATM   27  C   UNL     1      31.751  51.241  38.254  1.00  0.00     0.020 A 
HETATM   28  C   UNL     1      30.426  51.359  37.826  1.00  0.00     0.038 A 
HETATM   29  C   UNL     1      29.548  52.239  38.465  1.00  0.00     0.068 A 
HETATM   30  C   UNL     1      30.007  53.004  39.538  1.00  0.00     0.038 A 
HETATM   31  C   UNL     1      31.331  52.882  39.975  1.00  0.00     0.020 A 
BRANCH  29  32
HETATM   32  O   UNL     1      28.278  52.247  37.959  1.00  0.00    -0.356 OA
HETATM   33  C   UNL     1      27.451  51.135  38.281  1.00  0.00     0.210 C 
ENDBRANCH  29  32
ENDBRANCH  10  26
BRANCH   1  34
HETATM   34  C   UNL     1      39.106  51.190  38.290  1.00  0.00     0.032 A 
HETATM   35  C   UNL     1      40.300  50.531  38.598  1.00  0.00     0.017 A 
HETATM   36  C   UNL     1      40.778  49.530  37.751  1.00  0.00     0.008 A 
HETATM   37  C   UNL     1      40.051  49.157  36.610  1.00  0.00    -0.059 A 
HETATM   38  C   UNL     1      38.834  49.799  36.335  1.00  0.00     0.008 A 
HETATM   39  C   UNL     1      38.359  50.810  37.173  1.00  0.00     0.017 A 
BRANCH  37  40
HETATM   40  C   UNL     1      40.568  48.070  35.699  1.00  0.00     0.034 C 
HETATM   41  C   UNL     1      40.968  46.815  36.461  1.00  0.00     0.010 C 
ENDBRANCH  37  40
ENDBRANCH   1  34
TORSDOF 7
ENDMDL
