MODEL 1
REMARK VINA RESULT:      -8.4      0.000      0.000
REMARK  8 active torsions:
REMARK  status: ('A' for Active; 'I' for Inactive)
REMARK    1  A    between atoms: C_5  and  C_6 
REMARK       I    between atoms: C_6  and  N_7 
REMARK    2  A    between atoms: N_7  and  C_8 
REMARK    3  A    between atoms: C_8  and  N_9 
REMARK    4  A    between atoms: C_8  and  C_25 
REMARK    5  A    between atoms: C_8  and  C_29 
REMARK    6  A    between atoms: N_9  and  C_10 
REMARK    7  A    between atoms: C_20  and  C_21 
REMARK    8  A    between atoms: C_21  and  O_22 
ROOT
HETATM    1  C   UNL     1      26.357  45.138  51.669  1.00  0.00     0.307 C 
ENDROOT
BRANCH   1   2
HETATM    2  N   UNL     1      27.481  44.826  52.573  1.00  0.00    -0.315 N 
HETATM    3  C   UNL     1      27.289  44.433  53.871  1.00  0.00     0.254 C 
HETATM    4  O   UNL     1      26.181  44.250  54.349  1.00  0.00    -0.268 OA
HETATM    5  H   UNL     1      28.380  45.204  52.313  1.00  0.00     0.165 HD
BRANCH   3   6
HETATM    6  C   UNL     1      28.518  44.269  54.682  1.00  0.00     0.032 A 
HETATM    7  C   UNL     1      28.925  45.260  55.584  1.00  0.00     0.017 A 
HETATM    8  C   UNL     1      30.091  45.085  56.331  1.00  0.00     0.007 A 
HETATM    9  C   UNL     1      30.864  43.927  56.176  1.00  0.00    -0.062 A 
HETATM   10  C   UNL     1      32.104  43.723  56.997  1.00  0.00     0.048 C 
HETATM   11  C   UNL     1      30.445  42.937  55.276  1.00  0.00     0.007 A 
HETATM   12  C   UNL     1      29.284  43.113  54.520  1.00  0.00     0.017 A 
ENDBRANCH   3   6
ENDBRANCH   1   2
BRANCH   1  13
HETATM   13  N   UNL     1      25.642  43.790  51.637  1.00  0.00    -0.342 N 
HETATM   14  H   UNL     1      24.633  43.969  51.558  1.00  0.00     0.163 HD
BRANCH  13  15
HETATM   15  C   UNL     1      26.090  42.677  50.979  1.00  0.00     0.089 A 
HETATM   16  S   UNL     1      27.527  41.857  51.435  1.00  0.00    -0.074 SA
HETATM   17  C   UNL     1      27.300  40.625  50.306  1.00  0.00     0.018 A 
HETATM   18  C   UNL     1      26.143  40.790  49.575  1.00  0.00    -0.023 A 
HETATM   19  C   UNL     1      28.253  39.485  50.184  1.00  0.00     0.281 C 
HETATM   20  C   UNL     1      25.753  39.791  48.516  1.00  0.00     0.068 C 
HETATM   21  C   UNL     1      25.435  42.005  49.943  1.00  0.00     0.080 A 
HETATM   22  C   UNL     1      26.547  38.476  48.633  1.00  0.00     0.239 C 
HETATM   23  N   UNL     1      28.030  38.715  48.888  1.00  0.00    -0.070 N 
HETATM   24  H   UNL     1      28.455  37.792  49.036  1.00  0.00     0.279 HD
HETATM   25  C   UNL     1      28.751  39.323  47.720  1.00  0.00     0.270 C 
BRANCH  21  26
HETATM   26  C   UNL     1      24.197  42.460  49.285  1.00  0.00     0.296 C 
HETATM   27  O   UNL     1      24.117  42.616  48.073  1.00  0.00    -0.259 OA
BRANCH  26  28
HETATM   28  O   UNL     1      23.183  42.734  50.159  1.00  0.00    -0.322 OA
HETATM   29  C   UNL     1      22.498  43.963  49.903  1.00  0.00     0.213 C 
ENDBRANCH  26  28
ENDBRANCH  21  26
ENDBRANCH  13  15
ENDBRANCH   1  13
BRANCH   1  30
HETATM   30  C   UNL     1      25.468  46.367  52.041  1.00  0.00     0.441 C 
HETATM   31  F   UNL     1      24.628  46.707  51.028  1.00  0.00    -0.166 F 
HETATM   32  F   UNL     1      24.702  46.194  53.137  1.00  0.00    -0.166 F 
HETATM   33  F   UNL     1      26.234  47.465  52.286  1.00  0.00    -0.166 F 
ENDBRANCH   1  30
BRANCH   1  34
HETATM   34  C   UNL     1      26.803  45.480  50.209  1.00  0.00     0.441 C 
HETATM   35  F   UNL     1      27.070  46.776  49.976  1.00  0.00    -0.166 F 
HETATM   36  F   UNL     1      27.955  44.794  49.938  1.00  0.00    -0.166 F 
HETATM   37  F   UNL     1      25.900  45.065  49.291  1.00  0.00    -0.166 F 
ENDBRANCH   1  34
TORSDOF 8
ENDMDL
MODEL 2
REMARK VINA RESULT:      -8.0      6.914      9.957
REMARK  8 active torsions:
REMARK  status: ('A' for Active; 'I' for Inactive)
REMARK    1  A    between atoms: C_5  and  C_6 
REMARK       I    between atoms: C_6  and  N_7 
REMARK    2  A    between atoms: N_7  and  C_8 
REMARK    3  A    between atoms: C_8  and  N_9 
REMARK    4  A    between atoms: C_8  and  C_25 
REMARK    5  A    between atoms: C_8  and  C_29 
REMARK    6  A    between atoms: N_9  and  C_10 
REMARK    7  A    between atoms: C_20  and  C_21 
REMARK    8  A    between atoms: C_21  and  O_22 
ROOT
HETATM    1  C   UNL     1      20.497  49.505  49.336  1.00  0.00     0.307 C 
ENDROOT
BRANCH   1   2
HETATM    2  N   UNL     1      21.695  48.691  49.620  1.00  0.00    -0.315 N 
HETATM    3  C   UNL     1      22.777  48.664  48.780  1.00  0.00     0.254 C 
HETATM    4  O   UNL     1      22.854  49.358  47.779  1.00  0.00    -0.268 OA
HETATM    5  H   UNL     1      21.573  47.930  50.270  1.00  0.00     0.165 HD
BRANCH   3   6
HETATM    6  C   UNL     1      23.850  47.710  49.145  1.00  0.00     0.032 A 
HETATM    7  C   UNL     1      23.606  46.331  49.187  1.00  0.00     0.017 A 
HETATM    8  C   UNL     1      24.632  45.454  49.541  1.00  0.00     0.007 A 
HETATM    9  C   UNL     1      25.904  45.945  49.864  1.00  0.00    -0.062 A 
HETATM   10  C   UNL     1      27.017  45.002  50.219  1.00  0.00     0.048 C 
HETATM   11  C   UNL     1      26.141  47.326  49.811  1.00  0.00     0.007 A 
HETATM   12  C   UNL     1      25.115  48.207  49.467  1.00  0.00     0.017 A 
ENDBRANCH   3   6
ENDBRANCH   1   2
BRANCH   1  13
HETATM   13  N   UNL     1      20.380  49.312  47.826  1.00  0.00    -0.342 N 
HETATM   14  H   UNL     1      21.210  48.798  47.507  1.00  0.00     0.163 HD
BRANCH  13  15
HETATM   15  C   UNL     1      19.222  49.022  47.157  1.00  0.00     0.089 A 
HETATM   16  S   UNL     1      18.257  50.235  46.420  1.00  0.00    -0.074 SA
HETATM   17  C   UNL     1      17.187  49.118  45.751  1.00  0.00     0.018 A 
HETATM   18  C   UNL     1      17.531  47.817  46.049  1.00  0.00    -0.023 A 
HETATM   19  C   UNL     1      16.037  49.542  44.902  1.00  0.00     0.281 C 
HETATM   20  C   UNL     1      16.705  46.665  45.538  1.00  0.00     0.068 C 
HETATM   21  C   UNL     1      18.711  47.747  46.896  1.00  0.00     0.080 A 
HETATM   22  C   UNL     1      15.744  47.091  44.412  1.00  0.00     0.239 C 
HETATM   23  N   UNL     1      15.038  48.406  44.718  1.00  0.00    -0.070 N 
HETATM   24  H   UNL     1      14.492  48.647  43.882  1.00  0.00     0.279 HD
HETATM   25  C   UNL     1      14.052  48.311  45.846  1.00  0.00     0.270 C 
BRANCH  21  26
HETATM   26  C   UNL     1      19.272  46.486  47.413  1.00  0.00     0.296 C 
HETATM   27  O   UNL     1      18.569  45.602  47.888  1.00  0.00    -0.259 OA
BRANCH  26  28
HETATM   28  O   UNL     1      20.635  46.430  47.357  1.00  0.00    -0.322 OA
HETATM   29  C   UNL     1      21.161  46.092  46.070  1.00  0.00     0.213 C 
ENDBRANCH  26  28
ENDBRANCH  21  26
ENDBRANCH  13  15
ENDBRANCH   1  13
BRANCH   1  30
HETATM   30  C   UNL     1      19.210  49.186  50.160  1.00  0.00     0.441 C 
HETATM   31  F   UNL     1      19.313  49.623  51.444  1.00  0.00    -0.166 F 
HETATM   32  F   UNL     1      18.077  49.716  49.659  1.00  0.00    -0.166 F 
HETATM   33  F   UNL     1      19.000  47.843  50.232  1.00  0.00    -0.166 F 
ENDBRANCH   1  30
BRANCH   1  34
HETATM   34  C   UNL     1      20.698  51.032  49.610  1.00  0.00     0.441 C 
HETATM   35  F   UNL     1      19.600  51.696  50.008  1.00  0.00    -0.166 F 
HETATM   36  F   UNL     1      21.619  51.173  50.612  1.00  0.00    -0.166 F 
HETATM   37  F   UNL     1      21.214  51.678  48.538  1.00  0.00    -0.166 F 
ENDBRANCH   1  34
TORSDOF 8
ENDMDL
MODEL 3
REMARK VINA RESULT:      -8.0      7.056      9.778
REMARK  8 active torsions:
REMARK  status: ('A' for Active; 'I' for Inactive)
REMARK    1  A    between atoms: C_5  and  C_6 
REMARK       I    between atoms: C_6  and  N_7 
REMARK    2  A    between atoms: N_7  and  C_8 
REMARK    3  A    between atoms: C_8  and  N_9 
REMARK    4  A    between atoms: C_8  and  C_25 
REMARK    5  A    between atoms: C_8  and  C_29 
REMARK    6  A    between atoms: N_9  and  C_10 
REMARK    7  A    between atoms: C_20  and  C_21 
REMARK    8  A    between atoms: C_21  and  O_22 
ROOT
HETATM    1  C   UNL     1      20.650  49.474  49.242  1.00  0.00     0.307 C 
ENDROOT
BRANCH   1   2
HETATM    2  N   UNL     1      21.832  48.662  49.592  1.00  0.00    -0.315 N 
HETATM    3  C   UNL     1      22.950  48.620  48.801  1.00  0.00     0.254 C 
HETATM    4  O   UNL     1      23.074  49.299  47.795  1.00  0.00    -0.268 OA
HETATM    5  H   UNL     1      21.679  47.911  50.247  1.00  0.00     0.165 HD
BRANCH   3   6
HETATM    6  C   UNL     1      24.004  47.670  49.228  1.00  0.00     0.032 A 
HETATM    7  C   UNL     1      25.290  48.117  49.554  1.00  0.00     0.017 A 
HETATM    8  C   UNL     1      26.267  47.200  49.947  1.00  0.00     0.007 A 
HETATM    9  C   UNL     1      25.971  45.833  50.008  1.00  0.00    -0.062 A 
HETATM   10  C   UNL     1      27.011  44.847  50.455  1.00  0.00     0.048 C 
HETATM   11  C   UNL     1      24.678  45.395  49.687  1.00  0.00     0.007 A 
HETATM   12  C   UNL     1      23.701  46.307  49.285  1.00  0.00     0.017 A 
ENDBRANCH   3   6
ENDBRANCH   1   2
BRANCH   1  13
HETATM   13  N   UNL     1      20.599  49.257  47.732  1.00  0.00    -0.342 N 
HETATM   14  H   UNL     1      21.557  49.078  47.405  1.00  0.00     0.163 HD
BRANCH  13  15
HETATM   15  C   UNL     1      19.618  48.573  47.068  1.00  0.00     0.089 A 
HETATM   16  S   UNL     1      19.403  46.879  47.237  1.00  0.00    -0.074 SA
HETATM   17  C   UNL     1      18.016  46.859  46.279  1.00  0.00     0.018 A 
HETATM   18  C   UNL     1      17.674  48.114  45.823  1.00  0.00    -0.023 A 
HETATM   19  C   UNL     1      17.257  45.602  46.021  1.00  0.00     0.281 C 
HETATM   20  C   UNL     1      16.459  48.314  44.954  1.00  0.00     0.068 C 
HETATM   21  C   UNL     1      18.622  49.127  46.258  1.00  0.00     0.080 A 
HETATM   22  C   UNL     1      15.520  47.093  44.976  1.00  0.00     0.239 C 
HETATM   23  N   UNL     1      16.277  45.775  44.867  1.00  0.00    -0.070 N 
HETATM   24  H   UNL     1      15.581  45.027  44.977  1.00  0.00     0.279 HD
HETATM   25  C   UNL     1      16.914  45.558  43.526  1.00  0.00     0.270 C 
BRANCH  21  26
HETATM   26  C   UNL     1      18.533  50.547  45.873  1.00  0.00     0.296 C 
HETATM   27  O   UNL     1      18.615  50.917  44.708  1.00  0.00    -0.259 OA
BRANCH  26  28
HETATM   28  O   UNL     1      18.406  51.395  46.936  1.00  0.00    -0.322 OA
HETATM   29  C   UNL     1      17.064  51.814  47.201  1.00  0.00     0.213 C 
ENDBRANCH  26  28
ENDBRANCH  21  26
ENDBRANCH  13  15
ENDBRANCH   1  13
BRANCH   1  30
HETATM   30  C   UNL     1      19.327  49.170  50.014  1.00  0.00     0.441 C 
HETATM   31  F   UNL     1      19.330  49.725  51.255  1.00  0.00    -0.166 F 
HETATM   32  F   UNL     1      18.208  49.601  49.399  1.00  0.00    -0.166 F 
HETATM   33  F   UNL     1      19.167  47.831  50.196  1.00  0.00    -0.166 F 
ENDBRANCH   1  30
BRANCH   1  34
HETATM   34  C   UNL     1      20.843  51.005  49.501  1.00  0.00     0.441 C 
HETATM   35  F   UNL     1      19.727  51.680  49.824  1.00  0.00    -0.166 F 
HETATM   36  F   UNL     1      21.705  51.159  50.552  1.00  0.00    -0.166 F 
HETATM   37  F   UNL     1      21.423  51.630  48.450  1.00  0.00    -0.166 F 
ENDBRANCH   1  34
TORSDOF 8
ENDMDL
MODEL 4
REMARK VINA RESULT:      -8.0      8.198     11.159
REMARK  8 active torsions:
REMARK  status: ('A' for Active; 'I' for Inactive)
REMARK    1  A    between atoms: C_5  and  C_6 
REMARK       I    between atoms: C_6  and  N_7 
REMARK    2  A    between atoms: N_7  and  C_8 
REMARK    3  A    between atoms: C_8  and  N_9 
REMARK    4  A    between atoms: C_8  and  C_25 
REMARK    5  A    between atoms: C_8  and  C_29 
REMARK    6  A    between atoms: N_9  and  C_10 
REMARK    7  A    between atoms: C_20  and  C_21 
REMARK    8  A    between atoms: C_21  and  O_22 
ROOT
HETATM    1  C   UNL     1      19.912  50.144  49.036  1.00  0.00     0.307 C 
ENDROOT
BRANCH   1   2
HETATM    2  N   UNL     1      21.387  50.078  49.028  1.00  0.00    -0.315 N 
HETATM    3  C   UNL     1      22.070  49.080  48.386  1.00  0.00     0.254 C 
HETATM    4  O   UNL     1      21.515  48.220  47.722  1.00  0.00    -0.268 OA
HETATM    5  H   UNL     1      21.859  50.595  49.754  1.00  0.00     0.165 HD
BRANCH   3   6
HETATM    6  C   UNL     1      23.541  49.089  48.568  1.00  0.00     0.032 A 
HETATM    7  C   UNL     1      24.345  50.020  47.900  1.00  0.00     0.017 A 
HETATM    8  C   UNL     1      25.729  50.002  48.084  1.00  0.00     0.007 A 
HETATM    9  C   UNL     1      26.320  49.051  48.926  1.00  0.00    -0.062 A 
HETATM   10  C   UNL     1      27.805  49.046  49.146  1.00  0.00     0.048 C 
HETATM   11  C   UNL     1      25.505  48.128  49.597  1.00  0.00     0.007 A 
HETATM   12  C   UNL     1      24.122  48.137  49.409  1.00  0.00     0.017 A 
ENDBRANCH   3   6
ENDBRANCH   1   2
BRANCH   1  13
HETATM   13  N   UNL     1      19.623  50.104  47.537  1.00  0.00    -0.342 N 
HETATM   14  H   UNL     1      20.512  49.945  47.048  1.00  0.00     0.163 HD
BRANCH  13  15
HETATM   15  C   UNL     1      18.527  49.519  46.963  1.00  0.00     0.089 A 
HETATM   16  S   UNL     1      18.483  47.853  46.554  1.00  0.00    -0.074 SA
HETATM   17  C   UNL     1      16.869  47.913  46.070  1.00  0.00     0.018 A 
HETATM   18  C   UNL     1      16.323  49.170  46.216  1.00  0.00    -0.023 A 
HETATM   19  C   UNL     1      16.147  46.700  45.588  1.00  0.00     0.281 C 
HETATM   20  C   UNL     1      14.886  49.434  45.845  1.00  0.00     0.068 C 
HETATM   21  C   UNL     1      17.294  50.130  46.716  1.00  0.00     0.080 A 
HETATM   22  C   UNL     1      14.080  48.132  45.675  1.00  0.00     0.239 C 
HETATM   23  N   UNL     1      14.845  47.074  44.891  1.00  0.00    -0.070 N 
HETATM   24  H   UNL     1      14.268  46.224  44.905  1.00  0.00     0.279 HD
HETATM   25  C   UNL     1      15.040  47.421  43.444  1.00  0.00     0.270 C 
BRANCH  21  26
HETATM   26  C   UNL     1      17.000  51.561  46.915  1.00  0.00     0.296 C 
HETATM   27  O   UNL     1      16.155  51.951  47.712  1.00  0.00    -0.259 OA
BRANCH  26  28
HETATM   28  O   UNL     1      17.718  52.385  46.097  1.00  0.00    -0.322 OA
HETATM   29  C   UNL     1      17.003  52.845  44.946  1.00  0.00     0.213 C 
ENDBRANCH  26  28
ENDBRANCH  21  26
ENDBRANCH  13  15
ENDBRANCH   1  13
BRANCH   1  30
HETATM   30  C   UNL     1      19.158  49.084  49.899  1.00  0.00     0.441 C 
HETATM   31  F   UNL     1      19.578  47.820  49.624  1.00  0.00    -0.166 F 
HETATM   32  F   UNL     1      19.284  49.253  51.231  1.00  0.00    -0.166 F 
HETATM   33  F   UNL     1      17.823  49.106  49.640  1.00  0.00    -0.166 F 
ENDBRANCH   1  30
BRANCH   1  34
HETATM   34  C   UNL     1      19.348  51.492  49.597  1.00  0.00     0.441 C 
HETATM   35  F   UNL     1      18.073  51.452  50.019  1.00  0.00    -0.166 F 
HETATM   36  F   UNL     1      20.101  51.857  50.679  1.00  0.00    -0.166 F 
HETATM   37  F   UNL     1      19.464  52.503  48.705  1.00  0.00    -0.166 F 
ENDBRANCH   1  34
TORSDOF 8
ENDMDL
MODEL 5
REMARK VINA RESULT:      -7.9     12.492     15.282
REMARK  8 active torsions:
REMARK  status: ('A' for Active; 'I' for Inactive)
REMARK    1  A    between atoms: C_5  and  C_6 
REMARK       I    between atoms: C_6  and  N_7 
REMARK    2  A    between atoms: N_7  and  C_8 
REMARK    3  A    between atoms: C_8  and  N_9 
REMARK    4  A    between atoms: C_8  and  C_25 
REMARK    5  A    between atoms: C_8  and  C_29 
REMARK    6  A    between atoms: N_9  and  C_10 
REMARK    7  A    between atoms: C_20  and  C_21 
REMARK    8  A    between atoms: C_21  and  O_22 
ROOT
HETATM    1  C   UNL     1      29.093  51.475  39.904  1.00  0.00     0.307 C 
ENDROOT
BRANCH   1   2
HETATM    2  N   UNL     1      27.963  50.575  40.208  1.00  0.00    -0.315 N 
HETATM    3  C   UNL     1      27.612  49.538  39.386  1.00  0.00     0.254 C 
HETATM    4  O   UNL     1      28.246  49.244  38.386  1.00  0.00    -0.268 OA
HETATM    5  H   UNL     1      27.277  50.927  40.858  1.00  0.00     0.165 HD
BRANCH   3   6
HETATM    6  C   UNL     1      26.385  48.800  39.770  1.00  0.00     0.032 A 
HETATM    7  C   UNL     1      26.441  47.724  40.664  1.00  0.00     0.017 A 
HETATM    8  C   UNL     1      25.272  47.041  41.004  1.00  0.00     0.007 A 
HETATM    9  C   UNL     1      24.043  47.420  40.448  1.00  0.00    -0.062 A 
HETATM   10  C   UNL     1      22.780  46.704  40.832  1.00  0.00     0.048 C 
HETATM   11  C   UNL     1      23.996  48.503  39.560  1.00  0.00     0.007 A 
HETATM   12  C   UNL     1      25.164  49.183  39.210  1.00  0.00     0.017 A 
ENDBRANCH   3   6
ENDBRANCH   1   2
BRANCH   1  13
HETATM   13  N   UNL     1      30.250  50.478  39.899  1.00  0.00    -0.342 N 
HETATM   14  H   UNL     1      30.073  49.792  39.155  1.00  0.00     0.163 HD
BRANCH  13  15
HETATM   15  C   UNL     1      31.565  50.798  40.097  1.00  0.00     0.089 A 
HETATM   16  S   UNL     1      32.460  51.744  38.980  1.00  0.00    -0.074 SA
HETATM   17  C   UNL     1      33.830  51.787  39.961  1.00  0.00     0.018 A 
HETATM   18  C   UNL     1      33.647  51.112  41.148  1.00  0.00    -0.023 A 
HETATM   19  C   UNL     1      35.061  52.527  39.560  1.00  0.00     0.281 C 
HETATM   20  C   UNL     1      34.752  51.038  42.171  1.00  0.00     0.068 C 
HETATM   21  C   UNL     1      32.329  50.504  41.231  1.00  0.00     0.080 A 
HETATM   22  C   UNL     1      35.868  52.064  41.899  1.00  0.00     0.239 C 
HETATM   23  N   UNL     1      36.251  52.129  40.425  1.00  0.00    -0.070 N 
HETATM   24  H   UNL     1      36.931  52.893  40.332  1.00  0.00     0.279 HD
HETATM   25  C   UNL     1      36.942  50.892  39.929  1.00  0.00     0.270 C 
BRANCH  21  26
HETATM   26  C   UNL     1      31.880  49.676  42.365  1.00  0.00     0.296 C 
HETATM   27  O   UNL     1      31.819  50.109  43.509  1.00  0.00    -0.259 OA
BRANCH  26  28
HETATM   28  O   UNL     1      31.596  48.386  42.021  1.00  0.00    -0.322 OA
HETATM   29  C   UNL     1      32.686  47.680  41.419  1.00  0.00     0.213 C 
ENDBRANCH  26  28
ENDBRANCH  21  26
ENDBRANCH  13  15
ENDBRANCH   1  13
BRANCH   1  30
HETATM   30  C   UNL     1      28.965  52.369  38.630  1.00  0.00     0.441 C 
HETATM   31  F   UNL     1      27.678  52.455  38.202  1.00  0.00    -0.166 F 
HETATM   32  F   UNL     1      29.406  53.633  38.786  1.00  0.00    -0.166 F 
HETATM   33  F   UNL     1      29.676  51.845  37.596  1.00  0.00    -0.166 F 
ENDBRANCH   1  30
BRANCH   1  34
HETATM   34  C   UNL     1      29.374  52.530  41.025  1.00  0.00     0.441 C 
HETATM   35  F   UNL     1      30.417  53.346  40.800  1.00  0.00    -0.166 F 
HETATM   36  F   UNL     1      28.273  53.334  41.145  1.00  0.00    -0.166 F 
HETATM   37  F   UNL     1      29.545  51.952  42.236  1.00  0.00    -0.166 F 
ENDBRANCH   1  34
TORSDOF 8
ENDMDL
MODEL 6
REMARK VINA RESULT:      -7.8      7.666      9.651
REMARK  8 active torsions:
REMARK  status: ('A' for Active; 'I' for Inactive)
REMARK    1  A    between atoms: C_5  and  C_6 
REMARK       I    between atoms: C_6  and  N_7 
REMARK    2  A    between atoms: N_7  and  C_8 
REMARK    3  A    between atoms: C_8  and  N_9 
REMARK    4  A    between atoms: C_8  and  C_25 
REMARK    5  A    between atoms: C_8  and  C_29 
REMARK    6  A    between atoms: N_9  and  C_10 
REMARK    7  A    between atoms: C_20  and  C_21 
REMARK    8  A    between atoms: C_21  and  O_22 
ROOT
HETATM    1  C   UNL     1      19.971  49.697  49.292  1.00  0.00     0.307 C 
ENDROOT
BRANCH   1   2
HETATM    2  N   UNL     1      21.421  49.443  49.406  1.00  0.00    -0.315 N 
HETATM    3  C   UNL     1      22.324  49.956  48.514  1.00  0.00     0.254 C 
HETATM    4  O   UNL     1      22.005  50.708  47.608  1.00  0.00    -0.268 OA
HETATM    5  H   UNL     1      21.691  48.645  49.959  1.00  0.00     0.165 HD
BRANCH   3   6
HETATM    6  C   UNL     1      23.728  49.516  48.696  1.00  0.00     0.032 A 
HETATM    7  C   UNL     1      24.040  48.425  49.517  1.00  0.00     0.017 A 
HETATM    8  C   UNL     1      25.371  48.034  49.677  1.00  0.00     0.007 A 
HETATM    9  C   UNL     1      26.398  48.734  49.030  1.00  0.00    -0.062 A 
HETATM   10  C   UNL     1      27.827  48.301  49.180  1.00  0.00     0.048 C 
HETATM   11  C   UNL     1      26.074  49.820  48.205  1.00  0.00     0.007 A 
HETATM   12  C   UNL     1      24.745  50.219  48.049  1.00  0.00     0.017 A 
ENDBRANCH   3   6
ENDBRANCH   1   2
BRANCH   1  13
HETATM   13  N   UNL     1      19.769  49.494  47.793  1.00  0.00    -0.342 N 
HETATM   14  H   UNL     1      20.490  50.034  47.300  1.00  0.00     0.163 HD
BRANCH  13  15
HETATM   15  C   UNL     1      19.417  48.313  47.199  1.00  0.00     0.089 A 
HETATM   16  S   UNL     1      20.366  46.890  47.347  1.00  0.00    -0.074 SA
HETATM   17  C   UNL     1      19.252  45.941  46.510  1.00  0.00     0.018 A 
HETATM   18  C   UNL     1      18.143  46.657  46.114  1.00  0.00    -0.023 A 
HETATM   19  C   UNL     1      19.472  44.483  46.289  1.00  0.00     0.281 C 
HETATM   20  C   UNL     1      17.024  45.990  45.356  1.00  0.00     0.068 C 
HETATM   21  C   UNL     1      18.238  48.058  46.491  1.00  0.00     0.080 A 
HETATM   22  C   UNL     1      17.106  44.453  45.431  1.00  0.00     0.239 C 
HETATM   23  N   UNL     1      18.525  43.937  45.227  1.00  0.00    -0.070 N 
HETATM   24  H   UNL     1      18.492  42.921  45.378  1.00  0.00     0.279 HD
HETATM   25  C   UNL     1      19.041  44.133  43.831  1.00  0.00     0.270 C 
BRANCH  21  26
HETATM   26  C   UNL     1      17.220  49.068  46.147  1.00  0.00     0.296 C 
HETATM   27  O   UNL     1      17.040  49.453  44.999  1.00  0.00    -0.259 OA
BRANCH  26  28
HETATM   28  O   UNL     1      16.547  49.556  47.231  1.00  0.00    -0.322 OA
HETATM   29  C   UNL     1      15.289  48.922  47.481  1.00  0.00     0.213 C 
ENDBRANCH  26  28
ENDBRANCH  21  26
ENDBRANCH  13  15
ENDBRANCH   1  13
BRANCH   1  30
HETATM   30  C   UNL     1      19.030  48.865  50.220  1.00  0.00     0.441 C 
HETATM   31  F   UNL     1      17.734  48.934  49.817  1.00  0.00    -0.166 F 
HETATM   32  F   UNL     1      19.340  47.556  50.305  1.00  0.00    -0.166 F 
HETATM   33  F   UNL     1      19.059  49.342  51.494  1.00  0.00    -0.166 F 
ENDBRANCH   1  30
BRANCH   1  34
HETATM   34  C   UNL     1      19.563  51.167  49.637  1.00  0.00     0.441 C 
HETATM   35  F   UNL     1      18.334  51.318  50.159  1.00  0.00    -0.166 F 
HETATM   36  F   UNL     1      20.441  51.651  50.568  1.00  0.00    -0.166 F 
HETATM   37  F   UNL     1      19.668  51.989  48.566  1.00  0.00    -0.166 F 
ENDBRANCH   1  34
TORSDOF 8
ENDMDL
MODEL 7
REMARK VINA RESULT:      -7.8     13.034     14.965
REMARK  8 active torsions:
REMARK  status: ('A' for Active; 'I' for Inactive)
REMARK    1  A    between atoms: C_5  and  C_6 
REMARK       I    between atoms: C_6  and  N_7 
REMARK    2  A    between atoms: N_7  and  C_8 
REMARK    3  A    between atoms: C_8  and  N_9 
REMARK    4  A    between atoms: C_8  and  C_25 
REMARK    5  A    between atoms: C_8  and  C_29 
REMARK    6  A    between atoms: N_9  and  C_10 
REMARK    7  A    between atoms: C_20  and  C_21 
REMARK    8  A    between atoms: C_21  and  O_22 
ROOT
HETATM    1  C   UNL     1      30.890  52.302  40.685  1.00  0.00     0.307 C 
ENDROOT
BRANCH   1   2
HETATM    2  N   UNL     1      32.313  52.664  40.536  1.00  0.00    -0.315 N 
HETATM    3  C   UNL     1      33.007  52.437  39.377  1.00  0.00     0.254 C 
HETATM    4  O   UNL     1      32.484  51.987  38.371  1.00  0.00    -0.268 OA
HETATM    5  H   UNL     1      32.833  52.788  41.391  1.00  0.00     0.165 HD
BRANCH   3   6
HETATM    6  C   UNL     1      34.455  52.748  39.424  1.00  0.00     0.032 A 
HETATM    7  C   UNL     1      34.922  54.046  39.183  1.00  0.00     0.017 A 
HETATM    8  C   UNL     1      36.292  54.311  39.227  1.00  0.00     0.007 A 
HETATM    9  C   UNL     1      37.204  53.284  39.501  1.00  0.00    -0.062 A 
HETATM   10  C   UNL     1      38.676  53.571  39.574  1.00  0.00     0.048 C 
HETATM   11  C   UNL     1      36.726  51.990  39.748  1.00  0.00     0.007 A 
HETATM   12  C   UNL     1      35.358  51.718  39.696  1.00  0.00     0.017 A 
ENDBRANCH   3   6
ENDBRANCH   1   2
BRANCH   1  13
HETATM   13  N   UNL     1      30.810  51.092  39.759  1.00  0.00    -0.342 N 
HETATM   14  H   UNL     1      31.758  50.710  39.654  1.00  0.00     0.163 HD
BRANCH  13  15
HETATM   15  C   UNL     1      29.804  50.164  39.761  1.00  0.00     0.089 A 
HETATM   16  S   UNL     1      28.387  50.342  38.809  1.00  0.00    -0.074 SA
HETATM   17  C   UNL     1      27.783  48.830  39.248  1.00  0.00     0.018 A 
HETATM   18  C   UNL     1      28.628  48.154  40.100  1.00  0.00    -0.023 A 
HETATM   19  C   UNL     1      26.493  48.313  38.708  1.00  0.00     0.281 C 
HETATM   20  C   UNL     1      28.275  46.779  40.605  1.00  0.00     0.068 C 
HETATM   21  C   UNL     1      29.808  48.936  40.430  1.00  0.00     0.080 A 
HETATM   22  C   UNL     1      27.134  46.135  39.794  1.00  0.00     0.239 C 
HETATM   23  N   UNL     1      26.001  47.113  39.509  1.00  0.00    -0.070 N 
HETATM   24  H   UNL     1      25.337  46.623  38.897  1.00  0.00     0.279 HD
HETATM   25  C   UNL     1      25.227  47.509  40.732  1.00  0.00     0.270 C 
BRANCH  21  26
HETATM   26  C   UNL     1      30.855  48.482  41.363  1.00  0.00     0.296 C 
HETATM   27  O   UNL     1      30.662  48.385  42.569  1.00  0.00    -0.259 OA
BRANCH  26  28
HETATM   28  O   UNL     1      32.056  48.237  40.760  1.00  0.00    -0.322 OA
HETATM   29  C   UNL     1      33.167  48.912  41.358  1.00  0.00     0.213 C 
ENDBRANCH  26  28
ENDBRANCH  21  26
ENDBRANCH  13  15
ENDBRANCH   1  13
BRANCH   1  30
HETATM   30  C   UNL     1      30.363  52.078  42.138  1.00  0.00     0.441 C 
HETATM   31  F   UNL     1      30.297  53.243  42.835  1.00  0.00    -0.166 F 
HETATM   32  F   UNL     1      29.141  51.513  42.211  1.00  0.00    -0.166 F 
HETATM   33  F   UNL     1      31.199  51.263  42.837  1.00  0.00    -0.166 F 
ENDBRANCH   1  30
BRANCH   1  34
HETATM   34  C   UNL     1      29.906  53.390  40.139  1.00  0.00     0.441 C 
HETATM   35  F   UNL     1      28.684  53.396  40.697  1.00  0.00    -0.166 F 
HETATM   36  F   UNL     1      30.448  54.623  40.383  1.00  0.00    -0.166 F 
HETATM   37  F   UNL     1      29.755  53.311  38.797  1.00  0.00    -0.166 F 
ENDBRANCH   1  34
TORSDOF 8
ENDMDL
MODEL 8
REMARK VINA RESULT:      -7.8      8.855     12.058
REMARK  8 active torsions:
REMARK  status: ('A' for Active; 'I' for Inactive)
REMARK    1  A    between atoms: C_5  and  C_6 
REMARK       I    between atoms: C_6  and  N_7 
REMARK    2  A    between atoms: N_7  and  C_8 
REMARK    3  A    between atoms: C_8  and  N_9 
REMARK    4  A    between atoms: C_8  and  C_25 
REMARK    5  A    between atoms: C_8  and  C_29 
REMARK    6  A    between atoms: N_9  and  C_10 
REMARK    7  A    between atoms: C_20  and  C_21 
REMARK    8  A    between atoms: C_21  and  O_22 
ROOT
HETATM    1  C   UNL     1      19.301  50.381  48.830  1.00  0.00     0.307 C 
ENDROOT
BRANCH   1   2
HETATM    2  N   UNL     1      20.774  50.291  48.768  1.00  0.00    -0.315 N 
HETATM    3  C   UNL     1      21.425  49.108  48.543  1.00  0.00     0.254 C 
HETATM    4  O   UNL     1      20.837  48.064  48.312  1.00  0.00    -0.268 OA
HETATM    5  H   UNL     1      21.284  51.047  49.199  1.00  0.00     0.165 HD
BRANCH   3   6
HETATM    6  C   UNL     1      22.903  49.162  48.626  1.00  0.00     0.032 A 
HETATM    7  C   UNL     1      23.631  50.120  47.910  1.00  0.00     0.017 A 
HETATM    8  C   UNL     1      25.024  50.146  48.000  1.00  0.00     0.007 A 
HETATM    9  C   UNL     1      25.700  49.212  48.795  1.00  0.00    -0.062 A 
HETATM   10  C   UNL     1      27.196  49.253  48.915  1.00  0.00     0.048 C 
HETATM   11  C   UNL     1      24.962  48.261  49.515  1.00  0.00     0.007 A 
HETATM   12  C   UNL     1      23.570  48.226  49.421  1.00  0.00     0.017 A 
ENDBRANCH   3   6
ENDBRANCH   1   2
BRANCH   1  13
HETATM   13  N   UNL     1      18.932  49.869  47.440  1.00  0.00    -0.342 N 
HETATM   14  H   UNL     1      19.153  48.867  47.403  1.00  0.00     0.163 HD
BRANCH  13  15
HETATM   15  C   UNL     1      17.826  50.250  46.729  1.00  0.00     0.089 A 
HETATM   16  S   UNL     1      17.847  51.571  45.633  1.00  0.00    -0.074 SA
HETATM   17  C   UNL     1      16.265  51.298  45.119  1.00  0.00     0.018 A 
HETATM   18  C   UNL     1      15.691  50.210  45.741  1.00  0.00    -0.023 A 
HETATM   19  C   UNL     1      15.622  52.143  44.073  1.00  0.00     0.281 C 
HETATM   20  C   UNL     1      14.279  49.793  45.416  1.00  0.00     0.068 C 
HETATM   21  C   UNL     1      16.589  49.600  46.708  1.00  0.00     0.080 A 
HETATM   22  C   UNL     1      13.761  50.450  44.122  1.00  0.00     0.239 C 
HETATM   23  N   UNL     1      14.113  51.930  44.041  1.00  0.00    -0.070 N 
HETATM   24  H   UNL     1      13.805  52.255  43.117  1.00  0.00     0.279 HD
HETATM   25  C   UNL     1      13.385  52.777  45.044  1.00  0.00     0.270 C 
BRANCH  21  26
HETATM   26  C   UNL     1      16.218  48.454  47.558  1.00  0.00     0.296 C 
HETATM   27  O   UNL     1      15.326  48.520  48.395  1.00  0.00    -0.259 OA
BRANCH  26  28
HETATM   28  O   UNL     1      16.992  47.348  47.352  1.00  0.00    -0.322 OA
HETATM   29  C   UNL     1      16.886  46.786  46.040  1.00  0.00     0.213 C 
ENDBRANCH  26  28
ENDBRANCH  21  26
ENDBRANCH  13  15
ENDBRANCH   1  13
BRANCH   1  30
HETATM   30  C   UNL     1      18.596  49.665  50.024  1.00  0.00     0.441 C 
HETATM   31  F   UNL     1      19.336  49.735  51.162  1.00  0.00    -0.166 F 
HETATM   32  F   UNL     1      17.374  50.149  50.326  1.00  0.00    -0.166 F 
HETATM   33  F   UNL     1      18.423  48.341  49.763  1.00  0.00    -0.166 F 
ENDBRANCH   1  30
BRANCH   1  34
HETATM   34  C   UNL     1      18.768  51.846  48.958  1.00  0.00     0.441 C 
HETATM   35  F   UNL     1      17.454  52.004  48.728  1.00  0.00    -0.166 F 
HETATM   36  F   UNL     1      18.989  52.275  50.239  1.00  0.00    -0.166 F 
HETATM   37  F   UNL     1      19.441  52.705  48.158  1.00  0.00    -0.166 F 
ENDBRANCH   1  34
TORSDOF 8
ENDMDL
MODEL 9
REMARK VINA RESULT:      -7.7     12.806     14.371
REMARK  8 active torsions:
REMARK  status: ('A' for Active; 'I' for Inactive)
REMARK    1  A    between atoms: C_5  and  C_6 
REMARK       I    between atoms: C_6  and  N_7 
REMARK    2  A    between atoms: N_7  and  C_8 
REMARK    3  A    between atoms: C_8  and  N_9 
REMARK    4  A    between atoms: C_8  and  C_25 
REMARK    5  A    between atoms: C_8  and  C_29 
REMARK    6  A    between atoms: N_9  and  C_10 
REMARK    7  A    between atoms: C_20  and  C_21 
REMARK    8  A    between atoms: C_21  and  O_22 
ROOT
HETATM    1  C   UNL     1      32.228  50.609  41.309  1.00  0.00     0.307 C 
ENDROOT
BRANCH   1   2
HETATM    2  N   UNL     1      33.666  50.939  41.283  1.00  0.00    -0.315 N 
HETATM    3  C   UNL     1      34.636  49.976  41.192  1.00  0.00     0.254 C 
HETATM    4  O   UNL     1      34.379  48.791  41.058  1.00  0.00    -0.268 OA
HETATM    5  H   UNL     1      33.921  51.846  41.643  1.00  0.00     0.165 HD
BRANCH   3   6
HETATM    6  C   UNL     1      36.033  50.459  41.295  1.00  0.00     0.032 A 
HETATM    7  C   UNL     1      36.744  50.859  40.157  1.00  0.00     0.017 A 
HETATM    8  C   UNL     1      38.061  51.304  40.281  1.00  0.00     0.007 A 
HETATM    9  C   UNL     1      38.681  51.344  41.536  1.00  0.00    -0.062 A 
HETATM   10  C   UNL     1      40.089  51.846  41.676  1.00  0.00     0.048 C 
HETATM   11  C   UNL     1      37.958  50.948  42.671  1.00  0.00     0.007 A 
HETATM   12  C   UNL     1      36.644  50.494  42.551  1.00  0.00     0.017 A 
ENDBRANCH   3   6
ENDBRANCH   1   2
BRANCH   1  13
HETATM   13  N   UNL     1      32.073  49.926  39.952  1.00  0.00    -0.342 N 
HETATM   14  H   UNL     1      33.008  49.645  39.631  1.00  0.00     0.163 HD
BRANCH  13  15
HETATM   15  C   UNL     1      31.059  49.074  39.611  1.00  0.00     0.089 A 
HETATM   16  S   UNL     1      31.000  47.448  40.158  1.00  0.00    -0.074 SA
HETATM   17  C   UNL     1      29.491  47.164  39.462  1.00  0.00     0.018 A 
HETATM   18  C   UNL     1      28.991  48.276  38.819  1.00  0.00    -0.023 A 
HETATM   19  C   UNL     1      28.800  45.850  39.595  1.00  0.00     0.281 C 
HETATM   20  C   UNL     1      27.648  48.232  38.136  1.00  0.00     0.068 C 
HETATM   21  C   UNL     1      29.913  49.398  38.878  1.00  0.00     0.080 A 
HETATM   22  C   UNL     1      26.818  47.007  38.562  1.00  0.00     0.239 C 
HETATM   23  N   UNL     1      27.648  45.730  38.604  1.00  0.00    -0.070 N 
HETATM   24  H   UNL     1      27.035  44.994  38.977  1.00  0.00     0.279 HD
HETATM   25  C   UNL     1      28.092  45.256  37.251  1.00  0.00     0.270 C 
BRANCH  21  26
HETATM   26  C   UNL     1      29.661  50.698  38.228  1.00  0.00     0.296 C 
HETATM   27  O   UNL     1      30.384  51.139  37.343  1.00  0.00    -0.259 OA
BRANCH  26  28
HETATM   28  O   UNL     1      28.588  51.367  38.743  1.00  0.00    -0.322 OA
HETATM   29  C   UNL     1      28.570  52.768  38.454  1.00  0.00     0.213 C 
ENDBRANCH  26  28
ENDBRANCH  21  26
ENDBRANCH  13  15
ENDBRANCH   1  13
BRANCH   1  30
HETATM   30  C   UNL     1      31.708  49.798  42.537  1.00  0.00     0.441 C 
HETATM   31  F   UNL     1      30.351  49.708  42.544  1.00  0.00    -0.166 F 
HETATM   32  F   UNL     1      32.180  48.538  42.618  1.00  0.00    -0.166 F 
HETATM   33  F   UNL     1      32.055  50.407  43.704  1.00  0.00    -0.166 F 
ENDBRANCH   1  30
BRANCH   1  34
HETATM   34  C   UNL     1      31.296  51.866  41.321  1.00  0.00     0.441 C 
HETATM   35  F   UNL     1      31.540  52.755  42.298  1.00  0.00    -0.166 F 
HETATM   36  F   UNL     1      31.461  52.536  40.140  1.00  0.00    -0.166 F 
HETATM   37  F   UNL     1      29.987  51.529  41.377  1.00  0.00    -0.166 F 
ENDBRANCH   1  34
TORSDOF 8
ENDMDL
MODEL 10
REMARK VINA RESULT:      -7.7     12.267     14.002
REMARK  8 active torsions:
REMARK  status: ('A' for Active; 'I' for Inactive)
REMARK    1  A    between atoms: C_5  and  C_6 
REMARK       I    between atoms: C_6  and  N_7 
REMARK    2  A    between atoms: N_7  and  C_8 
REMARK    3  A    between atoms: C_8  and  N_9 
REMARK    4  A    between atoms: C_8  and  C_25 
REMARK    5  A    between atoms: C_8  and  C_29 
REMARK    6  A    between atoms: N_9  and  C_10 
REMARK    7  A    between atoms: C_20  and  C_21 
REMARK    8  A    between atoms: C_21  and  O_22 
ROOT
HETATM    1  C   UNL     1      29.257  51.490  39.712  1.00  0.00     0.307 C 
ENDROOT
BRANCH   1   2
HETATM    2  N   UNL     1      30.568  51.639  40.375  1.00  0.00    -0.315 N 
HETATM    3  C   UNL     1      31.725  51.159  39.822  1.00  0.00     0.254 C 
HETATM    4  O   UNL     1      31.764  50.639  38.719  1.00  0.00    -0.268 OA
HETATM    5  H   UNL     1      30.547  51.818  41.367  1.00  0.00     0.165 HD
BRANCH   3   6
HETATM    6  C   UNL     1      32.939  51.283  40.663  1.00  0.00     0.032 A 
HETATM    7  C   UNL     1      32.871  51.131  42.053  1.00  0.00     0.017 A 
HETATM    8  C   UNL     1      34.028  51.260  42.824  1.00  0.00     0.007 A 
HETATM    9  C   UNL     1      35.256  51.551  42.216  1.00  0.00    -0.062 A 
HETATM   10  C   UNL     1      36.506  51.665  43.039  1.00  0.00     0.048 C 
HETATM   11  C   UNL     1      35.315  51.695  40.822  1.00  0.00     0.007 A 
HETATM   12  C   UNL     1      34.159  51.575  40.049  1.00  0.00     0.017 A 
ENDBRANCH   3   6
ENDBRANCH   1   2
BRANCH   1  13
HETATM   13  N   UNL     1      29.497  50.219  38.901  1.00  0.00    -0.342 N 
HETATM   14  H   UNL     1      30.512  50.086  38.813  1.00  0.00     0.163 HD
BRANCH  13  15
HETATM   15  C   UNL     1      28.765  49.068  39.008  1.00  0.00     0.089 A 
HETATM   16  S   UNL     1      27.361  48.780  38.063  1.00  0.00    -0.074 SA
HETATM   17  C   UNL     1      27.162  47.214  38.655  1.00  0.00     0.018 A 
HETATM   18  C   UNL     1      28.144  46.865  39.558  1.00  0.00    -0.023 A 
HETATM   19  C   UNL     1      26.056  46.331  38.187  1.00  0.00     0.281 C 
HETATM   20  C   UNL     1      28.151  45.502  40.199  1.00  0.00     0.068 C 
HETATM   21  C   UNL     1      29.078  47.954  39.793  1.00  0.00     0.080 A 
HETATM   22  C   UNL     1      27.225  44.510  39.471  1.00  0.00     0.239 C 
HETATM   23  N   UNL     1      25.881  45.129  39.108  1.00  0.00    -0.070 N 
HETATM   24  H   UNL     1      25.374  44.427  38.556  1.00  0.00     0.279 HD
HETATM   25  C   UNL     1      25.017  45.429  40.297  1.00  0.00     0.270 C 
BRANCH  21  26
HETATM   26  C   UNL     1      30.196  47.879  40.752  1.00  0.00     0.296 C 
HETATM   27  O   UNL     1      30.094  48.268  41.909  1.00  0.00    -0.259 OA
BRANCH  26  28
HETATM   28  O   UNL     1      31.349  47.389  40.209  1.00  0.00    -0.322 OA
HETATM   29  C   UNL     1      32.518  47.612  41.003  1.00  0.00     0.213 C 
ENDBRANCH  26  28
ENDBRANCH  21  26
ENDBRANCH  13  15
ENDBRANCH   1  13
BRANCH   1  30
HETATM   30  C   UNL     1      27.995  51.479  40.631  1.00  0.00     0.441 C 
HETATM   31  F   UNL     1      27.731  52.711  41.141  1.00  0.00    -0.166 F 
HETATM   32  F   UNL     1      26.865  51.060  40.026  1.00  0.00    -0.166 F 
HETATM   33  F   UNL     1      28.178  50.656  41.699  1.00  0.00    -0.166 F 
ENDBRANCH   1  30
BRANCH   1  34
HETATM   34  C   UNL     1      28.928  52.644  38.708  1.00  0.00     0.441 C 
HETATM   35  F   UNL     1      29.143  53.888  39.168  1.00  0.00    -0.166 F 
HETATM   36  F   UNL     1      29.725  52.497  37.606  1.00  0.00    -0.166 F 
HETATM   37  F   UNL     1      27.654  52.578  38.256  1.00  0.00    -0.166 F 
ENDBRANCH   1  34
TORSDOF 8
ENDMDL
