MODEL 1
REMARK VINA RESULT:      -9.3      0.000      0.000
REMARK  6 active torsions:
REMARK  status: ('A' for Active; 'I' for Inactive)
REMARK    1  A    between atoms: N_3  and  C_4 
REMARK    2  A    between atoms: C_12  and  C_13 
REMARK       I    between atoms: C_13  and  N_14 
REMARK    3  A    between atoms: N_14  and  N_15 
REMARK       I    between atoms: N_15  and  C_16 
REMARK    4  A    between atoms: C_16  and  C_17 
REMARK    5  A    between atoms: C_17  and  C_18 
REMARK    6  A    between atoms: C_21  and  O_22 
ROOT
HETATM    1  C   UNL     1      24.905  47.695  49.878  1.00  0.00     0.272 C 
HETATM    2  N   UNL     1      23.529  47.778  49.924  1.00  0.00    -0.263 N 
HETATM    3  O   UNL     1      25.601  48.669  49.590  1.00  0.00    -0.266 OA
HETATM    4  H   UNL     1      22.943  47.048  50.318  1.00  0.00     0.190 HD
ENDROOT
BRANCH   1   5
HETATM    5  C   UNL     1      25.478  46.403  50.251  1.00  0.00     0.058 A 
HETATM    6  C   UNL     1      26.136  46.035  51.425  1.00  0.00     0.029 A 
HETATM    7  N   UNL     1      26.539  44.698  51.307  1.00  0.00    -0.319 N 
HETATM    8  C   UNL     1      26.294  46.820  52.692  1.00  0.00     0.070 C 
HETATM    9  C   UNL     1      26.053  44.207  50.100  1.00  0.00     0.014 A 
HETATM   10  C   UNL     1      26.312  42.840  49.560  1.00  0.00     0.068 C 
HETATM   11  C   UNL     1      25.387  45.230  49.461  1.00  0.00     0.044 A 
BRANCH   7  12
HETATM   12  C   UNL     1      27.318  43.969  52.255  1.00  0.00     0.039 A 
HETATM   13  C   UNL     1      28.677  43.730  52.011  1.00  0.00     0.030 A 
HETATM   14  C   UNL     1      29.437  43.002  52.930  1.00  0.00     0.002 A 
HETATM   15  C   UNL     1      28.846  42.512  54.094  1.00  0.00     0.000 A 
HETATM   16  C   UNL     1      27.496  42.750  54.344  1.00  0.00     0.002 A 
HETATM   17  C   UNL     1      26.731  43.477  53.428  1.00  0.00     0.030 A 
ENDBRANCH   7  12
ENDBRANCH   1   5
BRANCH   2  18
HETATM   18  N   UNL     1      22.926  49.017  49.678  1.00  0.00    -0.267 N 
HETATM   19  C   UNL     1      22.351  49.239  48.444  1.00  0.00     0.240 C 
HETATM   20  O   UNL     1      22.246  48.355  47.595  1.00  0.00    -0.272 OA
HETATM   21  H   UNL     1      23.075  49.740  50.380  1.00  0.00     0.190 HD
BRANCH  19  22
HETATM   22  C   UNL     1      21.882  50.667  48.225  1.00  0.00     0.143 C 
BRANCH  22  23
HETATM   23  C   UNL     1      20.487  50.937  48.732  1.00  0.00    -0.049 A 
HETATM   24  C   UNL     1      19.830  50.007  49.553  1.00  0.00     0.010 A 
HETATM   25  C   UNL     1      18.556  50.280  50.058  1.00  0.00     0.037 A 
HETATM   26  C   UNL     1      17.935  51.482  49.739  1.00  0.00     0.065 A 
HETATM   27  C   UNL     1      18.564  52.411  48.920  1.00  0.00     0.037 A 
HETATM   28  C   UNL     1      19.837  52.140  48.418  1.00  0.00     0.010 A 
BRANCH  26  29
HETATM   29  O   UNL     1      16.697  51.794  50.220  1.00  0.00    -0.361 OA
HETATM   30  H   UNL     1      16.415  51.092  50.829  1.00  0.00     0.217 HD
ENDBRANCH  26  29
ENDBRANCH  22  23
ENDBRANCH  19  22
ENDBRANCH   2  18
TORSDOF 6
ENDMDL
MODEL 2
REMARK VINA RESULT:      -9.1      1.174      2.299
REMARK  6 active torsions:
REMARK  status: ('A' for Active; 'I' for Inactive)
REMARK    1  A    between atoms: N_3  and  C_4 
REMARK    2  A    between atoms: C_12  and  C_13 
REMARK       I    between atoms: C_13  and  N_14 
REMARK    3  A    between atoms: N_14  and  N_15 
REMARK       I    between atoms: N_15  and  C_16 
REMARK    4  A    between atoms: C_16  and  C_17 
REMARK    5  A    between atoms: C_17  and  C_18 
REMARK    6  A    between atoms: C_21  and  O_22 
ROOT
HETATM    1  C   UNL     1      25.118  47.564  50.476  1.00  0.00     0.272 C 
HETATM    2  N   UNL     1      23.750  47.421  50.374  1.00  0.00    -0.263 N 
HETATM    3  O   UNL     1      25.719  48.459  49.880  1.00  0.00    -0.266 OA
HETATM    4  H   UNL     1      23.212  46.807  50.979  1.00  0.00     0.190 HD
ENDROOT
BRANCH   1   5
HETATM    5  C   UNL     1      25.791  46.632  51.378  1.00  0.00     0.058 A 
HETATM    6  C   UNL     1      26.542  45.496  51.073  1.00  0.00     0.029 A 
HETATM    7  N   UNL     1      26.956  44.903  52.273  1.00  0.00    -0.319 N 
HETATM    8  C   UNL     1      26.998  45.011  49.731  1.00  0.00     0.070 C 
HETATM    9  C   UNL     1      26.541  45.718  53.322  1.00  0.00     0.014 A 
HETATM   10  C   UNL     1      26.726  45.417  54.771  1.00  0.00     0.068 C 
HETATM   11  C   UNL     1      25.852  46.784  52.786  1.00  0.00     0.044 A 
BRANCH   7  12
HETATM   12  C   UNL     1      27.671  43.674  52.400  1.00  0.00     0.039 A 
HETATM   13  C   UNL     1      27.007  42.454  52.219  1.00  0.00     0.030 A 
HETATM   14  C   UNL     1      27.702  41.249  52.360  1.00  0.00     0.002 A 
HETATM   15  C   UNL     1      29.059  41.258  52.679  1.00  0.00     0.000 A 
HETATM   16  C   UNL     1      29.725  42.470  52.857  1.00  0.00     0.002 A 
HETATM   17  C   UNL     1      29.035  43.676  52.718  1.00  0.00     0.030 A 
ENDBRANCH   7  12
ENDBRANCH   1   5
BRANCH   2  18
HETATM   18  N   UNL     1      23.036  48.348  49.607  1.00  0.00    -0.267 N 
HETATM   19  C   UNL     1      22.065  47.885  48.744  1.00  0.00     0.240 C 
HETATM   20  O   UNL     1      21.724  46.703  48.706  1.00  0.00    -0.272 OA
HETATM   21  H   UNL     1      23.377  49.308  49.626  1.00  0.00     0.190 HD
BRANCH  19  22
HETATM   22  C   UNL     1      21.477  48.953  47.840  1.00  0.00     0.143 C 
BRANCH  22  23
HETATM   23  C   UNL     1      20.511  49.881  48.537  1.00  0.00    -0.049 A 
HETATM   24  C   UNL     1      20.437  51.237  48.183  1.00  0.00     0.010 A 
HETATM   25  C   UNL     1      19.512  52.083  48.799  1.00  0.00     0.037 A 
HETATM   26  C   UNL     1      18.660  51.575  49.773  1.00  0.00     0.065 A 
HETATM   27  C   UNL     1      18.725  50.238  50.145  1.00  0.00     0.037 A 
HETATM   28  C   UNL     1      19.647  49.392  49.528  1.00  0.00     0.010 A 
BRANCH  26  29
HETATM   29  O   UNL     1      17.734  52.363  50.391  1.00  0.00    -0.361 OA
HETATM   30  H   UNL     1      16.898  51.872  50.448  1.00  0.00     0.217 HD
ENDBRANCH  26  29
ENDBRANCH  22  23
ENDBRANCH  19  22
ENDBRANCH   2  18
TORSDOF 6
ENDMDL
MODEL 3
REMARK VINA RESULT:      -8.7      2.429      9.694
REMARK  6 active torsions:
REMARK  status: ('A' for Active; 'I' for Inactive)
REMARK    1  A    between atoms: N_3  and  C_4 
REMARK    2  A    between atoms: C_12  and  C_13 
REMARK       I    between atoms: C_13  and  N_14 
REMARK    3  A    between atoms: N_14  and  N_15 
REMARK       I    between atoms: N_15  and  C_16 
REMARK    4  A    between atoms: C_16  and  C_17 
REMARK    5  A    between atoms: C_17  and  C_18 
REMARK    6  A    between atoms: C_21  and  O_22 
ROOT
HETATM    1  C   UNL     1      23.834  47.709  49.464  1.00  0.00     0.272 C 
HETATM    2  N   UNL     1      23.864  46.458  50.044  1.00  0.00    -0.263 N 
HETATM    3  O   UNL     1      24.867  48.336  49.229  1.00  0.00    -0.266 OA
HETATM    4  H   UNL     1      23.050  45.852  50.094  1.00  0.00     0.190 HD
ENDROOT
BRANCH   1   5
HETATM    5  C   UNL     1      22.511  48.208  49.094  1.00  0.00     0.058 A 
HETATM    6  C   UNL     1      21.941  49.459  49.333  1.00  0.00     0.029 A 
HETATM    7  N   UNL     1      20.637  49.457  48.821  1.00  0.00    -0.319 N 
HETATM    8  C   UNL     1      22.590  50.688  49.893  1.00  0.00     0.070 C 
HETATM    9  C   UNL     1      20.425  48.238  48.185  1.00  0.00     0.014 A 
HETATM   10  C   UNL     1      19.143  47.805  47.560  1.00  0.00     0.068 C 
HETATM   11  C   UNL     1      21.568  47.481  48.325  1.00  0.00     0.044 A 
BRANCH   7  12
HETATM   12  C   UNL     1      19.686  50.516  48.939  1.00  0.00     0.039 A 
HETATM   13  C   UNL     1      18.681  50.451  49.912  1.00  0.00     0.030 A 
HETATM   14  C   UNL     1      17.740  51.479  50.018  1.00  0.00     0.002 A 
HETATM   15  C   UNL     1      17.800  52.574  49.156  1.00  0.00     0.000 A 
HETATM   16  C   UNL     1      18.801  52.645  48.189  1.00  0.00     0.002 A 
HETATM   17  C   UNL     1      19.744  51.620  48.078  1.00  0.00     0.030 A 
ENDBRANCH   7  12
ENDBRANCH   1   5
BRANCH   2  18
HETATM   18  N   UNL     1      25.108  45.883  50.326  1.00  0.00    -0.267 N 
HETATM   19  C   UNL     1      25.195  44.965  51.352  1.00  0.00     0.240 C 
HETATM   20  O   UNL     1      24.203  44.548  51.952  1.00  0.00    -0.272 OA
HETATM   21  H   UNL     1      25.912  46.285  49.847  1.00  0.00     0.190 HD
BRANCH  19  22
HETATM   22  C   UNL     1      26.613  44.536  51.684  1.00  0.00     0.143 C 
BRANCH  22  23
HETATM   23  C   UNL     1      27.096  45.015  53.031  1.00  0.00    -0.049 A 
HETATM   24  C   UNL     1      28.022  44.262  53.770  1.00  0.00     0.010 A 
HETATM   25  C   UNL     1      28.502  44.729  54.996  1.00  0.00     0.037 A 
HETATM   26  C   UNL     1      28.054  45.951  55.487  1.00  0.00     0.065 A 
HETATM   27  C   UNL     1      27.131  46.706  54.776  1.00  0.00     0.037 A 
HETATM   28  C   UNL     1      26.653  46.241  53.550  1.00  0.00     0.010 A 
BRANCH  26  29
HETATM   29  O   UNL     1      28.506  46.450  56.673  1.00  0.00    -0.361 OA
HETATM   30  H   UNL     1      27.851  47.080  57.014  1.00  0.00     0.217 HD
ENDBRANCH  26  29
ENDBRANCH  22  23
ENDBRANCH  19  22
ENDBRANCH   2  18
TORSDOF 6
ENDMDL
MODEL 4
REMARK VINA RESULT:      -8.4      2.062      2.835
REMARK  6 active torsions:
REMARK  status: ('A' for Active; 'I' for Inactive)
REMARK    1  A    between atoms: N_3  and  C_4 
REMARK    2  A    between atoms: C_12  and  C_13 
REMARK       I    between atoms: C_13  and  N_14 
REMARK    3  A    between atoms: N_14  and  N_15 
REMARK       I    between atoms: N_15  and  C_16 
REMARK    4  A    between atoms: C_16  and  C_17 
REMARK    5  A    between atoms: C_17  and  C_18 
REMARK    6  A    between atoms: C_21  and  O_22 
ROOT
HETATM    1  C   UNL     1      25.267  45.093  50.353  1.00  0.00     0.272 C 
HETATM    2  N   UNL     1      24.189  45.906  50.633  1.00  0.00    -0.263 N 
HETATM    3  O   UNL     1      25.577  44.808  49.196  1.00  0.00    -0.266 OA
HETATM    4  H   UNL     1      24.013  46.292  51.556  1.00  0.00     0.190 HD
ENDROOT
BRANCH   1   5
HETATM    5  C   UNL     1      26.047  44.648  51.507  1.00  0.00     0.058 A 
HETATM    6  C   UNL     1      26.645  45.406  52.514  1.00  0.00     0.029 A 
HETATM    7  N   UNL     1      27.316  44.537  53.384  1.00  0.00    -0.319 N 
HETATM    8  C   UNL     1      26.515  46.876  52.777  1.00  0.00     0.070 C 
HETATM    9  C   UNL     1      27.061  43.233  52.971  1.00  0.00     0.014 A 
HETATM   10  C   UNL     1      27.640  42.006  53.591  1.00  0.00     0.068 C 
HETATM   11  C   UNL     1      26.271  43.290  51.844  1.00  0.00     0.044 A 
BRANCH   7  12
HETATM   12  C   UNL     1      28.127  44.921  54.495  1.00  0.00     0.039 A 
HETATM   13  C   UNL     1      27.653  45.861  55.418  1.00  0.00     0.030 A 
HETATM   14  C   UNL     1      28.452  46.250  56.496  1.00  0.00     0.002 A 
HETATM   15  C   UNL     1      29.723  45.701  56.658  1.00  0.00     0.000 A 
HETATM   16  C   UNL     1      30.198  44.762  55.744  1.00  0.00     0.002 A 
HETATM   17  C   UNL     1      29.404  44.370  54.664  1.00  0.00     0.030 A 
ENDBRANCH   7  12
ENDBRANCH   1   5
BRANCH   2  18
HETATM   18  N   UNL     1      23.466  46.448  49.565  1.00  0.00    -0.267 N 
HETATM   19  C   UNL     1      23.445  47.818  49.407  1.00  0.00     0.240 C 
HETATM   20  O   UNL     1      24.129  48.573  50.099  1.00  0.00    -0.272 OA
HETATM   21  H   UNL     1      22.874  45.802  49.045  1.00  0.00     0.190 HD
BRANCH  19  22
HETATM   22  C   UNL     1      22.495  48.305  48.328  1.00  0.00     0.143 C 
BRANCH  22  23
HETATM   23  C   UNL     1      21.276  49.016  48.862  1.00  0.00    -0.049 A 
HETATM   24  C   UNL     1      20.165  48.290  49.320  1.00  0.00     0.010 A 
HETATM   25  C   UNL     1      19.056  48.950  49.855  1.00  0.00     0.037 A 
HETATM   26  C   UNL     1      19.054  50.338  49.932  1.00  0.00     0.065 A 
HETATM   27  C   UNL     1      20.140  51.075  49.475  1.00  0.00     0.037 A 
HETATM   28  C   UNL     1      21.248  50.417  48.942  1.00  0.00     0.010 A 
BRANCH  26  29
HETATM   29  O   UNL     1      17.998  51.021  50.459  1.00  0.00    -0.361 OA
HETATM   30  H   UNL     1      17.719  51.699  49.823  1.00  0.00     0.217 HD
ENDBRANCH  26  29
ENDBRANCH  22  23
ENDBRANCH  19  22
ENDBRANCH   2  18
TORSDOF 6
ENDMDL
MODEL 5
REMARK VINA RESULT:      -8.2     12.601     15.392
REMARK  6 active torsions:
REMARK  status: ('A' for Active; 'I' for Inactive)
REMARK    1  A    between atoms: N_3  and  C_4 
REMARK    2  A    between atoms: C_12  and  C_13 
REMARK       I    between atoms: C_13  and  N_14 
REMARK    3  A    between atoms: N_14  and  N_15 
REMARK       I    between atoms: N_15  and  C_16 
REMARK    4  A    between atoms: C_16  and  C_17 
REMARK    5  A    between atoms: C_17  and  C_18 
REMARK    6  A    between atoms: C_21  and  O_22 
ROOT
HETATM    1  C   UNL     1      32.658  51.660  43.775  1.00  0.00     0.272 C 
HETATM    2  N   UNL     1      33.857  51.871  43.128  1.00  0.00    -0.263 N 
HETATM    3  O   UNL     1      32.583  51.646  45.005  1.00  0.00    -0.266 OA
HETATM    4  H   UNL     1      33.922  52.054  42.130  1.00  0.00     0.190 HD
ENDROOT
BRANCH   1   5
HETATM    5  C   UNL     1      31.485  51.516  42.915  1.00  0.00     0.058 A 
HETATM    6  C   UNL     1      30.909  50.357  42.394  1.00  0.00     0.029 A 
HETATM    7  N   UNL     1      29.820  50.724  41.594  1.00  0.00    -0.319 N 
HETATM    8  C   UNL     1      31.241  48.929  42.706  1.00  0.00     0.070 C 
HETATM    9  C   UNL     1      29.661  52.103  41.688  1.00  0.00     0.014 A 
HETATM   10  C   UNL     1      28.652  52.906  40.939  1.00  0.00     0.068 C 
HETATM   11  C   UNL     1      30.656  52.591  42.508  1.00  0.00     0.044 A 
BRANCH   7  12
HETATM   12  C   UNL     1      29.016  49.840  40.811  1.00  0.00     0.039 A 
HETATM   13  C   UNL     1      29.410  49.501  39.510  1.00  0.00     0.030 A 
HETATM   14  C   UNL     1      28.617  48.650  38.737  1.00  0.00     0.002 A 
HETATM   15  C   UNL     1      27.431  48.134  39.258  1.00  0.00     0.000 A 
HETATM   16  C   UNL     1      27.037  48.465  40.553  1.00  0.00     0.002 A 
HETATM   17  C   UNL     1      27.826  49.316  41.330  1.00  0.00     0.030 A 
ENDBRANCH   7  12
ENDBRANCH   1   5
BRANCH   2  18
HETATM   18  N   UNL     1      34.998  52.118  43.898  1.00  0.00    -0.267 N 
HETATM   19  C   UNL     1      36.236  52.023  43.297  1.00  0.00     0.240 C 
HETATM   20  O   UNL     1      36.371  51.841  42.087  1.00  0.00    -0.272 OA
HETATM   21  H   UNL     1      34.854  52.215  44.902  1.00  0.00     0.190 HD
BRANCH  19  22
HETATM   22  C   UNL     1      37.405  52.140  44.259  1.00  0.00     0.143 C 
BRANCH  22  23
HETATM   23  C   UNL     1      37.759  53.562  44.621  1.00  0.00    -0.049 A 
HETATM   24  C   UNL     1      37.985  53.926  45.957  1.00  0.00     0.010 A 
HETATM   25  C   UNL     1      38.357  55.233  46.285  1.00  0.00     0.037 A 
HETATM   26  C   UNL     1      38.499  56.179  45.276  1.00  0.00     0.065 A 
HETATM   27  C   UNL     1      38.269  55.840  43.948  1.00  0.00     0.037 A 
HETATM   28  C   UNL     1      37.901  54.535  43.621  1.00  0.00     0.010 A 
BRANCH  26  29
HETATM   29  O   UNL     1      38.872  57.462  45.550  1.00  0.00    -0.361 OA
HETATM   30  H   UNL     1      39.679  57.663  45.050  1.00  0.00     0.217 HD
ENDBRANCH  26  29
ENDBRANCH  22  23
ENDBRANCH  19  22
ENDBRANCH   2  18
TORSDOF 6
ENDMDL
MODEL 6
REMARK VINA RESULT:      -8.2      2.715     10.055
REMARK  6 active torsions:
REMARK  status: ('A' for Active; 'I' for Inactive)
REMARK    1  A    between atoms: N_3  and  C_4 
REMARK    2  A    between atoms: C_12  and  C_13 
REMARK       I    between atoms: C_13  and  N_14 
REMARK    3  A    between atoms: N_14  and  N_15 
REMARK       I    between atoms: N_15  and  C_16 
REMARK    4  A    between atoms: C_16  and  C_17 
REMARK    5  A    between atoms: C_17  and  C_18 
REMARK    6  A    between atoms: C_21  and  O_22 
ROOT
HETATM    1  C   UNL     1      22.894  49.535  48.341  1.00  0.00     0.272 C 
HETATM    2  N   UNL     1      23.212  48.813  49.472  1.00  0.00    -0.263 N 
HETATM    3  O   UNL     1      23.725  49.750  47.458  1.00  0.00    -0.266 OA
HETATM    4  H   UNL     1      22.513  48.479  50.129  1.00  0.00     0.190 HD
ENDROOT
BRANCH   1   5
HETATM    5  C   UNL     1      21.503  49.970  48.232  1.00  0.00     0.058 A 
HETATM    6  C   UNL     1      20.376  49.239  47.854  1.00  0.00     0.029 A 
HETATM    7  N   UNL     1      19.268  50.096  47.864  1.00  0.00    -0.319 N 
HETATM    8  C   UNL     1      20.258  47.765  47.612  1.00  0.00     0.070 C 
HETATM    9  C   UNL     1      19.687  51.337  48.334  1.00  0.00     0.014 A 
HETATM   10  C   UNL     1      18.828  52.551  48.441  1.00  0.00     0.068 C 
HETATM   11  C   UNL     1      21.040  51.263  48.582  1.00  0.00     0.044 A 
BRANCH   7  12
HETATM   12  C   UNL     1      17.942  49.760  47.455  1.00  0.00     0.039 A 
HETATM   13  C   UNL     1      17.573  49.872  46.109  1.00  0.00     0.030 A 
HETATM   14  C   UNL     1      16.271  49.559  45.709  1.00  0.00     0.002 A 
HETATM   15  C   UNL     1      15.335  49.132  46.651  1.00  0.00     0.000 A 
HETATM   16  C   UNL     1      15.698  49.016  47.991  1.00  0.00     0.002 A 
HETATM   17  C   UNL     1      16.998  49.328  48.396  1.00  0.00     0.030 A 
ENDBRANCH   7  12
ENDBRANCH   1   5
BRANCH   2  18
HETATM   18  N   UNL     1      24.501  48.281  49.585  1.00  0.00    -0.267 N 
HETATM   19  C   UNL     1      24.642  46.919  49.745  1.00  0.00     0.240 C 
HETATM   20  O   UNL     1      23.689  46.143  49.678  1.00  0.00    -0.272 OA
HETATM   21  H   UNL     1      25.260  48.953  49.687  1.00  0.00     0.190 HD
BRANCH  19  22
HETATM   22  C   UNL     1      26.065  46.471  50.030  1.00  0.00     0.143 C 
BRANCH  22  23
HETATM   23  C   UNL     1      26.183  45.516  51.193  1.00  0.00    -0.049 A 
HETATM   24  C   UNL     1      26.681  44.217  51.007  1.00  0.00     0.010 A 
HETATM   25  C   UNL     1      26.832  43.351  52.093  1.00  0.00     0.037 A 
HETATM   26  C   UNL     1      26.481  43.782  53.368  1.00  0.00     0.065 A 
HETATM   27  C   UNL     1      25.977  45.060  53.571  1.00  0.00     0.037 A 
HETATM   28  C   UNL     1      25.829  45.926  52.487  1.00  0.00     0.010 A 
BRANCH  26  29
HETATM   29  O   UNL     1      26.624  42.973  54.457  1.00  0.00    -0.361 OA
HETATM   30  H   UNL     1      26.448  43.496  55.256  1.00  0.00     0.217 HD
ENDBRANCH  26  29
ENDBRANCH  22  23
ENDBRANCH  19  22
ENDBRANCH   2  18
TORSDOF 6
ENDMDL
MODEL 7
REMARK VINA RESULT:      -8.1      2.399     10.206
REMARK  6 active torsions:
REMARK  status: ('A' for Active; 'I' for Inactive)
REMARK    1  A    between atoms: N_3  and  C_4 
REMARK    2  A    between atoms: C_12  and  C_13 
REMARK       I    between atoms: C_13  and  N_14 
REMARK    3  A    between atoms: N_14  and  N_15 
REMARK       I    between atoms: N_15  and  C_16 
REMARK    4  A    between atoms: C_16  and  C_17 
REMARK    5  A    between atoms: C_17  and  C_18 
REMARK    6  A    between atoms: C_21  and  O_22 
ROOT
HETATM    1  C   UNL     1      22.265  48.579  48.650  1.00  0.00     0.272 C 
HETATM    2  N   UNL     1      22.816  48.105  49.822  1.00  0.00    -0.263 N 
HETATM    3  O   UNL     1      22.948  48.752  47.640  1.00  0.00    -0.266 OA
HETATM    4  H   UNL     1      22.255  47.794  50.610  1.00  0.00     0.190 HD
ENDROOT
BRANCH   1   5
HETATM    5  C   UNL     1      20.820  48.800  48.668  1.00  0.00     0.058 A 
HETATM    6  C   UNL     1      20.109  49.997  48.576  1.00  0.00     0.029 A 
HETATM    7  N   UNL     1      18.742  49.710  48.677  1.00  0.00    -0.319 N 
HETATM    8  C   UNL     1      20.629  51.369  48.269  1.00  0.00     0.070 C 
HETATM    9  C   UNL     1      18.596  48.328  48.741  1.00  0.00     0.014 A 
HETATM   10  C   UNL     1      17.302  47.607  48.919  1.00  0.00     0.068 C 
HETATM   11  C   UNL     1      19.853  47.765  48.714  1.00  0.00     0.044 A 
BRANCH   7  12
HETATM   12  C   UNL     1      17.683  50.667  48.716  1.00  0.00     0.039 A 
HETATM   13  C   UNL     1      16.888  50.880  47.582  1.00  0.00     0.030 A 
HETATM   14  C   UNL     1      15.862  51.828  47.614  1.00  0.00     0.002 A 
HETATM   15  C   UNL     1      15.625  52.564  48.774  1.00  0.00     0.000 A 
HETATM   16  C   UNL     1      16.410  52.352  49.906  1.00  0.00     0.002 A 
HETATM   17  C   UNL     1      17.438  51.407  49.880  1.00  0.00     0.030 A 
ENDBRANCH   7  12
ENDBRANCH   1   5
BRANCH   2  18
HETATM   18  N   UNL     1      24.175  47.776  49.836  1.00  0.00    -0.267 N 
HETATM   19  C   UNL     1      24.537  46.451  49.709  1.00  0.00     0.240 C 
HETATM   20  O   UNL     1      23.718  45.563  49.470  1.00  0.00    -0.272 OA
HETATM   21  H   UNL     1      24.819  48.525  50.086  1.00  0.00     0.190 HD
BRANCH  19  22
HETATM   22  C   UNL     1      26.019  46.189  49.911  1.00  0.00     0.143 C 
BRANCH  22  23
HETATM   23  C   UNL     1      26.320  45.197  51.008  1.00  0.00    -0.049 A 
HETATM   24  C   UNL     1      27.324  44.230  50.845  1.00  0.00     0.010 A 
HETATM   25  C   UNL     1      27.631  43.342  51.879  1.00  0.00     0.037 A 
HETATM   26  C   UNL     1      26.932  43.418  53.078  1.00  0.00     0.065 A 
HETATM   27  C   UNL     1      25.927  44.361  53.256  1.00  0.00     0.037 A 
HETATM   28  C   UNL     1      25.622  45.249  52.224  1.00  0.00     0.010 A 
BRANCH  26  29
HETATM   29  O   UNL     1      27.208  42.579  54.117  1.00  0.00    -0.361 OA
HETATM   30  H   UNL     1      26.434  42.546  54.703  1.00  0.00     0.217 HD
ENDBRANCH  26  29
ENDBRANCH  22  23
ENDBRANCH  19  22
ENDBRANCH   2  18
TORSDOF 6
ENDMDL
MODEL 8
REMARK VINA RESULT:      -8.1      6.847      9.733
REMARK  6 active torsions:
REMARK  status: ('A' for Active; 'I' for Inactive)
REMARK    1  A    between atoms: N_3  and  C_4 
REMARK    2  A    between atoms: C_12  and  C_13 
REMARK       I    between atoms: C_13  and  N_14 
REMARK    3  A    between atoms: N_14  and  N_15 
REMARK       I    between atoms: N_15  and  C_16 
REMARK    4  A    between atoms: C_16  and  C_17 
REMARK    5  A    between atoms: C_17  and  C_18 
REMARK    6  A    between atoms: C_21  and  O_22 
ROOT
HETATM    1  C   UNL     1      26.988  43.476  50.354  1.00  0.00     0.272 C 
HETATM    2  N   UNL     1      27.049  43.337  51.724  1.00  0.00    -0.263 N 
HETATM    3  O   UNL     1      27.333  44.518  49.795  1.00  0.00    -0.266 OA
HETATM    4  H   UNL     1      26.934  42.444  52.195  1.00  0.00     0.190 HD
ENDROOT
BRANCH   1   5
HETATM    5  C   UNL     1      26.550  42.295  49.612  1.00  0.00     0.058 A 
HETATM    6  C   UNL     1      27.197  41.072  49.438  1.00  0.00     0.029 A 
HETATM    7  N   UNL     1      26.402  40.262  48.617  1.00  0.00    -0.319 N 
HETATM    8  C   UNL     1      28.446  40.575  50.100  1.00  0.00     0.070 C 
HETATM    9  C   UNL     1      25.219  40.947  48.352  1.00  0.00     0.014 A 
HETATM   10  C   UNL     1      24.125  40.462  47.462  1.00  0.00     0.068 C 
HETATM   11  C   UNL     1      25.291  42.175  48.973  1.00  0.00     0.044 A 
BRANCH   7  12
HETATM   12  C   UNL     1      26.746  38.966  48.127  1.00  0.00     0.039 A 
HETATM   13  C   UNL     1      27.391  38.831  46.892  1.00  0.00     0.030 A 
HETATM   14  C   UNL     1      27.714  37.562  46.404  1.00  0.00     0.002 A 
HETATM   15  C   UNL     1      27.396  36.425  47.147  1.00  0.00     0.000 A 
HETATM   16  C   UNL     1      26.757  36.555  48.379  1.00  0.00     0.002 A 
HETATM   17  C   UNL     1      26.432  37.821  48.871  1.00  0.00     0.030 A 
ENDBRANCH   7  12
ENDBRANCH   1   5
BRANCH   2  18
HETATM   18  N   UNL     1      27.559  44.397  52.482  1.00  0.00    -0.267 N 
HETATM   19  C   UNL     1      27.432  44.352  53.854  1.00  0.00     0.240 C 
HETATM   20  O   UNL     1      26.992  43.365  54.444  1.00  0.00    -0.272 OA
HETATM   21  H   UNL     1      27.870  45.217  51.961  1.00  0.00     0.190 HD
BRANCH  19  22
HETATM   22  C   UNL     1      27.861  45.625  54.561  1.00  0.00     0.143 C 
BRANCH  22  23
HETATM   23  C   UNL     1      28.901  45.408  55.634  1.00  0.00    -0.049 A 
HETATM   24  C   UNL     1      28.809  46.073  56.866  1.00  0.00     0.010 A 
HETATM   25  C   UNL     1      29.747  45.837  57.874  1.00  0.00     0.037 A 
HETATM   26  C   UNL     1      30.783  44.936  57.649  1.00  0.00     0.065 A 
HETATM   27  C   UNL     1      30.897  44.275  56.432  1.00  0.00     0.037 A 
HETATM   28  C   UNL     1      29.958  44.510  55.427  1.00  0.00     0.010 A 
BRANCH  26  29
HETATM   29  O   UNL     1      31.713  44.666  58.609  1.00  0.00    -0.361 OA
HETATM   30  H   UNL     1      32.597  44.751  58.216  1.00  0.00     0.217 HD
ENDBRANCH  26  29
ENDBRANCH  22  23
ENDBRANCH  19  22
ENDBRANCH   2  18
TORSDOF 6
ENDMDL
MODEL 9
REMARK VINA RESULT:      -7.9      2.276      3.050
REMARK  6 active torsions:
REMARK  status: ('A' for Active; 'I' for Inactive)
REMARK    1  A    between atoms: N_3  and  C_4 
REMARK    2  A    between atoms: C_12  and  C_13 
REMARK       I    between atoms: C_13  and  N_14 
REMARK    3  A    between atoms: N_14  and  N_15 
REMARK       I    between atoms: N_15  and  C_16 
REMARK    4  A    between atoms: C_16  and  C_17 
REMARK    5  A    between atoms: C_17  and  C_18 
REMARK    6  A    between atoms: C_21  and  O_22 
ROOT
HETATM    1  C   UNL     1      24.828  47.302  50.330  1.00  0.00     0.272 C 
HETATM    2  N   UNL     1      23.630  46.784  49.887  1.00  0.00    -0.263 N 
HETATM    3  O   UNL     1      25.213  48.422  49.991  1.00  0.00    -0.266 OA
HETATM    4  H   UNL     1      23.211  45.945  50.278  1.00  0.00     0.190 HD
ENDROOT
BRANCH   1   5
HETATM    5  C   UNL     1      25.576  46.466  51.268  1.00  0.00     0.058 A 
HETATM    6  C   UNL     1      26.393  45.365  51.012  1.00  0.00     0.029 A 
HETATM    7  N   UNL     1      26.864  44.868  52.234  1.00  0.00    -0.319 N 
HETATM    8  C   UNL     1      26.859  44.836  49.689  1.00  0.00     0.070 C 
HETATM    9  C   UNL     1      26.414  45.713  53.245  1.00  0.00     0.014 A 
HETATM   10  C   UNL     1      26.641  45.506  54.704  1.00  0.00     0.068 C 
HETATM   11  C   UNL     1      25.649  46.701  52.664  1.00  0.00     0.044 A 
BRANCH   7  12
HETATM   12  C   UNL     1      27.659  43.696  52.415  1.00  0.00     0.039 A 
HETATM   13  C   UNL     1      27.084  42.428  52.265  1.00  0.00     0.030 A 
HETATM   14  C   UNL     1      27.857  41.280  52.458  1.00  0.00     0.002 A 
HETATM   15  C   UNL     1      29.204  41.393  52.798  1.00  0.00     0.000 A 
HETATM   16  C   UNL     1      29.782  42.653  52.944  1.00  0.00     0.002 A 
HETATM   17  C   UNL     1      29.014  43.804  52.754  1.00  0.00     0.030 A 
ENDBRANCH   7  12
ENDBRANCH   1   5
BRANCH   2  18
HETATM   18  N   UNL     1      22.821  47.580  49.068  1.00  0.00    -0.267 N 
HETATM   19  C   UNL     1      21.783  46.983  48.384  1.00  0.00     0.240 C 
HETATM   20  O   UNL     1      21.471  45.804  48.552  1.00  0.00    -0.272 OA
HETATM   21  H   UNL     1      23.136  48.536  48.913  1.00  0.00     0.190 HD
BRANCH  19  22
HETATM   22  C   UNL     1      21.081  47.899  47.397  1.00  0.00     0.143 C 
BRANCH  22  23
HETATM   23  C   UNL     1      19.576  47.883  47.511  1.00  0.00    -0.049 A 
HETATM   24  C   UNL     1      18.795  47.169  46.590  1.00  0.00     0.010 A 
HETATM   25  C   UNL     1      17.405  47.119  46.724  1.00  0.00     0.037 A 
HETATM   26  C   UNL     1      16.793  47.786  47.780  1.00  0.00     0.065 A 
HETATM   27  C   UNL     1      17.549  48.507  48.696  1.00  0.00     0.037 A 
HETATM   28  C   UNL     1      18.937  48.555  48.563  1.00  0.00     0.010 A 
BRANCH  26  29
HETATM   29  O   UNL     1      15.441  47.753  47.955  1.00  0.00    -0.361 OA
HETATM   30  H   UNL     1      15.093  48.653  47.850  1.00  0.00     0.217 HD
ENDBRANCH  26  29
ENDBRANCH  22  23
ENDBRANCH  19  22
ENDBRANCH   2  18
TORSDOF 6
ENDMDL
MODEL 10
REMARK VINA RESULT:      -7.9      2.808      9.676
REMARK  6 active torsions:
REMARK  status: ('A' for Active; 'I' for Inactive)
REMARK    1  A    between atoms: N_3  and  C_4 
REMARK    2  A    between atoms: C_12  and  C_13 
REMARK       I    between atoms: C_13  and  N_14 
REMARK    3  A    between atoms: N_14  and  N_15 
REMARK       I    between atoms: N_15  and  C_16 
REMARK    4  A    between atoms: C_16  and  C_17 
REMARK    5  A    between atoms: C_17  and  C_18 
REMARK    6  A    between atoms: C_21  and  O_22 
ROOT
HETATM    1  C   UNL     1      23.802  48.319  49.490  1.00  0.00     0.272 C 
HETATM    2  N   UNL     1      23.841  47.172  50.254  1.00  0.00    -0.263 N 
HETATM    3  O   UNL     1      24.829  48.829  49.039  1.00  0.00    -0.266 OA
HETATM    4  H   UNL     1      23.009  46.640  50.495  1.00  0.00     0.190 HD
ENDROOT
BRANCH   1   5
HETATM    5  C   UNL     1      22.471  48.850  49.203  1.00  0.00     0.058 A 
HETATM    6  C   UNL     1      21.352  48.196  48.685  1.00  0.00     0.029 A 
HETATM    7  N   UNL     1      20.316  49.129  48.552  1.00  0.00    -0.319 N 
HETATM    8  C   UNL     1      21.162  46.731  48.434  1.00  0.00     0.070 C 
HETATM    9  C   UNL     1      20.758  50.342  49.069  1.00  0.00     0.014 A 
HETATM   10  C   UNL     1      19.981  51.615  49.063  1.00  0.00     0.068 C 
HETATM   11  C   UNL     1      22.060  50.177  49.489  1.00  0.00     0.044 A 
BRANCH   7  12
HETATM   12  C   UNL     1      19.032  48.882  47.977  1.00  0.00     0.039 A 
HETATM   13  C   UNL     1      18.843  49.020  46.596  1.00  0.00     0.030 A 
HETATM   14  C   UNL     1      17.584  48.795  46.035  1.00  0.00     0.002 A 
HETATM   15  C   UNL     1      16.511  48.431  46.847  1.00  0.00     0.000 A 
HETATM   16  C   UNL     1      16.695  48.288  48.221  1.00  0.00     0.002 A 
HETATM   17  C   UNL     1      17.951  48.513  48.788  1.00  0.00     0.030 A 
ENDBRANCH   7  12
ENDBRANCH   1   5
BRANCH   2  18
HETATM   18  N   UNL     1      25.078  46.559  50.476  1.00  0.00    -0.267 N 
HETATM   19  C   UNL     1      25.129  45.450  51.295  1.00  0.00     0.240 C 
HETATM   20  O   UNL     1      24.117  44.913  51.745  1.00  0.00    -0.272 OA
HETATM   21  H   UNL     1      25.898  47.056  50.132  1.00  0.00     0.190 HD
BRANCH  19  22
HETATM   22  C   UNL     1      26.536  44.971  51.605  1.00  0.00     0.143 C 
BRANCH  22  23
HETATM   23  C   UNL     1      27.014  45.334  52.990  1.00  0.00    -0.049 A 
HETATM   24  C   UNL     1      27.893  44.492  53.689  1.00  0.00     0.010 A 
HETATM   25  C   UNL     1      28.369  44.853  54.953  1.00  0.00     0.037 A 
HETATM   26  C   UNL     1      27.964  46.056  55.521  1.00  0.00     0.065 A 
HETATM   27  C   UNL     1      27.087  46.898  54.849  1.00  0.00     0.037 A 
HETATM   28  C   UNL     1      26.614  46.539  53.586  1.00  0.00     0.010 A 
BRANCH  26  29
HETATM   29  O   UNL     1      28.414  46.452  56.745  1.00  0.00    -0.361 OA
HETATM   30  H   UNL     1      29.041  45.788  57.075  1.00  0.00     0.217 HD
ENDBRANCH  26  29
ENDBRANCH  22  23
ENDBRANCH  19  22
ENDBRANCH   2  18
TORSDOF 6
ENDMDL
