MODEL 1
REMARK VINA RESULT:      -9.2      0.000      0.000
REMARK  7 active torsions:
REMARK  status: ('A' for Active; 'I' for Inactive)
REMARK    1  A    between atoms: C_10  and  C_11 
REMARK       I    between atoms: C_11  and  N_12 
REMARK    2  A    between atoms: N_12  and  C_13 
REMARK    3  A    between atoms: C_13  and  C_14 
REMARK    4  A    between atoms: C_14  and  O_15 
REMARK    5  A    between atoms: C_14  and  C_16 
REMARK    6  A    between atoms: C_16  and  O_17 
REMARK    7  A    between atoms: O_17  and  C_18 
ROOT
HETATM    1  C   UNL     1      26.185  47.469  49.775  1.00  0.00     0.257 C 
HETATM    2  N   UNL     1      25.564  47.221  50.974  1.00  0.00    -0.354 N 
HETATM    3  O   UNL     1      27.114  46.785  49.354  1.00  0.00    -0.267 OA
HETATM    4  H   UNL     1      24.890  47.909  51.306  1.00  0.00     0.162 HD
ENDROOT
BRANCH   2   5
HETATM    5  C   UNL     1      25.962  46.163  51.882  1.00  0.00     0.156 C 
BRANCH   5   6
HETATM    6  C   UNL     1      25.874  46.555  53.362  1.00  0.00     0.160 C 
BRANCH   6   7
HETATM    7  O   UNL     1      25.420  47.914  53.474  1.00  0.00    -0.392 OA
HETATM    8  H   UNL     1      25.231  48.053  54.422  1.00  0.00     0.210 HD
ENDBRANCH   6   7
BRANCH   6   9
HETATM    9  C   UNL     1      27.197  46.375  54.117  1.00  0.00     0.209 C 
BRANCH   9  10
HETATM   10  O   UNL     1      27.581  44.999  53.974  1.00  0.00    -0.349 OA
BRANCH  10  11
HETATM   11  C   UNL     1      28.689  44.595  54.668  1.00  0.00     0.069 A 
HETATM   12  C   UNL     1      29.061  45.440  55.717  1.00  0.00     0.038 A 
HETATM   13  C   UNL     1      30.170  45.143  56.513  1.00  0.00     0.026 A 
HETATM   14  C   UNL     1      30.905  43.989  56.262  1.00  0.00     0.034 A 
HETATM   15 CL   UNL     1      32.269  43.612  57.241  1.00  0.00    -0.084 Cl
HETATM   16  C   UNL     1      30.540  43.134  55.223  1.00  0.00     0.026 A 
HETATM   17  C   UNL     1      29.432  43.438  54.424  1.00  0.00     0.038 A 
ENDBRANCH  10  11
ENDBRANCH   9  10
ENDBRANCH   6   9
ENDBRANCH   5   6
ENDBRANCH   2   5
BRANCH   1  18
HETATM   18  C   UNL     1      25.681  48.616  49.047  1.00  0.00     0.098 A 
HETATM   19  C   UNL     1      24.401  49.144  49.043  1.00  0.00     0.167 A 
HETATM   20  N   UNL     1      24.433  50.243  48.176  1.00  0.00    -0.226 N 
HETATM   21  N   UNL     1      23.253  48.772  49.697  1.00  0.00    -0.240 NA
HETATM   22  C   UNL     1      23.287  50.995  47.942  1.00  0.00     0.128 A 
HETATM   23  N   UNL     1      25.664  50.432  47.647  1.00  0.00    -0.178 NA
HETATM   24  C   UNL     1      22.128  50.682  48.545  1.00  0.00    -0.027 A 
HETATM   25  C   UNL     1      20.830  51.388  48.387  1.00  0.00     0.051 C 
HETATM   26  C   UNL     1      22.201  49.498  49.456  1.00  0.00     0.127 A 
HETATM   27  C   UNL     1      26.403  49.453  48.173  1.00  0.00     0.160 A 
ENDBRANCH   1  18
TORSDOF 7
ENDMDL
MODEL 2
REMARK VINA RESULT:      -8.7      4.436      6.675
REMARK  7 active torsions:
REMARK  status: ('A' for Active; 'I' for Inactive)
REMARK    1  A    between atoms: C_10  and  C_11 
REMARK       I    between atoms: C_11  and  N_12 
REMARK    2  A    between atoms: N_12  and  C_13 
REMARK    3  A    between atoms: C_13  and  C_14 
REMARK    4  A    between atoms: C_14  and  O_15 
REMARK    5  A    between atoms: C_14  and  C_16 
REMARK    6  A    between atoms: C_16  and  O_17 
REMARK    7  A    between atoms: O_17  and  C_18 
ROOT
HETATM    1  C   UNL     1      26.009  44.304  53.344  1.00  0.00     0.257 C 
HETATM    2  N   UNL     1      26.494  45.514  52.913  1.00  0.00    -0.354 N 
HETATM    3  O   UNL     1      24.956  44.195  53.967  1.00  0.00    -0.267 OA
HETATM    4  H   UNL     1      27.433  45.530  52.517  1.00  0.00     0.162 HD
ENDROOT
BRANCH   2   5
HETATM    5  C   UNL     1      25.845  46.782  53.180  1.00  0.00     0.156 C 
BRANCH   5   6
HETATM    6  C   UNL     1      26.145  47.347  54.575  1.00  0.00     0.160 C 
BRANCH   6   7
HETATM    7  O   UNL     1      25.563  48.654  54.700  1.00  0.00    -0.392 OA
HETATM    8  H   UNL     1      24.920  48.589  55.431  1.00  0.00     0.210 HD
ENDBRANCH   6   7
BRANCH   6   9
HETATM    9  C   UNL     1      27.644  47.400  54.898  1.00  0.00     0.209 C 
BRANCH   9  10
HETATM   10  O   UNL     1      27.791  47.043  56.282  1.00  0.00    -0.349 OA
BRANCH  10  11
HETATM   11  C   UNL     1      28.807  46.180  56.589  1.00  0.00     0.069 A 
HETATM   12  C   UNL     1      29.223  45.368  55.530  1.00  0.00     0.038 A 
HETATM   13  C   UNL     1      30.258  44.446  55.702  1.00  0.00     0.026 A 
HETATM   14  C   UNL     1      30.885  44.342  56.940  1.00  0.00     0.034 A 
HETATM   15 CL   UNL     1      32.165  43.213  57.160  1.00  0.00    -0.084 Cl
HETATM   16  C   UNL     1      30.484  45.151  58.002  1.00  0.00     0.026 A 
HETATM   17  C   UNL     1      29.442  46.069  57.827  1.00  0.00     0.038 A 
ENDBRANCH  10  11
ENDBRANCH   9  10
ENDBRANCH   6   9
ENDBRANCH   5   6
ENDBRANCH   2   5
BRANCH   1  18
HETATM   18  C   UNL     1      26.843  43.161  53.033  1.00  0.00     0.098 A 
HETATM   19  C   UNL     1      27.091  42.581  51.801  1.00  0.00     0.167 A 
HETATM   20  N   UNL     1      27.955  41.505  52.041  1.00  0.00    -0.226 N 
HETATM   21  N   UNL     1      26.652  42.887  50.537  1.00  0.00    -0.240 NA
HETATM   22  C   UNL     1      28.392  40.701  50.995  1.00  0.00     0.128 A 
HETATM   23  N   UNL     1      28.264  41.390  53.354  1.00  0.00    -0.178 NA
HETATM   24  C   UNL     1      27.996  40.941  49.735  1.00  0.00    -0.027 A 
HETATM   25  C   UNL     1      28.377  40.166  48.525  1.00  0.00     0.051 C 
HETATM   26  C   UNL     1      27.082  42.115  49.583  1.00  0.00     0.127 A 
HETATM   27  C   UNL     1      27.592  42.384  53.939  1.00  0.00     0.160 A 
ENDBRANCH   1  18
TORSDOF 7
ENDMDL
MODEL 3
REMARK VINA RESULT:      -8.6      4.241      9.015
REMARK  7 active torsions:
REMARK  status: ('A' for Active; 'I' for Inactive)
REMARK    1  A    between atoms: C_10  and  C_11 
REMARK       I    between atoms: C_11  and  N_12 
REMARK    2  A    between atoms: N_12  and  C_13 
REMARK    3  A    between atoms: C_13  and  C_14 
REMARK    4  A    between atoms: C_14  and  O_15 
REMARK    5  A    between atoms: C_14  and  C_16 
REMARK    6  A    between atoms: C_16  and  O_17 
REMARK    7  A    between atoms: O_17  and  C_18 
ROOT
HETATM    1  C   UNL     1      26.377  44.761  53.281  1.00  0.00     0.257 C 
HETATM    2  N   UNL     1      26.856  44.138  52.156  1.00  0.00    -0.354 N 
HETATM    3  O   UNL     1      25.177  44.897  53.506  1.00  0.00    -0.267 OA
HETATM    4  H   UNL     1      27.859  44.180  51.985  1.00  0.00     0.162 HD
ENDROOT
BRANCH   2   5
HETATM    5  C   UNL     1      26.007  43.616  51.103  1.00  0.00     0.156 C 
BRANCH   5   6
HETATM    6  C   UNL     1      26.269  44.247  49.730  1.00  0.00     0.160 C 
BRANCH   6   7
HETATM    7  O   UNL     1      26.923  43.293  48.878  1.00  0.00    -0.392 OA
HETATM    8  H   UNL     1      26.445  42.451  49.008  1.00  0.00     0.210 HD
ENDBRANCH   6   7
BRANCH   6   9
HETATM    9  C   UNL     1      27.090  45.541  49.803  1.00  0.00     0.209 C 
BRANCH   9  10
HETATM   10  O   UNL     1      26.369  46.452  50.649  1.00  0.00    -0.349 OA
BRANCH  10  11
HETATM   11  C   UNL     1      25.637  47.423  50.023  1.00  0.00     0.069 A 
HETATM   12  C   UNL     1      26.397  48.404  49.381  1.00  0.00     0.038 A 
HETATM   13  C   UNL     1      25.778  49.451  48.696  1.00  0.00     0.026 A 
HETATM   14  C   UNL     1      24.388  49.512  48.646  1.00  0.00     0.034 A 
HETATM   15 CL   UNL     1      23.616  50.795  47.799  1.00  0.00    -0.084 Cl
HETATM   16  C   UNL     1      23.619  48.536  49.277  1.00  0.00     0.026 A 
HETATM   17  C   UNL     1      24.243  47.491  49.968  1.00  0.00     0.038 A 
ENDBRANCH  10  11
ENDBRANCH   9  10
ENDBRANCH   6   9
ENDBRANCH   5   6
ENDBRANCH   2   5
BRANCH   1  18
HETATM   18  C   UNL     1      27.392  45.274  54.179  1.00  0.00     0.098 A 
HETATM   19  C   UNL     1      28.487  44.616  54.713  1.00  0.00     0.167 A 
HETATM   20  N   UNL     1      29.148  45.548  55.521  1.00  0.00    -0.226 N 
HETATM   21  N   UNL     1      28.944  43.329  54.570  1.00  0.00    -0.240 NA
HETATM   22  C   UNL     1      30.299  45.193  56.217  1.00  0.00     0.128 A 
HETATM   23  N   UNL     1      28.530  46.753  55.512  1.00  0.00    -0.178 NA
HETATM   24  C   UNL     1      30.797  43.949  56.126  1.00  0.00    -0.027 A 
HETATM   25  C   UNL     1      32.008  43.429  56.814  1.00  0.00     0.051 C 
HETATM   26  C   UNL     1      30.022  43.033  55.234  1.00  0.00     0.127 A 
HETATM   27  C   UNL     1      27.480  46.577  54.708  1.00  0.00     0.160 A 
ENDBRANCH   1  18
TORSDOF 7
ENDMDL
MODEL 4
REMARK VINA RESULT:      -8.5      1.656      2.140
REMARK  7 active torsions:
REMARK  status: ('A' for Active; 'I' for Inactive)
REMARK    1  A    between atoms: C_10  and  C_11 
REMARK       I    between atoms: C_11  and  N_12 
REMARK    2  A    between atoms: N_12  and  C_13 
REMARK    3  A    between atoms: C_13  and  C_14 
REMARK    4  A    between atoms: C_14  and  O_15 
REMARK    5  A    between atoms: C_14  and  C_16 
REMARK    6  A    between atoms: C_16  and  O_17 
REMARK    7  A    between atoms: O_17  and  C_18 
ROOT
HETATM    1  C   UNL     1      24.695  47.591  50.151  1.00  0.00     0.257 C 
HETATM    2  N   UNL     1      24.637  46.614  51.114  1.00  0.00    -0.354 N 
HETATM    3  O   UNL     1      25.708  48.251  49.936  1.00  0.00    -0.267 OA
HETATM    4  H   UNL     1      23.726  46.204  51.314  1.00  0.00     0.162 HD
ENDROOT
BRANCH   2   5
HETATM    5  C   UNL     1      25.738  46.289  51.998  1.00  0.00     0.156 C 
BRANCH   5   6
HETATM    6  C   UNL     1      25.769  44.818  52.431  1.00  0.00     0.160 C 
BRANCH   6   7
HETATM    7  O   UNL     1      24.443  44.268  52.363  1.00  0.00    -0.392 OA
HETATM    8  H   UNL     1      23.887  44.849  52.917  1.00  0.00     0.210 HD
ENDBRANCH   6   7
BRANCH   6   9
HETATM    9  C   UNL     1      26.358  44.610  53.832  1.00  0.00     0.209 C 
BRANCH   9  10
HETATM   10  O   UNL     1      27.545  45.414  53.916  1.00  0.00    -0.349 OA
BRANCH  10  11
HETATM   11  C   UNL     1      28.611  44.868  54.578  1.00  0.00     0.069 A 
HETATM   12  C   UNL     1      29.156  45.681  55.576  1.00  0.00     0.038 A 
HETATM   13  C   UNL     1      30.244  45.244  56.335  1.00  0.00     0.026 A 
HETATM   14  C   UNL     1      30.784  43.983  56.100  1.00  0.00     0.034 A 
HETATM   15 CL   UNL     1      32.119  43.434  57.035  1.00  0.00    -0.084 Cl
HETATM   16  C   UNL     1      30.245  43.161  55.112  1.00  0.00     0.026 A 
HETATM   17  C   UNL     1      29.159  43.604  54.348  1.00  0.00     0.038 A 
ENDBRANCH  10  11
ENDBRANCH   9  10
ENDBRANCH   6   9
ENDBRANCH   5   6
ENDBRANCH   2   5
BRANCH   1  18
HETATM   18  C   UNL     1      23.463  47.808  49.420  1.00  0.00     0.098 A 
HETATM   19  C   UNL     1      22.712  48.966  49.314  1.00  0.00     0.167 A 
HETATM   20  N   UNL     1      21.616  48.650  48.503  1.00  0.00    -0.226 N 
HETATM   21  N   UNL     1      22.884  50.223  49.840  1.00  0.00    -0.240 NA
HETATM   22  C   UNL     1      20.653  49.609  48.207  1.00  0.00     0.128 A 
HETATM   23  N   UNL     1      21.649  47.361  48.091  1.00  0.00    -0.178 NA
HETATM   24  C   UNL     1      20.758  50.856  48.693  1.00  0.00    -0.027 A 
HETATM   25  C   UNL     1      19.807  51.976  48.466  1.00  0.00     0.051 C 
HETATM   26  C   UNL     1      21.966  51.094  49.542  1.00  0.00     0.127 A 
HETATM   27  C   UNL     1      22.756  46.865  48.646  1.00  0.00     0.160 A 
ENDBRANCH   1  18
TORSDOF 7
ENDMDL
MODEL 5
REMARK VINA RESULT:      -8.3      1.734      2.518
REMARK  7 active torsions:
REMARK  status: ('A' for Active; 'I' for Inactive)
REMARK    1  A    between atoms: C_10  and  C_11 
REMARK       I    between atoms: C_11  and  N_12 
REMARK    2  A    between atoms: N_12  and  C_13 
REMARK    3  A    between atoms: C_13  and  C_14 
REMARK    4  A    between atoms: C_14  and  O_15 
REMARK    5  A    between atoms: C_14  and  C_16 
REMARK    6  A    between atoms: C_16  and  O_17 
REMARK    7  A    between atoms: O_17  and  C_18 
ROOT
HETATM    1  C   UNL     1      26.192  46.479  51.244  1.00  0.00     0.257 C 
HETATM    2  N   UNL     1      26.004  45.195  50.796  1.00  0.00    -0.354 N 
HETATM    3  O   UNL     1      26.333  46.755  52.432  1.00  0.00    -0.267 OA
HETATM    4  H   UNL     1      25.768  45.069  49.813  1.00  0.00     0.162 HD
ENDROOT
BRANCH   2   5
HETATM    5  C   UNL     1      25.909  44.044  51.672  1.00  0.00     0.156 C 
BRANCH   5   6
HETATM    6  C   UNL     1      27.120  43.105  51.589  1.00  0.00     0.160 C 
BRANCH   6   7
HETATM    7  O   UNL     1      26.864  41.921  52.362  1.00  0.00    -0.392 OA
HETATM    8  H   UNL     1      26.702  42.230  53.274  1.00  0.00     0.210 HD
ENDBRANCH   6   7
BRANCH   6   9
HETATM    9  C   UNL     1      28.429  43.762  52.044  1.00  0.00     0.209 C 
BRANCH   9  10
HETATM   10  O   UNL     1      28.865  43.065  53.222  1.00  0.00    -0.349 OA
BRANCH  10  11
HETATM   11  C   UNL     1      29.182  43.833  54.309  1.00  0.00     0.069 A 
HETATM   12  C   UNL     1      30.336  43.435  54.989  1.00  0.00     0.038 A 
HETATM   13  C   UNL     1      30.778  44.135  56.113  1.00  0.00     0.026 A 
HETATM   14  C   UNL     1      30.066  45.247  56.553  1.00  0.00     0.034 A 
HETATM   15 CL   UNL     1      30.608  46.120  57.933  1.00  0.00    -0.084 Cl
HETATM   16  C   UNL     1      28.918  45.658  55.879  1.00  0.00     0.026 A 
HETATM   17  C   UNL     1      28.473  44.950  54.757  1.00  0.00     0.038 A 
ENDBRANCH  10  11
ENDBRANCH   9  10
ENDBRANCH   6   9
ENDBRANCH   5   6
ENDBRANCH   2   5
BRANCH   1  18
HETATM   18  C   UNL     1      26.188  47.497  50.212  1.00  0.00     0.098 A 
HETATM   19  C   UNL     1      25.117  48.219  49.713  1.00  0.00     0.167 A 
HETATM   20  N   UNL     1      25.640  49.067  48.730  1.00  0.00    -0.226 N 
HETATM   21  N   UNL     1      23.779  48.207  50.022  1.00  0.00    -0.240 NA
HETATM   22  C   UNL     1      24.809  49.928  48.021  1.00  0.00     0.128 A 
HETATM   23  N   UNL     1      26.979  48.918  48.595  1.00  0.00    -0.178 NA
HETATM   24  C   UNL     1      23.489  49.963  48.269  1.00  0.00    -0.027 A 
HETATM   25  C   UNL     1      22.485  50.823  47.590  1.00  0.00     0.051 C 
HETATM   26  C   UNL     1      23.032  49.025  49.341  1.00  0.00     0.127 A 
HETATM   27  C   UNL     1      27.296  47.975  49.485  1.00  0.00     0.160 A 
ENDBRANCH   1  18
TORSDOF 7
ENDMDL
MODEL 6
REMARK VINA RESULT:      -8.3     11.848     13.885
REMARK  7 active torsions:
REMARK  status: ('A' for Active; 'I' for Inactive)
REMARK    1  A    between atoms: C_10  and  C_11 
REMARK       I    between atoms: C_11  and  N_12 
REMARK    2  A    between atoms: N_12  and  C_13 
REMARK    3  A    between atoms: C_13  and  C_14 
REMARK    4  A    between atoms: C_14  and  O_15 
REMARK    5  A    between atoms: C_14  and  C_16 
REMARK    6  A    between atoms: C_16  and  O_17 
REMARK    7  A    between atoms: O_17  and  C_18 
ROOT
HETATM    1  C   UNL     1      30.157  48.362  39.347  1.00  0.00     0.257 C 
HETATM    2  N   UNL     1      29.402  47.893  40.393  1.00  0.00    -0.354 N 
HETATM    3  O   UNL     1      30.112  47.870  38.223  1.00  0.00    -0.267 OA
HETATM    4  H   UNL     1      29.594  48.274  41.319  1.00  0.00     0.162 HD
ENDROOT
BRANCH   2   5
HETATM    5  C   UNL     1      28.513  46.753  40.296  1.00  0.00     0.156 C 
BRANCH   5   6
HETATM    6  C   UNL     1      27.077  47.122  39.900  1.00  0.00     0.160 C 
BRANCH   6   7
HETATM    7  O   UNL     1      27.010  47.336  38.481  1.00  0.00    -0.392 OA
HETATM    8  H   UNL     1      27.934  47.323  38.167  1.00  0.00     0.210 HD
ENDBRANCH   6   7
BRANCH   6   9
HETATM    9  C   UNL     1      26.539  48.349  40.647  1.00  0.00     0.209 C 
BRANCH   9  10
HETATM   10  O   UNL     1      26.494  49.432  39.704  1.00  0.00    -0.349 OA
BRANCH  10  11
HETATM   11  C   UNL     1      27.318  50.496  39.951  1.00  0.00     0.069 A 
HETATM   12  C   UNL     1      27.736  51.188  38.810  1.00  0.00     0.038 A 
HETATM   13  C   UNL     1      28.574  52.300  38.918  1.00  0.00     0.026 A 
HETATM   14  C   UNL     1      28.989  52.727  40.177  1.00  0.00     0.034 A 
HETATM   15 CL   UNL     1      30.016  54.100  40.320  1.00  0.00    -0.084 Cl
HETATM   16  C   UNL     1      28.573  52.050  41.322  1.00  0.00     0.026 A 
HETATM   17  C   UNL     1      27.739  50.932  41.209  1.00  0.00     0.038 A 
ENDBRANCH  10  11
ENDBRANCH   9  10
ENDBRANCH   6   9
ENDBRANCH   5   6
ENDBRANCH   2   5
BRANCH   1  18
HETATM   18  C   UNL     1      31.035  49.469  39.669  1.00  0.00     0.098 A 
HETATM   19  C   UNL     1      31.477  49.889  40.912  1.00  0.00     0.167 A 
HETATM   20  N   UNL     1      32.297  51.000  40.681  1.00  0.00    -0.226 N 
HETATM   21  N   UNL     1      31.240  49.415  42.179  1.00  0.00    -0.240 NA
HETATM   22  C   UNL     1      32.897  51.670  41.742  1.00  0.00     0.128 A 
HETATM   23  N   UNL     1      32.396  51.289  39.362  1.00  0.00    -0.178 NA
HETATM   24  C   UNL     1      32.703  51.263  43.006  1.00  0.00    -0.027 A 
HETATM   25  C   UNL     1      33.273  51.881  44.232  1.00  0.00     0.051 C 
HETATM   26  C   UNL     1      31.818  50.065  43.145  1.00  0.00     0.127 A 
HETATM   27  C   UNL     1      31.636  50.368  38.766  1.00  0.00     0.160 A 
ENDBRANCH   1  18
TORSDOF 7
ENDMDL
MODEL 7
REMARK VINA RESULT:      -8.2     11.771     13.769
REMARK  7 active torsions:
REMARK  status: ('A' for Active; 'I' for Inactive)
REMARK    1  A    between atoms: C_10  and  C_11 
REMARK       I    between atoms: C_11  and  N_12 
REMARK    2  A    between atoms: N_12  and  C_13 
REMARK    3  A    between atoms: C_13  and  C_14 
REMARK    4  A    between atoms: C_14  and  O_15 
REMARK    5  A    between atoms: C_14  and  C_16 
REMARK    6  A    between atoms: C_16  and  O_17 
REMARK    7  A    between atoms: O_17  and  C_18 
ROOT
HETATM    1  C   UNL     1      30.200  51.653  38.277  1.00  0.00     0.257 C 
HETATM    2  N   UNL     1      29.010  51.693  38.961  1.00  0.00    -0.354 N 
HETATM    3  O   UNL     1      30.263  51.704  37.052  1.00  0.00    -0.267 OA
HETATM    4  H   UNL     1      29.038  51.517  39.965  1.00  0.00     0.162 HD
ENDROOT
BRANCH   2   5
HETATM    5  C   UNL     1      27.714  51.756  38.317  1.00  0.00     0.156 C 
BRANCH   5   6
HETATM    6  C   UNL     1      26.926  50.442  38.384  1.00  0.00     0.160 C 
BRANCH   6   7
HETATM    7  O   UNL     1      25.577  50.666  37.946  1.00  0.00    -0.392 OA
HETATM    8  H   UNL     1      25.010  50.438  38.707  1.00  0.00     0.210 HD
ENDBRANCH   6   7
BRANCH   6   9
HETATM    9  C   UNL     1      26.931  49.802  39.778  1.00  0.00     0.209 C 
BRANCH   9  10
HETATM   10  O   UNL     1      27.484  48.484  39.637  1.00  0.00    -0.349 OA
BRANCH  10  11
HETATM   11  C   UNL     1      28.806  48.335  39.958  1.00  0.00     0.069 A 
HETATM   12  C   UNL     1      29.108  48.556  41.305  1.00  0.00     0.038 A 
HETATM   13  C   UNL     1      30.418  48.429  41.772  1.00  0.00     0.026 A 
HETATM   14  C   UNL     1      31.431  48.071  40.886  1.00  0.00     0.034 A 
HETATM   15 CL   UNL     1      33.047  47.908  41.454  1.00  0.00    -0.084 Cl
HETATM   16  C   UNL     1      31.141  47.842  39.543  1.00  0.00     0.026 A 
HETATM   17  C   UNL     1      29.828  47.976  39.077  1.00  0.00     0.038 A 
ENDBRANCH  10  11
ENDBRANCH   9  10
ENDBRANCH   6   9
ENDBRANCH   5   6
ENDBRANCH   2   5
BRANCH   1  18
HETATM   18  C   UNL     1      31.381  51.520  39.106  1.00  0.00     0.098 A 
HETATM   19  C   UNL     1      31.495  51.651  40.479  1.00  0.00     0.167 A 
HETATM   20  N   UNL     1      32.843  51.434  40.784  1.00  0.00    -0.226 N 
HETATM   21  N   UNL     1      30.569  51.932  41.453  1.00  0.00    -0.240 NA
HETATM   22  C   UNL     1      33.293  51.506  42.098  1.00  0.00     0.128 A 
HETATM   23  N   UNL     1      33.574  51.167  39.676  1.00  0.00    -0.178 NA
HETATM   24  C   UNL     1      32.442  51.783  43.099  1.00  0.00    -0.027 A 
HETATM   25  C   UNL     1      32.781  51.896  44.541  1.00  0.00     0.051 C 
HETATM   26  C   UNL     1      31.025  51.990  42.670  1.00  0.00     0.127 A 
HETATM   27  C   UNL     1      32.691  51.223  38.678  1.00  0.00     0.160 A 
ENDBRANCH   1  18
TORSDOF 7
ENDMDL
MODEL 8
REMARK VINA RESULT:      -8.1      3.228      4.796
REMARK  7 active torsions:
REMARK  status: ('A' for Active; 'I' for Inactive)
REMARK    1  A    between atoms: C_10  and  C_11 
REMARK       I    between atoms: C_11  and  N_12 
REMARK    2  A    between atoms: N_12  and  C_13 
REMARK    3  A    between atoms: C_13  and  C_14 
REMARK    4  A    between atoms: C_14  and  O_15 
REMARK    5  A    between atoms: C_14  and  C_16 
REMARK    6  A    between atoms: C_16  and  O_17 
REMARK    7  A    between atoms: O_17  and  C_18 
ROOT
HETATM    1  C   UNL     1      26.039  42.814  50.231  1.00  0.00     0.257 C 
HETATM    2  N   UNL     1      26.671  42.388  51.373  1.00  0.00    -0.354 N 
HETATM    3  O   UNL     1      25.904  42.100  49.241  1.00  0.00    -0.267 OA
HETATM    4  H   UNL     1      26.852  43.082  52.097  1.00  0.00     0.162 HD
ENDROOT
BRANCH   2   5
HETATM    5  C   UNL     1      27.277  41.080  51.516  1.00  0.00     0.156 C 
BRANCH   5   6
HETATM    6  C   UNL     1      28.686  41.115  52.122  1.00  0.00     0.160 C 
BRANCH   6   7
HETATM    7  O   UNL     1      29.207  39.779  52.207  1.00  0.00    -0.392 OA
HETATM    8  H   UNL     1      29.585  39.699  53.103  1.00  0.00     0.210 HD
ENDBRANCH   6   7
BRANCH   6   9
HETATM    9  C   UNL     1      28.738  41.793  53.497  1.00  0.00     0.209 C 
BRANCH   9  10
HETATM   10  O   UNL     1      29.220  43.131  53.291  1.00  0.00    -0.349 OA
BRANCH  10  11
HETATM   11  C   UNL     1      29.452  43.879  54.412  1.00  0.00     0.069 A 
HETATM   12  C   UNL     1      30.566  43.483  55.158  1.00  0.00     0.038 A 
HETATM   13  C   UNL     1      30.923  44.165  56.323  1.00  0.00     0.026 A 
HETATM   14  C   UNL     1      30.166  45.257  56.739  1.00  0.00     0.034 A 
HETATM   15 CL   UNL     1      30.603  46.107  58.169  1.00  0.00    -0.084 Cl
HETATM   16  C   UNL     1      29.057  45.666  56.000  1.00  0.00     0.026 A 
HETATM   17  C   UNL     1      28.698  44.975  54.836  1.00  0.00     0.038 A 
ENDBRANCH  10  11
ENDBRANCH   9  10
ENDBRANCH   6   9
ENDBRANCH   5   6
ENDBRANCH   2   5
BRANCH   1  18
HETATM   18  C   UNL     1      25.562  44.182  50.265  1.00  0.00     0.098 A 
HETATM   19  C   UNL     1      26.230  45.341  49.909  1.00  0.00     0.167 A 
HETATM   20  N   UNL     1      25.335  46.393  50.132  1.00  0.00    -0.226 N 
HETATM   21  N   UNL     1      27.498  45.558  49.429  1.00  0.00    -0.240 NA
HETATM   22  C   UNL     1      25.710  47.708  49.878  1.00  0.00     0.128 A 
HETATM   23  N   UNL     1      24.144  45.953  50.600  1.00  0.00    -0.178 NA
HETATM   24  C   UNL     1      26.937  47.992  49.412  1.00  0.00    -0.027 A 
HETATM   25  C   UNL     1      27.475  49.343  49.102  1.00  0.00     0.051 C 
HETATM   26  C   UNL     1      27.813  46.799  49.201  1.00  0.00     0.127 A 
HETATM   27  C   UNL     1      24.290  44.628  50.678  1.00  0.00     0.160 A 
ENDBRANCH   1  18
TORSDOF 7
ENDMDL
MODEL 9
REMARK VINA RESULT:      -8.0     11.457     13.098
REMARK  7 active torsions:
REMARK  status: ('A' for Active; 'I' for Inactive)
REMARK    1  A    between atoms: C_10  and  C_11 
REMARK       I    between atoms: C_11  and  N_12 
REMARK    2  A    between atoms: N_12  and  C_13 
REMARK    3  A    between atoms: C_13  and  C_14 
REMARK    4  A    between atoms: C_14  and  O_15 
REMARK    5  A    between atoms: C_14  and  C_16 
REMARK    6  A    between atoms: C_16  and  O_17 
REMARK    7  A    between atoms: O_17  and  C_18 
ROOT
HETATM    1  C   UNL     1      27.435  50.746  39.164  1.00  0.00     0.257 C 
HETATM    2  N   UNL     1      26.608  50.034  39.997  1.00  0.00    -0.354 N 
HETATM    3  O   UNL     1      27.326  50.722  37.941  1.00  0.00    -0.267 OA
HETATM    4  H   UNL     1      26.846  50.009  40.988  1.00  0.00     0.162 HD
ENDROOT
BRANCH   2   5
HETATM    5  C   UNL     1      25.555  49.155  39.527  1.00  0.00     0.156 C 
BRANCH   5   6
HETATM    6  C   UNL     1      25.697  47.707  40.014  1.00  0.00     0.160 C 
BRANCH   6   7
HETATM    7  O   UNL     1      25.120  47.581  41.324  1.00  0.00    -0.392 OA
HETATM    8  H   UNL     1      25.751  47.044  41.840  1.00  0.00     0.210 HD
ENDBRANCH   6   7
BRANCH   6   9
HETATM    9  C   UNL     1      27.149  47.211  40.025  1.00  0.00     0.209 C 
BRANCH   9  10
HETATM   10  O   UNL     1      27.762  47.722  41.219  1.00  0.00    -0.349 OA
BRANCH  10  11
HETATM   11  C   UNL     1      29.103  47.983  41.158  1.00  0.00     0.069 A 
HETATM   12  C   UNL     1      29.582  48.820  42.170  1.00  0.00     0.038 A 
HETATM   13  C   UNL     1      30.934  49.162  42.231  1.00  0.00     0.026 A 
HETATM   14  C   UNL     1      31.815  48.657  41.279  1.00  0.00     0.034 A 
HETATM   15 CL   UNL     1      33.484  49.068  41.350  1.00  0.00    -0.084 Cl
HETATM   16  C   UNL     1      31.351  47.816  40.269  1.00  0.00     0.026 A 
HETATM   17  C   UNL     1      29.993  47.480  40.206  1.00  0.00     0.038 A 
ENDBRANCH  10  11
ENDBRANCH   9  10
ENDBRANCH   6   9
ENDBRANCH   5   6
ENDBRANCH   2   5
BRANCH   1  18
HETATM   18  C   UNL     1      28.468  51.511  39.831  1.00  0.00     0.098 A 
HETATM   19  C   UNL     1      29.822  51.571  39.545  1.00  0.00     0.167 A 
HETATM   20  N   UNL     1      30.382  52.447  40.482  1.00  0.00    -0.226 N 
HETATM   21  N   UNL     1      30.584  50.956  38.583  1.00  0.00    -0.240 NA
HETATM   22  C   UNL     1      31.746  52.718  40.472  1.00  0.00     0.128 A 
HETATM   23  N   UNL     1      29.450  52.942  41.331  1.00  0.00    -0.178 NA
HETATM   24  C   UNL     1      32.550  52.146  39.562  1.00  0.00    -0.027 A 
HETATM   25  C   UNL     1      34.019  52.337  39.435  1.00  0.00     0.051 C 
HETATM   26  C   UNL     1      31.855  51.234  38.602  1.00  0.00     0.127 A 
HETATM   27  C   UNL     1      28.309  52.375  40.934  1.00  0.00     0.160 A 
ENDBRANCH   1  18
TORSDOF 7
ENDMDL
MODEL 10
REMARK VINA RESULT:      -7.9     11.655     13.224
REMARK  7 active torsions:
REMARK  status: ('A' for Active; 'I' for Inactive)
REMARK    1  A    between atoms: C_10  and  C_11 
REMARK       I    between atoms: C_11  and  N_12 
REMARK    2  A    between atoms: N_12  and  C_13 
REMARK    3  A    between atoms: C_13  and  C_14 
REMARK    4  A    between atoms: C_14  and  O_15 
REMARK    5  A    between atoms: C_14  and  C_16 
REMARK    6  A    between atoms: C_16  and  O_17 
REMARK    7  A    between atoms: O_17  and  C_18 
ROOT
HETATM    1  C   UNL     1      31.368  52.723  40.570  1.00  0.00     0.257 C 
HETATM    2  N   UNL     1      32.244  51.743  40.175  1.00  0.00    -0.354 N 
HETATM    3  O   UNL     1      31.732  53.857  40.871  1.00  0.00    -0.267 OA
HETATM    4  H   UNL     1      31.877  50.799  40.067  1.00  0.00     0.162 HD
ENDROOT
BRANCH   2   5
HETATM    5  C   UNL     1      33.681  51.926  40.113  1.00  0.00     0.156 C 
BRANCH   5   6
HETATM    6  C   UNL     1      34.463  50.995  41.048  1.00  0.00     0.160 C 
BRANCH   6   7
HETATM    7  O   UNL     1      35.246  50.077  40.268  1.00  0.00    -0.392 OA
HETATM    8  H   UNL     1      34.885  49.191  40.461  1.00  0.00     0.210 HD
ENDBRANCH   6   7
BRANCH   6   9
HETATM    9  C   UNL     1      33.566  50.226  42.027  1.00  0.00     0.209 C 
BRANCH   9  10
HETATM   10  O   UNL     1      33.207  48.990  41.390  1.00  0.00    -0.349 OA
BRANCH  10  11
HETATM   11  C   UNL     1      31.877  48.666  41.383  1.00  0.00     0.069 A 
HETATM   12  C   UNL     1      31.488  47.820  40.341  1.00  0.00     0.038 A 
HETATM   13  C   UNL     1      30.161  47.404  40.218  1.00  0.00     0.026 A 
HETATM   14  C   UNL     1      29.219  47.831  41.149  1.00  0.00     0.034 A 
HETATM   15 CL   UNL     1      27.582  47.319  41.009  1.00  0.00    -0.084 Cl
HETATM   16  C   UNL     1      29.596  48.670  42.197  1.00  0.00     0.026 A 
HETATM   17  C   UNL     1      30.926  49.090  42.313  1.00  0.00     0.038 A 
ENDBRANCH  10  11
ENDBRANCH   9  10
ENDBRANCH   6   9
ENDBRANCH   5   6
ENDBRANCH   2   5
BRANCH   1  18
HETATM   18  C   UNL     1      29.978  52.317  40.631  1.00  0.00     0.098 A 
HETATM   19  C   UNL     1      29.293  51.448  39.800  1.00  0.00     0.167 A 
HETATM   20  N   UNL     1      27.980  51.400  40.280  1.00  0.00    -0.226 N 
HETATM   21  N   UNL     1      29.690  50.722  38.704  1.00  0.00    -0.240 NA
HETATM   22  C   UNL     1      27.023  50.613  39.649  1.00  0.00     0.128 A 
HETATM   23  N   UNL     1      27.811  52.186  41.369  1.00  0.00    -0.178 NA
HETATM   24  C   UNL     1      27.342  49.882  38.568  1.00  0.00    -0.027 A 
HETATM   25  C   UNL     1      26.427  49.004  37.792  1.00  0.00     0.051 C 
HETATM   26  C   UNL     1      28.770  49.997  38.140  1.00  0.00     0.127 A 
HETATM   27  C   UNL     1      29.012  52.731  41.570  1.00  0.00     0.160 A 
ENDBRANCH   1  18
TORSDOF 7
ENDMDL
