MODEL 1
REMARK VINA RESULT:      -8.2      0.000      0.000
REMARK  5 active torsions:
REMARK  status: ('A' for Active; 'I' for Inactive)
REMARK    1  A    between atoms: C_2  and  C_3 
REMARK    2  A    between atoms: C_3  and  N_4 
REMARK    3  A    between atoms: C_7  and  C_8 
REMARK    4  A    between atoms: C_8  and  O_9 
REMARK    5  A    between atoms: N_13  and  C_15 
ROOT
HETATM    1  N   UNL     1      27.084  45.106  51.736  1.00  0.00    -0.067 N 
HETATM    2  H   UNL     1      27.851  45.688  52.102  1.00  0.00     0.280 HD
HETATM    3  C   UNL     1      27.094  45.387  50.256  1.00  0.00     0.242 C 
HETATM    4  C   UNL     1      25.775  45.016  49.526  1.00  0.00     0.044 C 
HETATM    5  C   UNL     1      24.494  45.566  50.256  1.00  0.00    -0.029 C 
HETATM    6  C   UNL     1      24.406  47.123  50.145  1.00  0.00     0.037 C 
HETATM    7  C   UNL     1      24.001  47.642  48.759  1.00  0.00     0.236 C 
HETATM    8  N   UNL     1      22.683  47.041  48.315  1.00  0.00    -0.067 N 
HETATM    9  H   UNL     1      22.577  47.316  47.326  1.00  0.00     0.280 HD
HETATM   10  C   UNL     1      22.815  45.531  48.287  1.00  0.00     0.236 C 
HETATM   11  C   UNL     1      23.159  45.002  49.679  1.00  0.00     0.037 C 
HETATM   12  C   UNL     1      24.588  45.144  51.752  1.00  0.00     0.037 C 
HETATM   13  C   UNL     1      25.864  45.597  52.455  1.00  0.00     0.236 C 
ENDROOT
BRANCH   4  14
HETATM   14  C   UNL     1      25.708  43.513  49.180  1.00  0.00     0.171 C 
BRANCH  14  15
HETATM   15  O   UNL     1      26.999  43.064  48.820  1.00  0.00    -0.400 OA
HETATM   16  H   UNL     1      27.586  43.841  48.723  1.00  0.00     0.209 HD
ENDBRANCH  14  15
ENDBRANCH   4  14
BRANCH   1  17
HETATM   17  C   UNL     1      27.541  43.714  52.152  1.00  0.00     0.273 C 
BRANCH  17  18
HETATM   18  C   UNL     1      28.577  43.734  53.247  1.00  0.00    -0.033 A 
HETATM   19  C   UNL     1      29.684  42.868  53.205  1.00  0.00     0.010 A 
HETATM   20  C   UNL     1      30.623  42.865  54.242  1.00  0.00     0.024 A 
HETATM   21  C   UNL     1      30.470  43.732  55.321  1.00  0.00     0.034 A 
HETATM   22  C   UNL     1      29.390  44.608  55.369  1.00  0.00     0.024 A 
HETATM   23 CL   UNL     1      31.617  43.717  56.599  1.00  0.00    -0.084 Cl
HETATM   24  C   UNL     1      28.450  44.611  54.335  1.00  0.00     0.010 A 
ENDBRANCH  17  18
ENDBRANCH   1  17
BRANCH   8  25
HETATM   25  C   UNL     1      21.417  47.604  49.027  1.00  0.00     0.192 C 
HETATM   26  C   UNL     1      21.397  49.141  49.012  1.00  0.00     0.059 C 
HETATM   27  C   UNL     1      21.114  49.690  47.621  1.00  0.00     0.169 C 
HETATM   28  O   UNL     1      19.907  49.141  47.111  1.00  0.00    -0.391 OA
HETATM   29  C   UNL     1      19.896  47.725  47.010  1.00  0.00     0.169 C 
HETATM   30  C   UNL     1      20.118  47.101  48.379  1.00  0.00     0.059 C 
ENDBRANCH   8  25
TORSDOF 5
ENDMDL
MODEL 2
REMARK VINA RESULT:      -7.5     18.551     20.378
REMARK  5 active torsions:
REMARK  status: ('A' for Active; 'I' for Inactive)
REMARK    1  A    between atoms: C_2  and  C_3 
REMARK    2  A    between atoms: C_3  and  N_4 
REMARK    3  A    between atoms: C_7  and  C_8 
REMARK    4  A    between atoms: C_8  and  O_9 
REMARK    5  A    between atoms: N_13  and  C_15 
ROOT
HETATM    1  N   UNL     1      37.046  43.754  65.092  1.00  0.00    -0.067 N 
HETATM    2  H   UNL     1      36.787  42.985  65.726  1.00  0.00     0.280 HD
HETATM    3  C   UNL     1      38.367  44.238  65.634  1.00  0.00     0.242 C 
HETATM    4  C   UNL     1      38.763  45.665  65.170  1.00  0.00     0.044 C 
HETATM    5  C   UNL     1      37.599  46.710  65.339  1.00  0.00    -0.029 C 
HETATM    6  C   UNL     1      37.325  47.011  66.849  1.00  0.00     0.037 C 
HETATM    7  C   UNL     1      38.387  47.885  67.529  1.00  0.00     0.236 C 
HETATM    8  N   UNL     1      38.569  49.196  66.792  1.00  0.00    -0.067 N 
HETATM    9  H   UNL     1      39.399  49.635  67.217  1.00  0.00     0.280 HD
HETATM   10  C   UNL     1      38.975  48.903  65.360  1.00  0.00     0.236 C 
HETATM   11  C   UNL     1      37.892  48.084  64.658  1.00  0.00     0.037 C 
HETATM   12  C   UNL     1      36.326  46.108  64.676  1.00  0.00     0.037 C 
HETATM   13  C   UNL     1      35.924  44.739  65.217  1.00  0.00     0.236 C 
ENDROOT
BRANCH   4  14
HETATM   14  C   UNL     1      39.408  45.660  63.768  1.00  0.00     0.171 C 
BRANCH  14  15
HETATM   15  O   UNL     1      40.701  46.224  63.851  1.00  0.00    -0.400 OA
HETATM   16  H   UNL     1      41.353  45.560  63.547  1.00  0.00     0.209 HD
ENDBRANCH  14  15
ENDBRANCH   4  14
BRANCH   1  17
HETATM   17  C   UNL     1      37.102  43.030  63.753  1.00  0.00     0.273 C 
BRANCH  17  18
HETATM   18  C   UNL     1      37.963  41.793  63.784  1.00  0.00    -0.033 A 
HETATM   19  C   UNL     1      37.907  40.906  64.873  1.00  0.00     0.010 A 
HETATM   20  C   UNL     1      38.734  39.778  64.914  1.00  0.00     0.024 A 
HETATM   21  C   UNL     1      39.615  39.524  63.865  1.00  0.00     0.034 A 
HETATM   22  C   UNL     1      39.670  40.383  62.772  1.00  0.00     0.024 A 
HETATM   23 CL   UNL     1      40.639  38.147  63.924  1.00  0.00    -0.084 Cl
HETATM   24  C   UNL     1      38.845  41.511  62.730  1.00  0.00     0.010 A 
ENDBRANCH  17  18
ENDBRANCH   1  17
BRANCH   8  25
HETATM   25  C   UNL     1      37.422  50.234  66.979  1.00  0.00     0.192 C 
HETATM   26  C   UNL     1      37.191  50.559  68.463  1.00  0.00     0.059 C 
HETATM   27  C   UNL     1      38.324  51.393  69.044  1.00  0.00     0.169 C 
HETATM   28  O   UNL     1      38.516  52.568  68.270  1.00  0.00    -0.391 OA
HETATM   29  C   UNL     1      38.828  52.336  66.904  1.00  0.00     0.169 C 
HETATM   30  C   UNL     1      37.708  51.550  66.239  1.00  0.00     0.059 C 
ENDBRANCH   8  25
TORSDOF 5
ENDMDL
MODEL 3
REMARK VINA RESULT:      -7.2     12.109     13.229
REMARK  5 active torsions:
REMARK  status: ('A' for Active; 'I' for Inactive)
REMARK    1  A    between atoms: C_2  and  C_3 
REMARK    2  A    between atoms: C_3  and  N_4 
REMARK    3  A    between atoms: C_7  and  C_8 
REMARK    4  A    between atoms: C_8  and  O_9 
REMARK    5  A    between atoms: N_13  and  C_15 
ROOT
HETATM    1  N   UNL     1      33.350  51.573  41.697  1.00  0.00    -0.067 N 
HETATM    2  H   UNL     1      33.857  52.377  41.298  1.00  0.00     0.280 HD
HETATM    3  C   UNL     1      33.309  50.578  40.566  1.00  0.00     0.242 C 
HETATM    4  C   UNL     1      32.224  49.479  40.721  1.00  0.00     0.044 C 
HETATM    5  C   UNL     1      30.810  50.061  41.092  1.00  0.00    -0.029 C 
HETATM    6  C   UNL     1      30.191  50.848  39.890  1.00  0.00     0.037 C 
HETATM    7  C   UNL     1      29.675  49.965  38.747  1.00  0.00     0.236 C 
HETATM    8  N   UNL     1      28.660  48.958  39.250  1.00  0.00    -0.067 N 
HETATM    9  H   UNL     1      28.497  48.316  38.459  1.00  0.00     0.280 HD
HETATM   10  C   UNL     1      29.309  48.099  40.319  1.00  0.00     0.236 C 
HETATM   11  C   UNL     1      29.771  48.968  41.490  1.00  0.00     0.037 C 
HETATM   12  C   UNL     1      30.997  51.012  42.310  1.00  0.00     0.037 C 
HETATM   13  C   UNL     1      32.014  52.127  42.088  1.00  0.00     0.236 C 
ENDROOT
BRANCH   4  14
HETATM   14  C   UNL     1      32.692  48.329  41.637  1.00  0.00     0.171 C 
BRANCH  14  15
HETATM   15  O   UNL     1      32.865  47.160  40.862  1.00  0.00    -0.400 OA
HETATM   16  H   UNL     1      32.004  46.917  40.466  1.00  0.00     0.209 HD
ENDBRANCH  14  15
ENDBRANCH   4  14
BRANCH   1  17
HETATM   17  C   UNL     1      34.249  51.208  42.871  1.00  0.00     0.273 C 
BRANCH  17  18
HETATM   18  C   UNL     1      35.491  52.057  42.953  1.00  0.00    -0.033 A 
HETATM   19  C   UNL     1      35.905  52.610  44.178  1.00  0.00     0.010 A 
HETATM   20  C   UNL     1      37.038  53.427  44.242  1.00  0.00     0.024 A 
HETATM   21  C   UNL     1      37.772  53.689  43.088  1.00  0.00     0.034 A 
HETATM   22  C   UNL     1      37.387  53.135  41.871  1.00  0.00     0.024 A 
HETATM   23 CL   UNL     1      39.156  54.703  43.167  1.00  0.00    -0.084 Cl
HETATM   24  C   UNL     1      36.254  52.320  41.805  1.00  0.00     0.010 A 
ENDBRANCH  17  18
ENDBRANCH   1  17
BRANCH   8  25
HETATM   25  C   UNL     1      27.256  49.538  39.596  1.00  0.00     0.192 C 
HETATM   26  C   UNL     1      26.595  50.185  38.370  1.00  0.00     0.059 C 
HETATM   27  C   UNL     1      26.146  49.145  37.353  1.00  0.00     0.169 C 
HETATM   28  O   UNL     1      25.294  48.190  37.969  1.00  0.00    -0.391 OA
HETATM   29  C   UNL     1      25.880  47.486  39.055  1.00  0.00     0.169 C 
HETATM   30  C   UNL     1      26.306  48.461  40.142  1.00  0.00     0.059 C 
ENDBRANCH   8  25
TORSDOF 5
ENDMDL
MODEL 4
REMARK VINA RESULT:      -7.2      4.750      7.063
REMARK  5 active torsions:
REMARK  status: ('A' for Active; 'I' for Inactive)
REMARK    1  A    between atoms: C_2  and  C_3 
REMARK    2  A    between atoms: C_3  and  N_4 
REMARK    3  A    between atoms: C_7  and  C_8 
REMARK    4  A    between atoms: C_8  and  O_9 
REMARK    5  A    between atoms: N_13  and  C_15 
ROOT
HETATM    1  N   UNL     1      26.593  44.097  51.679  1.00  0.00    -0.067 N 
HETATM    2  H   UNL     1      26.804  45.079  51.450  1.00  0.00     0.280 HD
HETATM    3  C   UNL     1      27.891  43.379  51.412  1.00  0.00     0.242 C 
HETATM    4  C   UNL     1      27.745  41.844  51.227  1.00  0.00     0.044 C 
HETATM    5  C   UNL     1      26.596  41.454  50.224  1.00  0.00    -0.029 C 
HETATM    6  C   UNL     1      26.973  41.843  48.757  1.00  0.00     0.037 C 
HETATM    7  C   UNL     1      28.028  40.938  48.108  1.00  0.00     0.236 C 
HETATM    8  N   UNL     1      27.596  39.486  48.137  1.00  0.00    -0.067 N 
HETATM    9  H   UNL     1      28.423  38.949  47.834  1.00  0.00     0.280 HD
HETATM   10  C   UNL     1      27.369  39.069  49.577  1.00  0.00     0.236 C 
HETATM   11  C   UNL     1      26.274  39.927  50.211  1.00  0.00     0.037 C 
HETATM   12  C   UNL     1      25.310  42.213  50.662  1.00  0.00     0.037 C 
HETATM   13  C   UNL     1      25.474  43.727  50.754  1.00  0.00     0.236 C 
ENDROOT
BRANCH   4  14
HETATM   14  C   UNL     1      27.681  41.102  52.579  1.00  0.00     0.171 C 
BRANCH  14  15
HETATM   15  O   UNL     1      28.798  40.243  52.688  1.00  0.00    -0.400 OA
HETATM   16  H   UNL     1      29.578  40.693  52.305  1.00  0.00     0.209 HD
ENDBRANCH  14  15
ENDBRANCH   4  14
BRANCH   1  17
HETATM   17  C   UNL     1      26.188  44.214  53.143  1.00  0.00     0.273 C 
BRANCH  17  18
HETATM   18  C   UNL     1      27.303  44.707  54.029  1.00  0.00    -0.033 A 
HETATM   19  C   UNL     1      28.316  43.835  54.462  1.00  0.00     0.010 A 
HETATM   20  C   UNL     1      29.329  44.288  55.314  1.00  0.00     0.024 A 
HETATM   21  C   UNL     1      29.343  45.617  55.730  1.00  0.00     0.034 A 
HETATM   22  C   UNL     1      28.358  46.499  55.295  1.00  0.00     0.024 A 
HETATM   23 CL   UNL     1      30.580  46.169  56.785  1.00  0.00    -0.084 Cl
HETATM   24  C   UNL     1      27.344  46.047  54.446  1.00  0.00     0.010 A 
ENDBRANCH  17  18
ENDBRANCH   1  17
BRANCH   8  25
HETATM   25  C   UNL     1      26.473  39.101  47.127  1.00  0.00     0.192 C 
HETATM   26  C   UNL     1      26.875  39.434  45.682  1.00  0.00     0.059 C 
HETATM   27  C   UNL     1      27.953  38.493  45.162  1.00  0.00     0.169 C 
HETATM   28  O   UNL     1      27.534  37.143  45.296  1.00  0.00    -0.391 OA
HETATM   29  C   UNL     1      27.237  36.743  46.626  1.00  0.00     0.169 C 
HETATM   30  C   UNL     1      26.123  37.607  47.196  1.00  0.00     0.059 C 
ENDBRANCH   8  25
TORSDOF 5
ENDMDL
MODEL 5
REMARK VINA RESULT:      -7.1     11.314     12.539
REMARK  5 active torsions:
REMARK  status: ('A' for Active; 'I' for Inactive)
REMARK    1  A    between atoms: C_2  and  C_3 
REMARK    2  A    between atoms: C_3  and  N_4 
REMARK    3  A    between atoms: C_7  and  C_8 
REMARK    4  A    between atoms: C_8  and  O_9 
REMARK    5  A    between atoms: N_13  and  C_15 
ROOT
HETATM    1  N   UNL     1      33.534  50.295  42.399  1.00  0.00    -0.067 N 
HETATM    2  H   UNL     1      34.152  49.749  43.016  1.00  0.00     0.280 HD
HETATM    3  C   UNL     1      32.299  50.516  43.233  1.00  0.00     0.242 C 
HETATM    4  C   UNL     1      31.036  50.900  42.414  1.00  0.00     0.044 C 
HETATM    5  C   UNL     1      30.796  49.957  41.178  1.00  0.00    -0.029 C 
HETATM    6  C   UNL     1      30.364  48.526  41.637  1.00  0.00     0.037 C 
HETATM    7  C   UNL     1      28.924  48.430  42.159  1.00  0.00     0.236 C 
HETATM    8  N   UNL     1      27.935  48.936  41.128  1.00  0.00    -0.067 N 
HETATM    9  H   UNL     1      27.029  48.985  41.620  1.00  0.00     0.280 HD
HETATM   10  C   UNL     1      28.271  50.376  40.789  1.00  0.00     0.236 C 
HETATM   11  C   UNL     1      29.684  50.469  40.211  1.00  0.00     0.037 C 
HETATM   12  C   UNL     1      32.129  49.879  40.379  1.00  0.00     0.037 C 
HETATM   13  C   UNL     1      33.330  49.419  41.201  1.00  0.00     0.236 C 
ENDROOT
BRANCH   4  14
HETATM   14  C   UNL     1      31.004  52.405  42.075  1.00  0.00     0.171 C 
BRANCH  14  15
HETATM   15  O   UNL     1      29.936  53.014  42.772  1.00  0.00    -0.400 OA
HETATM   16  H   UNL     1      29.192  52.380  42.822  1.00  0.00     0.209 HD
ENDBRANCH  14  15
ENDBRANCH   4  14
BRANCH   1  17
HETATM   17  C   UNL     1      34.389  51.529  42.139  1.00  0.00     0.273 C 
BRANCH  17  18
HETATM   18  C   UNL     1      35.717  51.491  42.852  1.00  0.00    -0.033 A 
HETATM   19  C   UNL     1      35.992  52.379  43.906  1.00  0.00     0.010 A 
HETATM   20  C   UNL     1      37.238  52.365  44.541  1.00  0.00     0.024 A 
HETATM   21  C   UNL     1      38.214  51.458  44.135  1.00  0.00     0.034 A 
HETATM   22  C   UNL     1      37.951  50.560  43.105  1.00  0.00     0.024 A 
HETATM   23 CL   UNL     1      39.748  51.451  44.907  1.00  0.00    -0.084 Cl
HETATM   24  C   UNL     1      36.707  50.574  42.469  1.00  0.00     0.010 A 
ENDBRANCH  17  18
ENDBRANCH   1  17
BRANCH   8  25
HETATM   25  C   UNL     1      27.686  47.988  39.917  1.00  0.00     0.192 C 
HETATM   26  C   UNL     1      27.355  46.560  40.377  1.00  0.00     0.059 C 
HETATM   27  C   UNL     1      25.968  46.472  40.999  1.00  0.00     0.169 C 
HETATM   28  O   UNL     1      24.992  46.976  40.098  1.00  0.00    -0.391 OA
HETATM   29  C   UNL     1      25.188  48.327  39.707  1.00  0.00     0.169 C 
HETATM   30  C   UNL     1      26.538  48.482  39.023  1.00  0.00     0.059 C 
ENDBRANCH   8  25
TORSDOF 5
ENDMDL
MODEL 6
REMARK VINA RESULT:      -7.1      5.178      8.148
REMARK  5 active torsions:
REMARK  status: ('A' for Active; 'I' for Inactive)
REMARK    1  A    between atoms: C_2  and  C_3 
REMARK    2  A    between atoms: C_3  and  N_4 
REMARK    3  A    between atoms: C_7  and  C_8 
REMARK    4  A    between atoms: C_8  and  O_9 
REMARK    5  A    between atoms: N_13  and  C_15 
ROOT
HETATM    1  N   UNL     1      21.248  48.161  48.239  1.00  0.00    -0.067 N 
HETATM    2  H   UNL     1      22.019  47.543  47.948  1.00  0.00     0.280 HD
HETATM    3  C   UNL     1      20.210  47.211  48.779  1.00  0.00     0.242 C 
HETATM    4  C   UNL     1      18.778  47.806  48.857  1.00  0.00     0.044 C 
HETATM    5  C   UNL     1      18.338  48.523  47.527  1.00  0.00    -0.029 C 
HETATM    6  C   UNL     1      18.110  47.488  46.378  1.00  0.00     0.037 C 
HETATM    7  C   UNL     1      16.826  46.658  46.512  1.00  0.00     0.236 C 
HETATM    8  N   UNL     1      15.607  47.551  46.619  1.00  0.00    -0.067 N 
HETATM    9  H   UNL     1      14.828  46.921  46.865  1.00  0.00     0.280 HD
HETATM   10  C   UNL     1      15.768  48.459  47.823  1.00  0.00     0.236 C 
HETATM   11  C   UNL     1      17.012  49.333  47.667  1.00  0.00     0.037 C 
HETATM   12  C   UNL     1      19.469  49.517  47.131  1.00  0.00     0.037 C 
HETATM   13  C   UNL     1      20.846  48.877  46.986  1.00  0.00     0.236 C 
ENDROOT
BRANCH   4  14
HETATM   14  C   UNL     1      18.575  48.656  50.129  1.00  0.00     0.171 C 
BRANCH  14  15
HETATM   15  O   UNL     1      18.852  47.862  51.265  1.00  0.00    -0.400 OA
HETATM   16  H   UNL     1      18.700  46.923  51.036  1.00  0.00     0.209 HD
ENDBRANCH  14  15
ENDBRANCH   4  14
BRANCH   1  17
HETATM   17  C   UNL     1      21.944  49.040  49.271  1.00  0.00     0.273 C 
BRANCH  17  18
HETATM   18  C   UNL     1      23.448  48.969  49.193  1.00  0.00    -0.033 A 
HETATM   19  C   UNL     1      24.155  47.956  49.864  1.00  0.00     0.010 A 
HETATM   20  C   UNL     1      25.552  47.915  49.818  1.00  0.00     0.024 A 
HETATM   21  C   UNL     1      26.252  48.878  49.094  1.00  0.00     0.034 A 
HETATM   22  C   UNL     1      25.566  49.876  48.409  1.00  0.00     0.024 A 
HETATM   23 CL   UNL     1      27.968  48.833  49.049  1.00  0.00    -0.084 Cl
HETATM   24  C   UNL     1      24.170  49.919  48.455  1.00  0.00     0.010 A 
ENDBRANCH  17  18
ENDBRANCH   1  17
BRANCH   8  25
HETATM   25  C   UNL     1      15.164  48.242  45.295  1.00  0.00     0.192 C 
HETATM   26  C   UNL     1      15.429  47.346  44.075  1.00  0.00     0.059 C 
HETATM   27  C   UNL     1      14.473  46.162  44.022  1.00  0.00     0.169 C 
HETATM   28  O   UNL     1      13.128  46.615  44.062  1.00  0.00    -0.391 OA
HETATM   29  C   UNL     1      12.790  47.373  45.216  1.00  0.00     0.169 C 
HETATM   30  C   UNL     1      13.673  48.608  45.306  1.00  0.00     0.059 C 
ENDBRANCH   8  25
TORSDOF 5
ENDMDL
MODEL 7
REMARK VINA RESULT:      -7.1      5.051      8.353
REMARK  5 active torsions:
REMARK  status: ('A' for Active; 'I' for Inactive)
REMARK    1  A    between atoms: C_2  and  C_3 
REMARK    2  A    between atoms: C_3  and  N_4 
REMARK    3  A    between atoms: C_7  and  C_8 
REMARK    4  A    between atoms: C_8  and  O_9 
REMARK    5  A    between atoms: N_13  and  C_15 
ROOT
HETATM    1  N   UNL     1      21.362  49.037  47.890  1.00  0.00    -0.067 N 
HETATM    2  H   UNL     1      22.060  48.675  47.224  1.00  0.00     0.280 HD
HETATM    3  C   UNL     1      20.102  48.294  47.529  1.00  0.00     0.242 C 
HETATM    4  C   UNL     1      18.798  48.958  48.047  1.00  0.00     0.044 C 
HETATM    5  C   UNL     1      18.727  50.498  47.731  1.00  0.00    -0.029 C 
HETATM    6  C   UNL     1      18.539  50.752  46.200  1.00  0.00     0.037 C 
HETATM    7  C   UNL     1      17.133  50.443  45.669  1.00  0.00     0.236 C 
HETATM    8  N   UNL     1      16.079  51.222  46.430  1.00  0.00    -0.067 N 
HETATM    9  H   UNL     1      15.175  50.834  46.119  1.00  0.00     0.280 HD
HETATM   10  C   UNL     1      16.170  50.865  47.901  1.00  0.00     0.236 C 
HETATM   11  C   UNL     1      17.550  51.227  48.451  1.00  0.00     0.037 C 
HETATM   12  C   UNL     1      20.059  51.140  48.217  1.00  0.00     0.037 C 
HETATM   13  C   UNL     1      21.315  50.510  47.623  1.00  0.00     0.236 C 
ENDROOT
BRANCH   4  14
HETATM   14  C   UNL     1      18.514  48.603  49.522  1.00  0.00     0.171 C 
BRANCH  14  15
HETATM   15  O   UNL     1      19.112  47.357  49.821  1.00  0.00    -0.400 OA
HETATM   16  H   UNL     1      19.447  46.964  48.990  1.00  0.00     0.209 HD
ENDBRANCH  14  15
ENDBRANCH   4  14
BRANCH   1  17
HETATM   17  C   UNL     1      21.998  48.658  49.221  1.00  0.00     0.273 C 
BRANCH  17  18
HETATM   18  C   UNL     1      23.505  48.708  49.194  1.00  0.00    -0.033 A 
HETATM   19  C   UNL     1      24.268  47.781  49.923  1.00  0.00     0.010 A 
HETATM   20  C   UNL     1      25.665  47.854  49.923  1.00  0.00     0.024 A 
HETATM   21  C   UNL     1      26.309  48.846  49.188  1.00  0.00     0.034 A 
HETATM   22  C   UNL     1      25.568  49.760  48.445  1.00  0.00     0.024 A 
HETATM   23 CL   UNL     1      28.023  48.941  49.199  1.00  0.00    -0.084 Cl
HETATM   24  C   UNL     1      24.173  49.690  48.445  1.00  0.00     0.010 A 
ENDBRANCH  17  18
ENDBRANCH   1  17
BRANCH   8  25
HETATM   25  C   UNL     1      16.001  52.743  46.098  1.00  0.00     0.192 C 
HETATM   26  C   UNL     1      16.305  53.013  44.616  1.00  0.00     0.059 C 
HETATM   27  C   UNL     1      15.175  52.544  43.711  1.00  0.00     0.169 C 
HETATM   28  O   UNL     1      13.946  53.131  44.113  1.00  0.00    -0.391 OA
HETATM   29  C   UNL     1      13.558  52.840  45.448  1.00  0.00     0.169 C 
HETATM   30  C   UNL     1      14.619  53.333  46.420  1.00  0.00     0.059 C 
ENDBRANCH   8  25
TORSDOF 5
ENDMDL
MODEL 8
REMARK VINA RESULT:      -7.0     11.228     12.441
REMARK  5 active torsions:
REMARK  status: ('A' for Active; 'I' for Inactive)
REMARK    1  A    between atoms: C_2  and  C_3 
REMARK    2  A    between atoms: C_3  and  N_4 
REMARK    3  A    between atoms: C_7  and  C_8 
REMARK    4  A    between atoms: C_8  and  O_9 
REMARK    5  A    between atoms: N_13  and  C_15 
ROOT
HETATM    1  N   UNL     1      32.047  50.266  41.948  1.00  0.00    -0.067 N 
HETATM    2  H   UNL     1      32.140  50.837  42.801  1.00  0.00     0.280 HD
HETATM    3  C   UNL     1      31.095  51.056  41.088  1.00  0.00     0.242 C 
HETATM    4  C   UNL     1      30.418  50.231  39.960  1.00  0.00     0.044 C 
HETATM    5  C   UNL     1      29.815  48.871  40.473  1.00  0.00    -0.029 C 
HETATM    6  C   UNL     1      28.566  49.115  41.381  1.00  0.00     0.037 C 
HETATM    7  C   UNL     1      27.301  49.544  40.625  1.00  0.00     0.236 C 
HETATM    8  N   UNL     1      26.940  48.539  39.550  1.00  0.00    -0.067 N 
HETATM    9  H   UNL     1      26.190  48.985  39.000  1.00  0.00     0.280 HD
HETATM   10  C   UNL     1      28.104  48.409  38.586  1.00  0.00     0.236 C 
HETATM   11  C   UNL     1      29.352  47.923  39.323  1.00  0.00     0.037 C 
HETATM   12  C   UNL     1      30.925  48.138  41.281  1.00  0.00     0.037 C 
HETATM   13  C   UNL     1      31.508  48.954  42.431  1.00  0.00     0.236 C 
ENDROOT
BRANCH   4  14
HETATM   14  C   UNL     1      31.328  50.090  38.721  1.00  0.00     0.171 C 
BRANCH  14  15
HETATM   15  O   UNL     1      30.795  50.864  37.665  1.00  0.00    -0.400 OA
HETATM   16  H   UNL     1      31.218  50.585  36.828  1.00  0.00     0.209 HD
ENDBRANCH  14  15
ENDBRANCH   4  14
BRANCH   1  17
HETATM   17  C   UNL     1      33.492  50.214  41.466  1.00  0.00     0.273 C 
BRANCH  17  18
HETATM   18  C   UNL     1      34.438  50.992  42.345  1.00  0.00    -0.033 A 
HETATM   19  C   UNL     1      33.975  51.636  43.505  1.00  0.00     0.010 A 
HETATM   20  C   UNL     1      34.849  52.387  44.298  1.00  0.00     0.024 A 
HETATM   21  C   UNL     1      36.192  52.491  43.944  1.00  0.00     0.034 A 
HETATM   22  C   UNL     1      36.670  51.843  42.809  1.00  0.00     0.024 A 
HETATM   23 CL   UNL     1      37.262  53.423  44.912  1.00  0.00    -0.084 Cl
HETATM   24  C   UNL     1      35.798  51.095  42.015  1.00  0.00     0.010 A 
ENDBRANCH  17  18
ENDBRANCH   1  17
BRANCH   8  25
HETATM   25  C   UNL     1      26.324  47.202  40.063  1.00  0.00     0.192 C 
HETATM   26  C   UNL     1      25.045  47.447  40.879  1.00  0.00     0.059 C 
HETATM   27  C   UNL     1      23.885  47.885  39.997  1.00  0.00     0.169 C 
HETATM   28  O   UNL     1      23.675  46.943  38.956  1.00  0.00    -0.391 OA
HETATM   29  C   UNL     1      24.793  46.740  38.103  1.00  0.00     0.169 C 
HETATM   30  C   UNL     1      25.983  46.245  38.911  1.00  0.00     0.059 C 
ENDBRANCH   8  25
TORSDOF 5
ENDMDL
MODEL 9
REMARK VINA RESULT:      -6.7     11.577     13.150
REMARK  5 active torsions:
REMARK  status: ('A' for Active; 'I' for Inactive)
REMARK    1  A    between atoms: C_2  and  C_3 
REMARK    2  A    between atoms: C_3  and  N_4 
REMARK    3  A    between atoms: C_7  and  C_8 
REMARK    4  A    between atoms: C_8  and  O_9 
REMARK    5  A    between atoms: N_13  and  C_15 
ROOT
HETATM    1  N   UNL     1      29.460  50.371  41.820  1.00  0.00    -0.067 N 
HETATM    2  H   UNL     1      29.065  50.601  42.744  1.00  0.00     0.280 HD
HETATM    3  C   UNL     1      28.246  50.114  40.964  1.00  0.00     0.242 C 
HETATM    4  C   UNL     1      28.536  49.307  39.670  1.00  0.00     0.044 C 
HETATM    5  C   UNL     1      29.400  48.018  39.932  1.00  0.00    -0.029 C 
HETATM    6  C   UNL     1      28.581  46.940  40.715  1.00  0.00     0.037 C 
HETATM    7  C   UNL     1      27.516  46.218  39.880  1.00  0.00     0.236 C 
HETATM    8  N   UNL     1      28.127  45.575  38.651  1.00  0.00    -0.067 N 
HETATM    9  H   UNL     1      27.327  45.262  38.081  1.00  0.00     0.280 HD
HETATM   10  C   UNL     1      28.800  46.649  37.819  1.00  0.00     0.236 C 
HETATM   11  C   UNL     1      29.905  47.331  38.625  1.00  0.00     0.037 C 
HETATM   12  C   UNL     1      30.645  48.446  40.762  1.00  0.00     0.037 C 
HETATM   13  C   UNL     1      30.315  49.166  42.066  1.00  0.00     0.236 C 
ENDROOT
BRANCH   4  14
HETATM   14  C   UNL     1      29.072  50.206  38.536  1.00  0.00     0.171 C 
BRANCH  14  15
HETATM   15  O   UNL     1      27.983  50.822  37.880  1.00  0.00    -0.400 OA
HETATM   16  H   UNL     1      27.693  50.245  37.145  1.00  0.00     0.209 HD
ENDBRANCH  14  15
ENDBRANCH   4  14
BRANCH   1  17
HETATM   17  C   UNL     1      30.238  51.642  41.505  1.00  0.00     0.273 C 
BRANCH  17  18
HETATM   18  C   UNL     1      31.673  51.586  41.964  1.00  0.00    -0.033 A 
HETATM   19  C   UNL     1      31.997  51.705  43.326  1.00  0.00     0.010 A 
HETATM   20  C   UNL     1      33.332  51.690  43.744  1.00  0.00     0.024 A 
HETATM   21  C   UNL     1      34.351  51.546  42.806  1.00  0.00     0.034 A 
HETATM   22  C   UNL     1      34.047  51.408  41.455  1.00  0.00     0.024 A 
HETATM   23 CL   UNL     1      35.990  51.539  43.319  1.00  0.00    -0.084 Cl
HETATM   24  C   UNL     1      32.714  51.425  41.036  1.00  0.00     0.010 A 
ENDBRANCH  17  18
ENDBRANCH   1  17
BRANCH   8  25
HETATM   25  C   UNL     1      28.964  44.288  38.915  1.00  0.00     0.192 C 
HETATM   26  C   UNL     1      28.152  43.234  39.684  1.00  0.00     0.059 C 
HETATM   27  C   UNL     1      27.072  42.605  38.814  1.00  0.00     0.169 C 
HETATM   28  O   UNL     1      27.644  42.071  37.629  1.00  0.00    -0.391 OA
HETATM   29  C   UNL     1      28.330  43.016  36.822  1.00  0.00     0.169 C 
HETATM   30  C   UNL     1      29.466  43.649  37.611  1.00  0.00     0.059 C 
ENDBRANCH   8  25
TORSDOF 5
ENDMDL
MODEL 10
REMARK VINA RESULT:      -6.6     19.403     22.116
REMARK  5 active torsions:
REMARK  status: ('A' for Active; 'I' for Inactive)
REMARK    1  A    between atoms: C_2  and  C_3 
REMARK    2  A    between atoms: C_3  and  N_4 
REMARK    3  A    between atoms: C_7  and  C_8 
REMARK    4  A    between atoms: C_8  and  O_9 
REMARK    5  A    between atoms: N_13  and  C_15 
ROOT
HETATM    1  N   UNL     1      39.471  45.186  65.164  1.00  0.00    -0.067 N 
HETATM    2  H   UNL     1      39.899  45.904  65.766  1.00  0.00     0.280 HD
HETATM    3  C   UNL     1      38.923  44.178  66.141  1.00  0.00     0.242 C 
HETATM    4  C   UNL     1      38.639  42.781  65.526  1.00  0.00     0.044 C 
HETATM    5  C   UNL     1      39.840  42.232  64.670  1.00  0.00    -0.029 C 
HETATM    6  C   UNL     1      41.056  41.857  65.579  1.00  0.00     0.037 C 
HETATM    7  C   UNL     1      40.872  40.567  66.390  1.00  0.00     0.236 C 
HETATM    8  N   UNL     1      40.553  39.394  65.486  1.00  0.00    -0.067 N 
HETATM    9  H   UNL     1      40.290  38.624  66.121  1.00  0.00     0.280 HD
HETATM   10  C   UNL     1      39.289  39.703  64.707  1.00  0.00     0.236 C 
HETATM   11  C   UNL     1      39.486  40.953  63.849  1.00  0.00     0.037 C 
HETATM   12  C   UNL     1      40.251  43.348  63.666  1.00  0.00     0.037 C 
HETATM   13  C   UNL     1      40.600  44.683  64.318  1.00  0.00     0.236 C 
ENDROOT
BRANCH   4  14
HETATM   14  C   UNL     1      37.276  42.733  64.804  1.00  0.00     0.171 C 
BRANCH  14  15
HETATM   15  O   UNL     1      36.295  42.249  65.699  1.00  0.00    -0.400 OA
HETATM   16  H   UNL     1      36.638  41.441  66.132  1.00  0.00     0.209 HD
ENDBRANCH  14  15
ENDBRANCH   4  14
BRANCH   1  17
HETATM   17  C   UNL     1      38.435  46.009  64.409  1.00  0.00     0.273 C 
BRANCH  17  18
HETATM   18  C   UNL     1      38.282  47.408  64.949  1.00  0.00    -0.033 A 
HETATM   19  C   UNL     1      37.175  47.754  65.743  1.00  0.00     0.010 A 
HETATM   20  C   UNL     1      37.018  49.063  66.213  1.00  0.00     0.024 A 
HETATM   21  C   UNL     1      37.969  50.031  65.900  1.00  0.00     0.034 A 
HETATM   22  C   UNL     1      39.080  49.700  65.131  1.00  0.00     0.024 A 
HETATM   23 CL   UNL     1      37.768  51.640  66.466  1.00  0.00    -0.084 Cl
HETATM   24  C   UNL     1      39.237  48.394  64.660  1.00  0.00     0.010 A 
ENDBRANCH  17  18
ENDBRANCH   1  17
BRANCH   8  25
HETATM   25  C   UNL     1      41.750  38.843  64.656  1.00  0.00     0.192 C 
HETATM   26  C   UNL     1      43.061  38.888  65.458  1.00  0.00     0.059 C 
HETATM   27  C   UNL     1      43.082  37.848  66.569  1.00  0.00     0.169 C 
HETATM   28  O   UNL     1      42.832  36.555  66.038  1.00  0.00    -0.391 OA
HETATM   29  C   UNL     1      41.589  36.420  65.364  1.00  0.00     0.169 C 
HETATM   30  C   UNL     1      41.518  37.395  64.199  1.00  0.00     0.059 C 
ENDBRANCH   8  25
TORSDOF 5
ENDMDL
