MODEL 1
REMARK VINA RESULT:      -8.7      0.000      0.000
REMARK  5 active torsions:
REMARK  status: ('A' for Active; 'I' for Inactive)
REMARK    1  A    between atoms: C_9  and  C_10 
REMARK    2  A    between atoms: C_11  and  O_12 
REMARK    3  A    between atoms: O_12  and  C_13 
REMARK    4  A    between atoms: C_20  and  C_21 
REMARK       I    between atoms: C_21  and  N_22 
REMARK    5  A    between atoms: N_22  and  C_23 
ROOT
HETATM    1  C   UNL     1      29.142  39.677  51.006  1.00  0.00     0.070 C 
HETATM    2  C   UNL     1      27.895  40.452  50.664  1.00  0.00     0.037 A 
HETATM    3  N   UNL     1      27.297  40.127  49.452  1.00  0.00    -0.192 N 
HETATM    4  C   UNL     1      26.104  40.614  49.061  1.00  0.00     0.725 A 
HETATM    5  N   UNL     1      25.470  41.546  49.838  1.00  0.00    -0.084 N 
HETATM    6  N   UNL     1      24.256  41.860  49.333  1.00  0.00    -0.149 NA
HETATM    7  C   UNL     1      24.247  41.107  48.227  1.00  0.00     0.275 A 
HETATM    8  N   UNL     1      25.361  40.337  48.019  1.00  0.00    -0.054 NA
HETATM    9  C   UNL     1      26.005  42.060  51.104  1.00  0.00     0.205 A 
HETATM   10  C   UNL     1      27.318  41.379  51.468  1.00  0.00     0.063 A 
HETATM   11  H   UNL     1      27.734  39.403  48.886  1.00  0.00     0.184 HD
ENDROOT
BRANCH   9  12
HETATM   12  C   UNL     1      26.100  43.587  51.062  1.00  0.00     0.005 A 
HETATM   13  C   UNL     1      25.595  44.413  52.087  1.00  0.00     0.083 A 
HETATM   14  C   UNL     1      25.714  45.804  51.981  1.00  0.00     0.037 A 
HETATM   15  C   UNL     1      26.346  46.378  50.876  1.00  0.00     0.003 A 
HETATM   16  C   UNL     1      26.850  45.571  49.863  1.00  0.00     0.001 A 
HETATM   17  C   UNL     1      26.725  44.187  49.952  1.00  0.00     0.012 A 
BRANCH  13  18
HETATM   18  O   UNL     1      24.953  43.786  53.120  1.00  0.00    -0.290 OA
BRANCH  18  19
HETATM   19  C   UNL     1      25.276  44.233  54.427  1.00  0.00     0.505 C 
HETATM   20  F   UNL     1      24.124  44.500  55.092  1.00  0.00    -0.184 F 
HETATM   21  F   UNL     1      25.853  43.189  55.075  1.00  0.00    -0.184 F 
ENDBRANCH  18  19
ENDBRANCH  13  18
ENDBRANCH   9  12
BRANCH  10  22
HETATM   22  C   UNL     1      27.841  41.762  52.803  1.00  0.00     0.256 C 
HETATM   23  N   UNL     1      28.559  42.937  52.785  1.00  0.00    -0.323 N 
HETATM   24  H   UNL     1      28.630  43.415  51.895  1.00  0.00     0.169 HD
HETATM   25  O   UNL     1      27.565  41.059  53.766  1.00  0.00    -0.267 OA
BRANCH  23  26
HETATM   26  C   UNL     1      29.202  43.562  53.872  1.00  0.00     0.035 A 
HETATM   27  C   UNL     1      30.342  43.055  54.500  1.00  0.00     0.029 A 
HETATM   28  C   UNL     1      30.929  43.742  55.568  1.00  0.00     0.002 A 
HETATM   29  C   UNL     1      30.385  44.944  56.012  1.00  0.00     0.000 A 
HETATM   30  C   UNL     1      29.251  45.459  55.393  1.00  0.00     0.002 A 
HETATM   31  C   UNL     1      28.660  44.769  54.331  1.00  0.00     0.029 A 
ENDBRANCH  23  26
ENDBRANCH  10  22
TORSDOF 5
ENDMDL
MODEL 2
REMARK VINA RESULT:      -8.1      2.939      4.902
REMARK  5 active torsions:
REMARK  status: ('A' for Active; 'I' for Inactive)
REMARK    1  A    between atoms: C_9  and  C_10 
REMARK    2  A    between atoms: C_11  and  O_12 
REMARK    3  A    between atoms: O_12  and  C_13 
REMARK    4  A    between atoms: C_20  and  C_21 
REMARK       I    between atoms: C_21  and  N_22 
REMARK    5  A    between atoms: N_22  and  C_23 
ROOT
HETATM    1  C   UNL     1      25.881  47.376  55.018  1.00  0.00     0.070 C 
HETATM    2  C   UNL     1      26.128  46.836  53.633  1.00  0.00     0.037 A 
HETATM    3  N   UNL     1      25.565  47.567  52.593  1.00  0.00    -0.192 N 
HETATM    4  C   UNL     1      25.808  47.312  51.293  1.00  0.00     0.725 A 
HETATM    5  N   UNL     1      26.574  46.230  50.951  1.00  0.00    -0.084 N 
HETATM    6  N   UNL     1      26.776  46.176  49.615  1.00  0.00    -0.149 NA
HETATM    7  C   UNL     1      26.066  47.237  49.216  1.00  0.00     0.275 A 
HETATM    8  N   UNL     1      25.452  47.954  50.209  1.00  0.00    -0.054 NA
HETATM    9  C   UNL     1      27.173  45.308  51.923  1.00  0.00     0.205 A 
HETATM   10  C   UNL     1      26.885  45.747  53.352  1.00  0.00     0.063 A 
HETATM   11  H   UNL     1      25.032  48.399  52.831  1.00  0.00     0.184 HD
ENDROOT
BRANCH   9  12
HETATM   12  C   UNL     1      26.744  43.869  51.627  1.00  0.00     0.005 A 
HETATM   13  C   UNL     1      27.620  42.769  51.745  1.00  0.00     0.083 A 
HETATM   14  C   UNL     1      27.159  41.480  51.454  1.00  0.00     0.037 A 
HETATM   15  C   UNL     1      25.834  41.271  51.068  1.00  0.00     0.003 A 
HETATM   16  C   UNL     1      24.962  42.348  50.953  1.00  0.00     0.001 A 
HETATM   17  C   UNL     1      25.414  43.637  51.227  1.00  0.00     0.012 A 
BRANCH  13  18
HETATM   18  O   UNL     1      28.914  43.052  52.088  1.00  0.00    -0.290 OA
BRANCH  18  19
HETATM   19  C   UNL     1      29.651  41.996  52.684  1.00  0.00     0.505 C 
HETATM   20  F   UNL     1      30.888  42.455  53.001  1.00  0.00    -0.184 F 
HETATM   21  F   UNL     1      29.044  41.700  53.862  1.00  0.00    -0.184 F 
ENDBRANCH  18  19
ENDBRANCH  13  18
ENDBRANCH   9  12
BRANCH  10  22
HETATM   22  C   UNL     1      27.575  44.928  54.380  1.00  0.00     0.256 C 
HETATM   23  N   UNL     1      28.752  45.493  54.820  1.00  0.00    -0.323 N 
HETATM   24  H   UNL     1      29.002  46.392  54.426  1.00  0.00     0.169 HD
HETATM   25  O   UNL     1      27.043  43.895  54.764  1.00  0.00    -0.267 OA
BRANCH  23  26
HETATM   26  C   UNL     1      29.651  44.966  55.768  1.00  0.00     0.035 A 
HETATM   27  C   UNL     1      30.455  43.846  55.543  1.00  0.00     0.029 A 
HETATM   28  C   UNL     1      31.331  43.391  56.533  1.00  0.00     0.002 A 
HETATM   29  C   UNL     1      31.416  44.054  57.754  1.00  0.00     0.000 A 
HETATM   30  C   UNL     1      30.621  45.172  57.989  1.00  0.00     0.002 A 
HETATM   31  C   UNL     1      29.739  45.622  57.002  1.00  0.00     0.029 A 
ENDBRANCH  23  26
ENDBRANCH  10  22
TORSDOF 5
ENDMDL
MODEL 3
REMARK VINA RESULT:      -7.8      2.277      2.963
REMARK  5 active torsions:
REMARK  status: ('A' for Active; 'I' for Inactive)
REMARK    1  A    between atoms: C_9  and  C_10 
REMARK    2  A    between atoms: C_11  and  O_12 
REMARK    3  A    between atoms: O_12  and  C_13 
REMARK    4  A    between atoms: C_20  and  C_21 
REMARK       I    between atoms: C_21  and  N_22 
REMARK    5  A    between atoms: N_22  and  C_23 
ROOT
HETATM    1  C   UNL     1      28.371  41.117  50.967  1.00  0.00     0.070 C 
HETATM    2  C   UNL     1      27.178  42.020  51.153  1.00  0.00     0.037 A 
HETATM    3  N   UNL     1      26.322  42.118  50.062  1.00  0.00    -0.192 N 
HETATM    4  C   UNL     1      25.138  42.760  50.106  1.00  0.00     0.725 A 
HETATM    5  N   UNL     1      24.778  43.432  51.244  1.00  0.00    -0.084 N 
HETATM    6  N   UNL     1      23.533  43.945  51.135  1.00  0.00    -0.149 NA
HETATM    7  C   UNL     1      23.222  43.577  49.887  1.00  0.00     0.275 A 
HETATM    8  N   UNL     1      24.180  42.858  49.220  1.00  0.00    -0.054 NA
HETATM    9  C   UNL     1      25.605  43.498  52.454  1.00  0.00     0.205 A 
HETATM   10  C   UNL     1      26.878  42.676  52.301  1.00  0.00     0.063 A 
HETATM   11  H   UNL     1      26.554  41.588  49.227  1.00  0.00     0.184 HD
ENDROOT
BRANCH   9  12
HETATM   12  C   UNL     1      25.862  44.956  52.844  1.00  0.00     0.005 A 
HETATM   13  C   UNL     1      26.387  45.907  51.945  1.00  0.00     0.083 A 
HETATM   14  C   UNL     1      26.599  47.223  52.371  1.00  0.00     0.037 A 
HETATM   15  C   UNL     1      26.278  47.606  53.675  1.00  0.00     0.003 A 
HETATM   16  C   UNL     1      25.756  46.676  54.567  1.00  0.00     0.001 A 
HETATM   17  C   UNL     1      25.553  45.360  54.157  1.00  0.00     0.012 A 
BRANCH  13  18
HETATM   18  O   UNL     1      26.717  45.453  50.697  1.00  0.00    -0.290 OA
BRANCH  18  19
HETATM   19  C   UNL     1      26.139  46.147  49.602  1.00  0.00     0.505 C 
HETATM   20  F   UNL     1      24.916  46.603  49.972  1.00  0.00    -0.184 F 
HETATM   21  F   UNL     1      26.902  47.248  49.380  1.00  0.00    -0.184 F 
ENDBRANCH  18  19
ENDBRANCH  13  18
ENDBRANCH   9  12
BRANCH  10  22
HETATM   22  C   UNL     1      27.692  42.597  53.540  1.00  0.00     0.256 C 
HETATM   23  N   UNL     1      28.511  43.690  53.718  1.00  0.00    -0.323 N 
HETATM   24  H   UNL     1      28.454  44.421  53.020  1.00  0.00     0.169 HD
HETATM   25  O   UNL     1      27.539  41.637  54.284  1.00  0.00    -0.267 OA
BRANCH  23  26
HETATM   26  C   UNL     1      29.419  43.914  54.772  1.00  0.00     0.035 A 
HETATM   27  C   UNL     1      30.428  43.020  55.136  1.00  0.00     0.029 A 
HETATM   28  C   UNL     1      31.297  43.322  56.190  1.00  0.00     0.002 A 
HETATM   29  C   UNL     1      31.169  44.522  56.884  1.00  0.00     0.000 A 
HETATM   30  C   UNL     1      30.167  45.420  56.529  1.00  0.00     0.002 A 
HETATM   31  C   UNL     1      29.294  45.116  55.481  1.00  0.00     0.029 A 
ENDBRANCH  23  26
ENDBRANCH  10  22
TORSDOF 5
ENDMDL
MODEL 4
REMARK VINA RESULT:      -7.7     13.217     15.461
REMARK  5 active torsions:
REMARK  status: ('A' for Active; 'I' for Inactive)
REMARK    1  A    between atoms: C_9  and  C_10 
REMARK    2  A    between atoms: C_11  and  O_12 
REMARK    3  A    between atoms: O_12  and  C_13 
REMARK    4  A    between atoms: C_20  and  C_21 
REMARK       I    between atoms: C_21  and  N_22 
REMARK    5  A    between atoms: N_22  and  C_23 
ROOT
HETATM    1  C   UNL     1      32.581  48.039  41.930  1.00  0.00     0.070 C 
HETATM    2  C   UNL     1      32.724  49.269  41.071  1.00  0.00     0.037 A 
HETATM    3  N   UNL     1      33.851  50.045  41.313  1.00  0.00    -0.192 N 
HETATM    4  C   UNL     1      34.209  51.091  40.544  1.00  0.00     0.725 A 
HETATM    5  N   UNL     1      33.391  51.484  39.518  1.00  0.00    -0.084 N 
HETATM    6  N   UNL     1      33.944  52.493  38.810  1.00  0.00    -0.149 NA
HETATM    7  C   UNL     1      35.078  52.682  39.494  1.00  0.00     0.275 A 
HETATM    8  N   UNL     1      35.274  51.851  40.567  1.00  0.00    -0.054 NA
HETATM    9  C   UNL     1      32.123  50.825  39.181  1.00  0.00     0.205 A 
HETATM   10  C   UNL     1      31.871  49.619  40.076  1.00  0.00     0.063 A 
HETATM   11  H   UNL     1      34.490  49.739  42.042  1.00  0.00     0.184 HD
ENDROOT
BRANCH   9  12
HETATM   12  C   UNL     1      30.978  51.840  39.187  1.00  0.00     0.005 A 
HETATM   13  C   UNL     1      30.791  52.778  40.224  1.00  0.00     0.083 A 
HETATM   14  C   UNL     1      29.719  53.676  40.164  1.00  0.00     0.037 A 
HETATM   15  C   UNL     1      28.844  53.662  39.076  1.00  0.00     0.003 A 
HETATM   16  C   UNL     1      29.022  52.745  38.047  1.00  0.00     0.001 A 
HETATM   17  C   UNL     1      30.079  51.838  38.103  1.00  0.00     0.012 A 
BRANCH  13  18
HETATM   18  O   UNL     1      31.661  52.707  41.277  1.00  0.00    -0.290 OA
BRANCH  18  19
HETATM   19  C   UNL     1      31.097  52.384  42.538  1.00  0.00     0.505 C 
HETATM   20  F   UNL     1      30.261  51.326  42.383  1.00  0.00    -0.184 F 
HETATM   21  F   UNL     1      32.112  51.950  43.329  1.00  0.00    -0.184 F 
ENDBRANCH  18  19
ENDBRANCH  13  18
ENDBRANCH   9  12
BRANCH  10  22
HETATM   22  C   UNL     1      30.670  48.834  39.697  1.00  0.00     0.256 C 
HETATM   23  N   UNL     1      29.576  49.105  40.489  1.00  0.00    -0.323 N 
HETATM   24  H   UNL     1      29.696  49.808  41.208  1.00  0.00     0.169 HD
HETATM   25  O   UNL     1      30.737  48.084  38.732  1.00  0.00    -0.267 OA
BRANCH  23  26
HETATM   26  C   UNL     1      28.297  48.519  40.409  1.00  0.00     0.035 A 
HETATM   27  C   UNL     1      27.978  47.267  40.938  1.00  0.00     0.029 A 
HETATM   28  C   UNL     1      26.679  46.759  40.826  1.00  0.00     0.002 A 
HETATM   29  C   UNL     1      25.688  47.502  40.190  1.00  0.00     0.000 A 
HETATM   30  C   UNL     1      25.994  48.751  39.660  1.00  0.00     0.002 A 
HETATM   31  C   UNL     1      27.294  49.255  39.766  1.00  0.00     0.029 A 
ENDBRANCH  23  26
ENDBRANCH  10  22
TORSDOF 5
ENDMDL
MODEL 5
REMARK VINA RESULT:      -7.7      5.992      8.889
REMARK  5 active torsions:
REMARK  status: ('A' for Active; 'I' for Inactive)
REMARK    1  A    between atoms: C_9  and  C_10 
REMARK    2  A    between atoms: C_11  and  O_12 
REMARK    3  A    between atoms: O_12  and  C_13 
REMARK    4  A    between atoms: C_20  and  C_21 
REMARK       I    between atoms: C_21  and  N_22 
REMARK    5  A    between atoms: N_22  and  C_23 
ROOT
HETATM    1  C   UNL     1      25.332  48.383  49.486  1.00  0.00     0.070 C 
HETATM    2  C   UNL     1      24.566  47.085  49.506  1.00  0.00     0.037 A 
HETATM    3  N   UNL     1      25.250  45.990  50.021  1.00  0.00    -0.192 N 
HETATM    4  C   UNL     1      24.671  44.795  50.248  1.00  0.00     0.725 A 
HETATM    5  N   UNL     1      23.367  44.598  49.879  1.00  0.00    -0.084 N 
HETATM    6  N   UNL     1      22.932  43.374  50.253  1.00  0.00    -0.149 NA
HETATM    7  C   UNL     1      24.045  42.876  50.805  1.00  0.00     0.275 A 
HETATM    8  N   UNL     1      25.133  43.710  50.814  1.00  0.00    -0.054 NA
HETATM    9  C   UNL     1      22.529  45.623  49.246  1.00  0.00     0.205 A 
HETATM   10  C   UNL     1      23.276  46.944  49.112  1.00  0.00     0.063 A 
HETATM   11  H   UNL     1      26.204  46.134  50.340  1.00  0.00     0.184 HD
ENDROOT
BRANCH   9  12
HETATM   12  C   UNL     1      21.961  45.105  47.923  1.00  0.00     0.005 A 
HETATM   13  C   UNL     1      20.589  45.164  47.604  1.00  0.00     0.083 A 
HETATM   14  C   UNL     1      20.139  44.667  46.375  1.00  0.00     0.037 A 
HETATM   15  C   UNL     1      21.042  44.132  45.454  1.00  0.00     0.003 A 
HETATM   16  C   UNL     1      22.397  44.075  45.758  1.00  0.00     0.001 A 
HETATM   17  C   UNL     1      22.854  44.554  46.984  1.00  0.00     0.012 A 
BRANCH  13  18
HETATM   18  O   UNL     1      19.757  45.662  48.569  1.00  0.00    -0.290 OA
BRANCH  18  19
HETATM   19  C   UNL     1      18.747  46.557  48.128  1.00  0.00     0.505 C 
HETATM   20  F   UNL     1      18.137  47.093  49.215  1.00  0.00    -0.184 F 
HETATM   21  F   UNL     1      19.372  47.585  47.500  1.00  0.00    -0.184 F 
ENDBRANCH  18  19
ENDBRANCH  13  18
ENDBRANCH   9  12
BRANCH  10  22
HETATM   22  C   UNL     1      22.437  48.056  48.600  1.00  0.00     0.256 C 
HETATM   23  N   UNL     1      21.734  48.704  49.592  1.00  0.00    -0.323 N 
HETATM   24  H   UNL     1      21.878  48.378  50.540  1.00  0.00     0.169 HD
HETATM   25  O   UNL     1      22.477  48.320  47.405  1.00  0.00    -0.267 OA
BRANCH  23  26
HETATM   26  C   UNL     1      20.837  49.780  49.440  1.00  0.00     0.035 A 
HETATM   27  C   UNL     1      21.066  50.874  48.603  1.00  0.00     0.029 A 
HETATM   28  C   UNL     1      20.119  51.898  48.500  1.00  0.00     0.002 A 
HETATM   29  C   UNL     1      18.934  51.834  49.227  1.00  0.00     0.000 A 
HETATM   30  C   UNL     1      18.695  50.748  50.063  1.00  0.00     0.002 A 
HETATM   31  C   UNL     1      19.644  49.728  50.172  1.00  0.00     0.029 A 
ENDBRANCH  23  26
ENDBRANCH  10  22
TORSDOF 5
ENDMDL
MODEL 6
REMARK VINA RESULT:      -7.4      6.122      9.048
REMARK  5 active torsions:
REMARK  status: ('A' for Active; 'I' for Inactive)
REMARK    1  A    between atoms: C_9  and  C_10 
REMARK    2  A    between atoms: C_11  and  O_12 
REMARK    3  A    between atoms: O_12  and  C_13 
REMARK    4  A    between atoms: C_20  and  C_21 
REMARK       I    between atoms: C_21  and  N_22 
REMARK    5  A    between atoms: N_22  and  C_23 
ROOT
HETATM    1  C   UNL     1      18.961  47.027  46.234  1.00  0.00     0.070 C 
HETATM    2  C   UNL     1      19.608  47.929  47.253  1.00  0.00     0.037 A 
HETATM    3  N   UNL     1      18.901  49.083  47.571  1.00  0.00    -0.192 N 
HETATM    4  C   UNL     1      19.260  49.921  48.563  1.00  0.00     0.725 A 
HETATM    5  N   UNL     1      20.424  49.694  49.248  1.00  0.00    -0.084 N 
HETATM    6  N   UNL     1      20.581  50.584  50.253  1.00  0.00    -0.149 NA
HETATM    7  C   UNL     1      19.491  51.342  50.084  1.00  0.00     0.275 A 
HETATM    8  N   UNL     1      18.662  50.975  49.056  1.00  0.00    -0.054 NA
HETATM    9  C   UNL     1      21.328  48.570  48.980  1.00  0.00     0.205 A 
HETATM   10  C   UNL     1      20.774  47.661  47.891  1.00  0.00     0.063 A 
HETATM   11  H   UNL     1      18.013  49.240  47.103  1.00  0.00     0.184 HD
ENDROOT
BRANCH   9  12
HETATM   12  C   UNL     1      22.741  49.081  48.690  1.00  0.00     0.005 A 
HETATM   13  C   UNL     1      23.899  48.470  49.216  1.00  0.00     0.083 A 
HETATM   14  C   UNL     1      25.161  48.994  48.911  1.00  0.00     0.037 A 
HETATM   15  C   UNL     1      25.283  50.105  48.074  1.00  0.00     0.003 A 
HETATM   16  C   UNL     1      24.148  50.711  47.548  1.00  0.00     0.001 A 
HETATM   17  C   UNL     1      22.887  50.206  47.856  1.00  0.00     0.012 A 
BRANCH  13  18
HETATM   18  O   UNL     1      23.703  47.411  50.060  1.00  0.00    -0.290 OA
BRANCH  18  19
HETATM   19  C   UNL     1      24.869  46.736  50.504  1.00  0.00     0.505 C 
HETATM   20  F   UNL     1      24.558  46.014  51.610  1.00  0.00    -0.184 F 
HETATM   21  F   UNL     1      25.198  45.835  49.544  1.00  0.00    -0.184 F 
ENDBRANCH  18  19
ENDBRANCH  13  18
ENDBRANCH   9  12
BRANCH  10  22
HETATM   22  C   UNL     1      21.581  46.435  47.667  1.00  0.00     0.256 C 
HETATM   23  N   UNL     1      21.486  45.530  48.702  1.00  0.00    -0.323 N 
HETATM   24  H   UNL     1      20.875  45.779  49.471  1.00  0.00     0.169 HD
HETATM   25  O   UNL     1      22.193  46.318  46.614  1.00  0.00    -0.267 OA
BRANCH  23  26
HETATM   26  C   UNL     1      22.138  44.286  48.811  1.00  0.00     0.035 A 
HETATM   27  C   UNL     1      22.712  43.807  49.991  1.00  0.00     0.029 A 
HETATM   28  C   UNL     1      23.333  42.554  50.020  1.00  0.00     0.002 A 
HETATM   29  C   UNL     1      23.381  41.768  48.873  1.00  0.00     0.000 A 
HETATM   30  C   UNL     1      22.812  42.235  47.692  1.00  0.00     0.002 A 
HETATM   31  C   UNL     1      22.197  43.490  47.660  1.00  0.00     0.029 A 
ENDBRANCH  23  26
ENDBRANCH  10  22
TORSDOF 5
ENDMDL
MODEL 7
REMARK VINA RESULT:      -7.2      3.501      5.407
REMARK  5 active torsions:
REMARK  status: ('A' for Active; 'I' for Inactive)
REMARK    1  A    between atoms: C_9  and  C_10 
REMARK    2  A    between atoms: C_11  and  O_12 
REMARK    3  A    between atoms: O_12  and  C_13 
REMARK    4  A    between atoms: C_20  and  C_21 
REMARK       I    between atoms: C_21  and  N_22 
REMARK    5  A    between atoms: N_22  and  C_23 
ROOT
HETATM    1  C   UNL     1      23.936  43.907  51.505  1.00  0.00     0.070 C 
HETATM    2  C   UNL     1      24.254  43.050  50.307  1.00  0.00     0.037 A 
HETATM    3  N   UNL     1      23.157  42.565  49.605  1.00  0.00    -0.192 N 
HETATM    4  C   UNL     1      23.258  41.910  48.433  1.00  0.00     0.725 A 
HETATM    5  N   UNL     1      24.498  41.616  47.931  1.00  0.00    -0.084 N 
HETATM    6  N   UNL     1      24.408  41.030  46.716  1.00  0.00    -0.149 NA
HETATM    7  C   UNL     1      23.080  40.966  46.572  1.00  0.00     0.275 A 
HETATM    8  N   UNL     1      22.340  41.486  47.602  1.00  0.00    -0.054 NA
HETATM    9  C   UNL     1      25.758  41.981  48.590  1.00  0.00     0.205 A 
HETATM   10  C   UNL     1      25.506  42.778  49.863  1.00  0.00     0.063 A 
HETATM   11  H   UNL     1      22.230  42.814  49.941  1.00  0.00     0.184 HD
ENDROOT
BRANCH   9  12
HETATM   12  C   UNL     1      26.624  40.738  48.807  1.00  0.00     0.005 A 
HETATM   13  C   UNL     1      27.821  40.506  48.098  1.00  0.00     0.083 A 
HETATM   14  C   UNL     1      28.563  39.345  48.347  1.00  0.00     0.037 A 
HETATM   15  C   UNL     1      28.136  38.424  49.306  1.00  0.00     0.003 A 
HETATM   16  C   UNL     1      26.960  38.646  50.013  1.00  0.00     0.001 A 
HETATM   17  C   UNL     1      26.208  39.792  49.764  1.00  0.00     0.012 A 
BRANCH  13  18
HETATM   18  O   UNL     1      28.157  41.429  47.146  1.00  0.00    -0.290 OA
BRANCH  18  19
HETATM   19  C   UNL     1      27.875  41.077  45.801  1.00  0.00     0.505 C 
HETATM   20  F   UNL     1      29.045  40.993  45.119  1.00  0.00    -0.184 F 
HETATM   21  F   UNL     1      27.357  39.822  45.817  1.00  0.00    -0.184 F 
ENDBRANCH  18  19
ENDBRANCH  13  18
ENDBRANCH   9  12
BRANCH  10  22
HETATM   22  C   UNL     1      26.744  43.288  50.504  1.00  0.00     0.256 C 
HETATM   23  N   UNL     1      26.973  42.742  51.747  1.00  0.00    -0.323 N 
HETATM   24  H   UNL     1      26.307  42.051  52.072  1.00  0.00     0.169 HD
HETATM   25  O   UNL     1      27.445  44.077  49.884  1.00  0.00    -0.267 OA
BRANCH  23  26
HETATM   26  C   UNL     1      28.040  43.027  52.623  1.00  0.00     0.035 A 
HETATM   27  C   UNL     1      27.964  43.946  53.672  1.00  0.00     0.029 A 
HETATM   28  C   UNL     1      29.067  44.165  54.504  1.00  0.00     0.002 A 
HETATM   29  C   UNL     1      30.251  43.463  54.299  1.00  0.00     0.000 A 
HETATM   30  C   UNL     1      30.338  42.544  53.258  1.00  0.00     0.002 A 
HETATM   31  C   UNL     1      29.239  42.331  52.421  1.00  0.00     0.029 A 
ENDBRANCH  23  26
ENDBRANCH  10  22
TORSDOF 5
ENDMDL
MODEL 8
REMARK VINA RESULT:      -7.1      8.280     11.181
REMARK  5 active torsions:
REMARK  status: ('A' for Active; 'I' for Inactive)
REMARK    1  A    between atoms: C_9  and  C_10 
REMARK    2  A    between atoms: C_11  and  O_12 
REMARK    3  A    between atoms: O_12  and  C_13 
REMARK    4  A    between atoms: C_20  and  C_21 
REMARK       I    between atoms: C_21  and  N_22 
REMARK    5  A    between atoms: N_22  and  C_23 
ROOT
HETATM    1  C   UNL     1      22.549  49.962  48.022  1.00  0.00     0.070 C 
HETATM    2  C   UNL     1      22.002  48.559  48.097  1.00  0.00     0.037 A 
HETATM    3  N   UNL     1      22.933  47.565  48.374  1.00  0.00    -0.192 N 
HETATM    4  C   UNL     1      22.597  46.284  48.620  1.00  0.00     0.725 A 
HETATM    5  N   UNL     1      21.287  45.899  48.510  1.00  0.00    -0.084 N 
HETATM    6  N   UNL     1      21.126  44.605  48.868  1.00  0.00    -0.149 NA
HETATM    7  C   UNL     1      22.391  44.266  49.141  1.00  0.00     0.275 A 
HETATM    8  N   UNL     1      23.322  45.261  48.994  1.00  0.00    -0.054 NA
HETATM    9  C   UNL     1      20.193  46.805  48.143  1.00  0.00     0.205 A 
HETATM   10  C   UNL     1      20.693  48.232  47.964  1.00  0.00     0.063 A 
HETATM   11  H   UNL     1      23.902  47.844  48.503  1.00  0.00     0.184 HD
ENDROOT
BRANCH   9  12
HETATM   12  C   UNL     1      19.438  46.264  46.927  1.00  0.00     0.005 A 
HETATM   13  C   UNL     1      18.139  45.722  47.011  1.00  0.00     0.083 A 
HETATM   14  C   UNL     1      17.509  45.243  45.856  1.00  0.00     0.037 A 
HETATM   15  C   UNL     1      18.151  45.315  44.618  1.00  0.00     0.003 A 
HETATM   16  C   UNL     1      19.430  45.852  44.525  1.00  0.00     0.001 A 
HETATM   17  C   UNL     1      20.071  46.319  45.670  1.00  0.00     0.012 A 
BRANCH  13  18
HETATM   18  O   UNL     1      17.587  45.646  48.261  1.00  0.00    -0.290 OA
BRANCH  18  19
HETATM   19  C   UNL     1      16.727  46.710  48.635  1.00  0.00     0.505 C 
HETATM   20  F   UNL     1      17.310  47.407  49.643  1.00  0.00    -0.184 F 
HETATM   21  F   UNL     1      16.659  47.559  47.578  1.00  0.00    -0.184 F 
ENDBRANCH  18  19
ENDBRANCH  13  18
ENDBRANCH   9  12
BRANCH  10  22
HETATM   22  C   UNL     1      19.611  49.220  47.721  1.00  0.00     0.256 C 
HETATM   23  N   UNL     1      19.079  49.734  48.883  1.00  0.00    -0.323 N 
HETATM   24  H   UNL     1      19.486  49.412  49.753  1.00  0.00     0.169 HD
HETATM   25  O   UNL     1      19.331  49.513  46.567  1.00  0.00    -0.267 OA
BRANCH  23  26
HETATM   26  C   UNL     1      18.031  50.668  49.002  1.00  0.00     0.035 A 
HETATM   27  C   UNL     1      16.727  50.439  48.558  1.00  0.00     0.029 A 
HETATM   28  C   UNL     1      15.739  51.416  48.723  1.00  0.00     0.002 A 
HETATM   29  C   UNL     1      16.045  52.626  49.340  1.00  0.00     0.000 A 
HETATM   30  C   UNL     1      17.341  52.864  49.787  1.00  0.00     0.002 A 
HETATM   31  C   UNL     1      18.330  51.892  49.615  1.00  0.00     0.029 A 
ENDBRANCH  23  26
ENDBRANCH  10  22
TORSDOF 5
ENDMDL
MODEL 9
REMARK VINA RESULT:      -7.0     12.740     15.292
REMARK  5 active torsions:
REMARK  status: ('A' for Active; 'I' for Inactive)
REMARK    1  A    between atoms: C_9  and  C_10 
REMARK    2  A    between atoms: C_11  and  O_12 
REMARK    3  A    between atoms: O_12  and  C_13 
REMARK    4  A    between atoms: C_20  and  C_21 
REMARK       I    between atoms: C_21  and  N_22 
REMARK    5  A    between atoms: N_22  and  C_23 
ROOT
HETATM    1  C   UNL     1      26.561  50.474  37.891  1.00  0.00     0.070 C 
HETATM    2  C   UNL     1      27.610  50.878  38.896  1.00  0.00     0.037 A 
HETATM    3  N   UNL     1      28.154  52.145  38.722  1.00  0.00    -0.192 N 
HETATM    4  C   UNL     1      28.990  52.719  39.608  1.00  0.00     0.725 A 
HETATM    5  N   UNL     1      29.410  52.005  40.699  1.00  0.00    -0.084 N 
HETATM    6  N   UNL     1      30.176  52.762  41.514  1.00  0.00    -0.149 NA
HETATM    7  C   UNL     1      30.209  53.910  40.827  1.00  0.00     0.275 A 
HETATM    8  N   UNL     1      29.503  53.922  39.652  1.00  0.00    -0.054 NA
HETATM    9  C   UNL     1      28.996  50.626  40.985  1.00  0.00     0.205 A 
HETATM   10  C   UNL     1      27.999  50.121  39.951  1.00  0.00     0.063 A 
HETATM   11  H   UNL     1      27.818  52.703  37.942  1.00  0.00     0.184 HD
ENDROOT
BRANCH   9  12
HETATM   12  C   UNL     1      30.223  49.725  41.143  1.00  0.00     0.005 A 
HETATM   13  C   UNL     1      31.103  49.436  40.079  1.00  0.00     0.083 A 
HETATM   14  C   UNL     1      32.204  48.600  40.295  1.00  0.00     0.037 A 
HETATM   15  C   UNL     1      32.449  48.065  41.561  1.00  0.00     0.003 A 
HETATM   16  C   UNL     1      31.590  48.347  42.617  1.00  0.00     0.001 A 
HETATM   17  C   UNL     1      30.483  49.167  42.410  1.00  0.00     0.012 A 
BRANCH  13  18
HETATM   18  O   UNL     1      30.779  49.961  38.858  1.00  0.00    -0.290 OA
BRANCH  18  19
HETATM   19  C   UNL     1      31.757  50.791  38.250  1.00  0.00     0.505 C 
HETATM   20  F   UNL     1      31.156  51.542  37.293  1.00  0.00    -0.184 F 
HETATM   21  F   UNL     1      32.186  51.662  39.199  1.00  0.00    -0.184 F 
ENDBRANCH  18  19
ENDBRANCH  13  18
ENDBRANCH   9  12
BRANCH  10  22
HETATM   22  C   UNL     1      27.443  48.780  40.261  1.00  0.00     0.256 C 
HETATM   23  N   UNL     1      27.903  47.796  39.414  1.00  0.00    -0.323 N 
HETATM   24  H   UNL     1      28.571  48.079  38.706  1.00  0.00     0.169 HD
HETATM   25  O   UNL     1      26.698  48.660  41.224  1.00  0.00    -0.267 OA
BRANCH  23  26
HETATM   26  C   UNL     1      27.557  46.430  39.422  1.00  0.00     0.035 A 
HETATM   27  C   UNL     1      28.328  45.434  40.026  1.00  0.00     0.029 A 
HETATM   28  C   UNL     1      27.909  44.100  40.000  1.00  0.00     0.002 A 
HETATM   29  C   UNL     1      26.714  43.751  39.377  1.00  0.00     0.000 A 
HETATM   30  C   UNL     1      25.937  44.736  38.773  1.00  0.00     0.002 A 
HETATM   31  C   UNL     1      26.359  46.068  38.793  1.00  0.00     0.029 A 
ENDBRANCH  23  26
ENDBRANCH  10  22
TORSDOF 5
ENDMDL
MODEL 10
REMARK VINA RESULT:      -7.0     16.379     18.262
REMARK  5 active torsions:
REMARK  status: ('A' for Active; 'I' for Inactive)
REMARK    1  A    between atoms: C_9  and  C_10 
REMARK    2  A    between atoms: C_11  and  O_12 
REMARK    3  A    between atoms: O_12  and  C_13 
REMARK    4  A    between atoms: C_20  and  C_21 
REMARK       I    between atoms: C_21  and  N_22 
REMARK    5  A    between atoms: N_22  and  C_23 
ROOT
HETATM    1  C   UNL     1      33.950  42.635  66.120  1.00  0.00     0.070 C 
HETATM    2  C   UNL     1      34.841  43.667  66.764  1.00  0.00     0.037 A 
HETATM    3  N   UNL     1      34.353  44.240  67.932  1.00  0.00    -0.192 N 
HETATM    4  C   UNL     1      35.078  45.065  68.711  1.00  0.00     0.725 A 
HETATM    5  N   UNL     1      36.331  45.444  68.307  1.00  0.00    -0.084 N 
HETATM    6  N   UNL     1      36.938  46.205  69.245  1.00  0.00    -0.149 NA
HETATM    7  C   UNL     1      35.971  46.277  70.167  1.00  0.00     0.275 A 
HETATM    8  N   UNL     1      34.815  45.600  69.876  1.00  0.00    -0.054 NA
HETATM    9  C   UNL     1      36.961  44.997  67.060  1.00  0.00     0.205 A 
HETATM   10  C   UNL     1      36.071  44.015  66.310  1.00  0.00     0.063 A 
HETATM   11  H   UNL     1      33.443  43.934  68.267  1.00  0.00     0.184 HD
ENDROOT
BRANCH   9  12
HETATM   12  C   UNL     1      37.388  46.201  66.217  1.00  0.00     0.005 A 
HETATM   13  C   UNL     1      38.732  46.456  65.872  1.00  0.00     0.083 A 
HETATM   14  C   UNL     1      39.050  47.580  65.101  1.00  0.00     0.037 A 
HETATM   15  C   UNL     1      38.045  48.439  64.653  1.00  0.00     0.003 A 
HETATM   16  C   UNL     1      36.717  48.194  64.984  1.00  0.00     0.001 A 
HETATM   17  C   UNL     1      36.391  47.086  65.763  1.00  0.00     0.012 A 
BRANCH  13  18
HETATM   18  O   UNL     1      39.668  45.596  66.379  1.00  0.00    -0.290 OA
BRANCH  18  19
HETATM   19  C   UNL     1      40.328  44.762  65.440  1.00  0.00     0.505 C 
HETATM   20  F   UNL     1      40.317  43.488  65.907  1.00  0.00    -0.184 F 
HETATM   21  F   UNL     1      39.575  44.757  64.311  1.00  0.00    -0.184 F 
ENDBRANCH  18  19
ENDBRANCH  13  18
ENDBRANCH   9  12
BRANCH  10  22
HETATM   22  C   UNL     1      36.709  43.426  65.106  1.00  0.00     0.256 C 
HETATM   23  N   UNL     1      37.369  42.245  65.368  1.00  0.00    -0.323 N 
HETATM   24  H   UNL     1      37.328  41.901  66.320  1.00  0.00     0.169 HD
HETATM   25  O   UNL     1      36.564  43.988  64.029  1.00  0.00    -0.267 OA
BRANCH  23  26
HETATM   26  C   UNL     1      38.091  41.450  64.456  1.00  0.00     0.035 A 
HETATM   27  C   UNL     1      38.377  41.832  63.144  1.00  0.00     0.029 A 
HETATM   28  C   UNL     1      39.111  40.988  62.303  1.00  0.00     0.002 A 
HETATM   29  C   UNL     1      39.570  39.760  62.769  1.00  0.00     0.000 A 
HETATM   30  C   UNL     1      39.292  39.369  64.076  1.00  0.00     0.002 A 
HETATM   31  C   UNL     1      38.552  40.209  64.913  1.00  0.00     0.029 A 
ENDBRANCH  23  26
ENDBRANCH  10  22
TORSDOF 5
ENDMDL
