MODEL 1
REMARK VINA RESULT:      -9.0      0.000      0.000
REMARK  4 active torsions:
REMARK  status: ('A' for Active; 'I' for Inactive)
REMARK    1  A    between atoms: C_6  and  C_7 
REMARK    2  A    between atoms: C_7  and  C_8 
REMARK    3  A    between atoms: N_10  and  C_11 
REMARK    4  A    between atoms: C_19  and  C_20 
ROOT
HETATM    1  C   UNL     1      26.753  45.682  52.638  1.00  0.00     0.149 C 
HETATM    2  N   UNL     1      27.144  45.977  53.874  1.00  0.00    -0.150 NA
HETATM    3  N   UNL     1      28.084  45.028  54.140  1.00  0.00    -0.218 N 
HETATM    4  C   UNL     1      28.080  44.100  53.094  1.00  0.00     0.136 C 
HETATM    5  N   UNL     1      27.296  44.543  52.128  1.00  0.00    -0.216 NA
ENDROOT
BRANCH   1   6
HETATM    6  C   UNL     1      25.739  46.494  51.911  1.00  0.00     0.087 C 
BRANCH   6   7
HETATM    7  C   UNL     1      25.648  46.186  50.397  1.00  0.00    -0.004 C 
HETATM    8  C   UNL     1      26.621  47.000  49.524  1.00  0.00     0.032 C 
HETATM    9  C   UNL     1      26.262  48.478  49.454  1.00  0.00     0.234 C 
HETATM   10  N   UNL     1      24.852  48.620  48.934  1.00  0.00    -0.075 N 
HETATM   11  C   UNL     1      24.475  50.069  48.746  1.00  0.00     0.269 C 
HETATM   12  H   UNL     1      24.830  48.201  47.994  1.00  0.00     0.279 HD
HETATM   13  C   UNL     1      23.836  47.888  49.773  1.00  0.00     0.234 C 
HETATM   14  C   UNL     1      24.215  46.413  49.877  1.00  0.00     0.032 C 
ENDBRANCH   6   7
ENDBRANCH   1   6
BRANCH   3  15
HETATM   15  C   UNL     1      28.845  45.118  55.340  1.00  0.00     0.062 A 
HETATM   16  C   UNL     1      29.995  44.350  55.556  1.00  0.00     0.058 A 
HETATM   17  C   UNL     1      30.707  44.475  56.756  1.00  0.00     0.074 A 
HETATM   18 CL   UNL     1      32.107  43.501  56.993  1.00  0.00    -0.081 Cl
HETATM   19  C   UNL     1      30.288  45.371  57.734  1.00  0.00     0.138 A 
HETATM   20  F   UNL     1      30.960  45.496  58.885  1.00  0.00    -0.204 F 
HETATM   21  C   UNL     1      29.165  46.160  57.522  1.00  0.00     0.046 A 
HETATM   22  C   UNL     1      28.448  46.041  56.327  1.00  0.00     0.035 A 
ENDBRANCH   3  15
BRANCH   4  23
HETATM   23  C   UNL     1      28.723  42.750  53.073  1.00  0.00     0.084 C 
HETATM   24  C   UNL     1      28.661  42.100  51.684  1.00  0.00     0.244 C 
HETATM   25  N   UNL     1      28.769  40.621  51.948  1.00  0.00    -0.074 N 
HETATM   26  H   UNL     1      28.085  40.107  51.373  1.00  0.00     0.277 HD
HETATM   27  H   UNL     1      29.694  40.258  51.673  1.00  0.00     0.277 HD
HETATM   28  C   UNL     1      28.523  40.385  53.407  1.00  0.00     0.233 C 
HETATM   29  C   UNL     1      27.990  41.713  53.920  1.00  0.00     0.041 C 
ENDBRANCH   4  23
TORSDOF 4
ENDMDL
MODEL 2
REMARK VINA RESULT:      -8.3      3.138      6.256
REMARK  4 active torsions:
REMARK  status: ('A' for Active; 'I' for Inactive)
REMARK    1  A    between atoms: C_6  and  C_7 
REMARK    2  A    between atoms: C_7  and  C_8 
REMARK    3  A    between atoms: N_10  and  C_11 
REMARK    4  A    between atoms: C_19  and  C_20 
ROOT
HETATM    1  C   UNL     1      27.080  41.450  51.090  1.00  0.00     0.149 C 
HETATM    2  N   UNL     1      28.020  41.632  52.013  1.00  0.00    -0.150 NA
HETATM    3  N   UNL     1      27.866  42.939  52.363  1.00  0.00    -0.218 N 
HETATM    4  C   UNL     1      26.940  43.522  51.492  1.00  0.00     0.136 C 
HETATM    5  N   UNL     1      26.403  42.578  50.740  1.00  0.00    -0.216 NA
ENDROOT
BRANCH   1   6
HETATM    6  C   UNL     1      26.853  40.132  50.437  1.00  0.00     0.087 C 
BRANCH   6   7
HETATM    7  C   UNL     1      28.141  39.462  49.899  1.00  0.00    -0.004 C 
HETATM    8  C   UNL     1      28.752  40.158  48.668  1.00  0.00     0.032 C 
HETATM    9  C   UNL     1      27.902  40.003  47.415  1.00  0.00     0.234 C 
HETATM   10  N   UNL     1      27.698  38.533  47.135  1.00  0.00    -0.075 N 
HETATM   11  C   UNL     1      26.947  38.315  45.845  1.00  0.00     0.269 C 
HETATM   12  H   UNL     1      28.629  38.118  46.990  1.00  0.00     0.279 HD
HETATM   13  C   UNL     1      27.054  37.796  48.282  1.00  0.00     0.234 C 
HETATM   14  C   UNL     1      27.884  37.984  49.550  1.00  0.00     0.032 C 
ENDBRANCH   6   7
ENDBRANCH   1   6
BRANCH   3  15
HETATM   15  C   UNL     1      28.615  43.461  53.455  1.00  0.00     0.062 A 
HETATM   16  C   UNL     1      28.191  44.574  54.190  1.00  0.00     0.058 A 
HETATM   17  C   UNL     1      28.966  45.049  55.255  1.00  0.00     0.074 A 
HETATM   18 CL   UNL     1      28.420  46.431  56.125  1.00  0.00    -0.081 Cl
HETATM   19  C   UNL     1      30.154  44.412  55.602  1.00  0.00     0.138 A 
HETATM   20  F   UNL     1      30.903  44.860  56.616  1.00  0.00    -0.204 F 
HETATM   21  C   UNL     1      30.574  43.290  54.899  1.00  0.00     0.046 A 
HETATM   22  C   UNL     1      29.806  42.810  53.834  1.00  0.00     0.035 A 
ENDBRANCH   3  15
BRANCH   4  23
HETATM   23  C   UNL     1      26.663  44.978  51.300  1.00  0.00     0.084 C 
HETATM   24  C   UNL     1      25.191  45.327  51.558  1.00  0.00     0.244 C 
HETATM   25  N   UNL     1      24.955  46.594  50.777  1.00  0.00    -0.074 N 
HETATM   26  H   UNL     1      24.056  46.539  50.275  1.00  0.00     0.277 HD
HETATM   27  H   UNL     1      24.877  47.410  51.402  1.00  0.00     0.277 HD
HETATM   28  C   UNL     1      26.091  46.772  49.817  1.00  0.00     0.233 C 
HETATM   29  C   UNL     1      26.830  45.445  49.856  1.00  0.00     0.041 C 
ENDBRANCH   4  23
TORSDOF 4
ENDMDL
MODEL 3
REMARK VINA RESULT:      -8.3      7.322      9.813
REMARK  4 active torsions:
REMARK  status: ('A' for Active; 'I' for Inactive)
REMARK    1  A    between atoms: C_6  and  C_7 
REMARK    2  A    between atoms: C_7  and  C_8 
REMARK    3  A    between atoms: N_10  and  C_11 
REMARK    4  A    between atoms: C_19  and  C_20 
ROOT
HETATM    1  C   UNL     1      19.867  49.714  49.251  1.00  0.00     0.149 C 
HETATM    2  N   UNL     1      21.132  49.904  49.618  1.00  0.00    -0.150 NA
HETATM    3  N   UNL     1      21.827  49.097  48.771  1.00  0.00    -0.218 N 
HETATM    4  C   UNL     1      20.913  48.326  48.046  1.00  0.00     0.136 C 
HETATM    5  N   UNL     1      19.690  48.757  48.300  1.00  0.00    -0.216 NA
ENDROOT
BRANCH   1   6
HETATM    6  C   UNL     1      18.737  50.436  49.896  1.00  0.00     0.087 C 
BRANCH   6   7
HETATM    7  C   UNL     1      18.717  51.958  49.618  1.00  0.00    -0.004 C 
HETATM    8  C   UNL     1      17.377  52.646  49.940  1.00  0.00     0.032 C 
HETATM    9  C   UNL     1      16.261  52.249  48.984  1.00  0.00     0.234 C 
HETATM   10  N   UNL     1      16.684  52.569  47.571  1.00  0.00    -0.075 N 
HETATM   11  C   UNL     1      15.576  52.292  46.586  1.00  0.00     0.269 C 
HETATM   12  H   UNL     1      16.852  53.584  47.525  1.00  0.00     0.279 HD
HETATM   13  C   UNL     1      17.966  51.886  47.169  1.00  0.00     0.234 C 
HETATM   14  C   UNL     1      19.078  52.251  48.149  1.00  0.00     0.032 C 
ENDBRANCH   6   7
ENDBRANCH   1   6
BRANCH   3  15
HETATM   15  C   UNL     1      23.250  49.152  48.767  1.00  0.00     0.062 A 
HETATM   16  C   UNL     1      24.036  48.270  49.519  1.00  0.00     0.058 A 
HETATM   17  C   UNL     1      25.432  48.368  49.481  1.00  0.00     0.074 A 
HETATM   18 CL   UNL     1      26.365  47.277  50.432  1.00  0.00    -0.081 Cl
HETATM   19  C   UNL     1      26.050  49.329  48.687  1.00  0.00     0.138 A 
HETATM   20  F   UNL     1      27.384  49.433  48.646  1.00  0.00    -0.204 F 
HETATM   21  C   UNL     1      25.285  50.193  47.914  1.00  0.00     0.046 A 
HETATM   22  C   UNL     1      23.889  50.102  47.947  1.00  0.00     0.035 A 
ENDBRANCH   3  15
BRANCH   4  23
HETATM   23  C   UNL     1      21.198  47.116  47.217  1.00  0.00     0.084 C 
HETATM   24  C   UNL     1      19.984  46.685  46.382  1.00  0.00     0.244 C 
HETATM   25  N   UNL     1      20.205  45.219  46.114  1.00  0.00    -0.074 N 
HETATM   26  H   UNL     1      19.327  44.697  46.253  1.00  0.00     0.277 HD
HETATM   27  H   UNL     1      20.476  45.055  45.133  1.00  0.00     0.277 HD
HETATM   28  C   UNL     1      21.270  44.726  47.044  1.00  0.00     0.233 C 
HETATM   29  C   UNL     1      21.453  45.857  48.043  1.00  0.00     0.041 C 
ENDBRANCH   4  23
TORSDOF 4
ENDMDL
MODEL 4
REMARK VINA RESULT:      -8.2      2.172      3.196
REMARK  4 active torsions:
REMARK  status: ('A' for Active; 'I' for Inactive)
REMARK    1  A    between atoms: C_6  and  C_7 
REMARK    2  A    between atoms: C_7  and  C_8 
REMARK    3  A    between atoms: N_10  and  C_11 
REMARK    4  A    between atoms: C_19  and  C_20 
ROOT
HETATM    1  C   UNL     1      26.174  44.594  50.192  1.00  0.00     0.149 C 
HETATM    2  N   UNL     1      26.801  44.808  51.346  1.00  0.00    -0.150 NA
HETATM    3  N   UNL     1      27.508  43.661  51.536  1.00  0.00    -0.218 N 
HETATM    4  C   UNL     1      27.125  42.740  50.555  1.00  0.00     0.136 C 
HETATM    5  N   UNL     1      26.341  43.344  49.680  1.00  0.00    -0.216 NA
ENDROOT
BRANCH   1   6
HETATM    6  C   UNL     1      25.295  45.618  49.565  1.00  0.00     0.087 C 
BRANCH   6   7
HETATM    7  C   UNL     1      25.022  46.851  50.459  1.00  0.00    -0.004 C 
HETATM    8  C   UNL     1      23.903  47.775  49.943  1.00  0.00     0.032 C 
HETATM    9  C   UNL     1      24.289  48.524  48.675  1.00  0.00     0.234 C 
HETATM   10  N   UNL     1      25.546  49.321  48.935  1.00  0.00    -0.075 N 
HETATM   11  C   UNL     1      25.921  50.166  47.743  1.00  0.00     0.269 C 
HETATM   12  H   UNL     1      25.334  49.985  49.693  1.00  0.00     0.279 HD
HETATM   13  C   UNL     1      26.701  48.469  49.396  1.00  0.00     0.234 C 
HETATM   14  C   UNL     1      26.303  47.687  50.645  1.00  0.00     0.032 C 
ENDBRANCH   6   7
ENDBRANCH   1   6
BRANCH   3  15
HETATM   15  C   UNL     1      28.434  43.582  52.614  1.00  0.00     0.062 A 
HETATM   16  C   UNL     1      28.342  44.406  53.742  1.00  0.00     0.058 A 
HETATM   17  C   UNL     1      29.281  44.290  54.775  1.00  0.00     0.074 A 
HETATM   18 CL   UNL     1      29.144  45.333  56.138  1.00  0.00    -0.081 Cl
HETATM   19  C   UNL     1      30.301  43.348  54.697  1.00  0.00     0.138 A 
HETATM   20  F   UNL     1      31.205  43.231  55.677  1.00  0.00    -0.204 F 
HETATM   21  C   UNL     1      30.389  42.504  53.597  1.00  0.00     0.046 A 
HETATM   22  C   UNL     1      29.456  42.615  52.561  1.00  0.00     0.035 A 
ENDBRANCH   3  15
BRANCH   4  23
HETATM   23  C   UNL     1      27.408  41.272  50.524  1.00  0.00     0.084 C 
HETATM   24  C   UNL     1      28.259  40.871  49.311  1.00  0.00     0.244 C 
HETATM   25  N   UNL     1      27.950  39.412  49.093  1.00  0.00    -0.074 N 
HETATM   26  H   UNL     1      27.811  39.226  48.089  1.00  0.00     0.277 HD
HETATM   27  H   UNL     1      28.739  38.816  49.382  1.00  0.00     0.277 HD
HETATM   28  C   UNL     1      26.718  39.071  49.874  1.00  0.00     0.233 C 
HETATM   29  C   UNL     1      26.162  40.416  50.310  1.00  0.00     0.041 C 
ENDBRANCH   4  23
TORSDOF 4
ENDMDL
MODEL 5
REMARK VINA RESULT:      -8.0      5.270      9.001
REMARK  4 active torsions:
REMARK  status: ('A' for Active; 'I' for Inactive)
REMARK    1  A    between atoms: C_6  and  C_7 
REMARK    2  A    between atoms: C_7  and  C_8 
REMARK    3  A    between atoms: N_10  and  C_11 
REMARK    4  A    between atoms: C_19  and  C_20 
ROOT
HETATM    1  C   UNL     1      25.266  46.962  51.186  1.00  0.00     0.149 C 
HETATM    2  N   UNL     1      24.686  48.023  50.631  1.00  0.00    -0.150 NA
HETATM    3  N   UNL     1      23.824  47.473  49.732  1.00  0.00    -0.218 N 
HETATM    4  C   UNL     1      24.064  46.096  49.678  1.00  0.00     0.136 C 
HETATM    5  N   UNL     1      24.918  45.770  50.631  1.00  0.00    -0.216 NA
ENDROOT
BRANCH   1   6
HETATM    6  C   UNL     1      26.277  47.089  52.271  1.00  0.00     0.087 C 
BRANCH   6   7
HETATM    7  C   UNL     1      25.708  46.876  53.695  1.00  0.00    -0.004 C 
HETATM    8  C   UNL     1      26.275  47.838  54.756  1.00  0.00     0.032 C 
HETATM    9  C   UNL     1      27.738  47.570  55.079  1.00  0.00     0.234 C 
HETATM   10  N   UNL     1      27.889  46.139  55.538  1.00  0.00    -0.075 N 
HETATM   11  C   UNL     1      29.303  45.844  55.971  1.00  0.00     0.269 C 
HETATM   12  H   UNL     1      27.309  46.027  56.382  1.00  0.00     0.279 HD
HETATM   13  C   UNL     1      27.399  45.138  54.523  1.00  0.00     0.234 C 
HETATM   14  C   UNL     1      25.943  45.429  54.168  1.00  0.00     0.032 C 
ENDBRANCH   6   7
ENDBRANCH   1   6
BRANCH   3  15
HETATM   15  C   UNL     1      22.905  48.314  49.042  1.00  0.00     0.062 A 
HETATM   16  C   UNL     1      21.524  48.088  49.062  1.00  0.00     0.058 A 
HETATM   17  C   UNL     1      20.663  48.945  48.365  1.00  0.00     0.074 A 
HETATM   18 CL   UNL     1      18.972  48.625  48.398  1.00  0.00    -0.081 Cl
HETATM   19  C   UNL     1      21.169  50.034  47.661  1.00  0.00     0.138 A 
HETATM   20  F   UNL     1      20.355  50.857  46.990  1.00  0.00    -0.204 F 
HETATM   21  C   UNL     1      22.535  50.286  47.656  1.00  0.00     0.046 A 
HETATM   22  C   UNL     1      23.401  49.435  48.349  1.00  0.00     0.035 A 
ENDBRANCH   3  15
BRANCH   4  23
HETATM   23  C   UNL     1      23.575  45.127  48.650  1.00  0.00     0.084 C 
HETATM   24  C   UNL     1      22.242  44.478  49.052  1.00  0.00     0.244 C 
HETATM   25  N   UNL     1      22.205  43.178  48.292  1.00  0.00    -0.074 N 
HETATM   26  H   UNL     1      21.879  42.417  48.906  1.00  0.00     0.277 HD
HETATM   27  H   UNL     1      21.529  43.219  47.514  1.00  0.00     0.277 HD
HETATM   28  C   UNL     1      23.583  42.895  47.778  1.00  0.00     0.233 C 
HETATM   29  C   UNL     1      24.469  43.899  48.496  1.00  0.00     0.041 C 
ENDBRANCH   4  23
TORSDOF 4
ENDMDL
MODEL 6
REMARK VINA RESULT:      -8.0      4.134      7.475
REMARK  4 active torsions:
REMARK  status: ('A' for Active; 'I' for Inactive)
REMARK    1  A    between atoms: C_6  and  C_7 
REMARK    2  A    between atoms: C_7  and  C_8 
REMARK    3  A    between atoms: N_10  and  C_11 
REMARK    4  A    between atoms: C_19  and  C_20 
ROOT
HETATM    1  C   UNL     1      27.632  43.598  51.450  1.00  0.00     0.149 C 
HETATM    2  N   UNL     1      27.531  44.887  51.137  1.00  0.00    -0.150 NA
HETATM    3  N   UNL     1      26.381  44.944  50.412  1.00  0.00    -0.218 N 
HETATM    4  C   UNL     1      25.940  43.636  50.182  1.00  0.00     0.136 C 
HETATM    5  N   UNL     1      26.685  42.801  50.884  1.00  0.00    -0.216 NA
ENDROOT
BRANCH   1   6
HETATM    6  C   UNL     1      28.745  43.068  52.285  1.00  0.00     0.087 C 
BRANCH   6   7
HETATM    7  C   UNL     1      28.327  42.679  53.723  1.00  0.00    -0.004 C 
HETATM    8  C   UNL     1      27.427  43.712  54.425  1.00  0.00     0.032 C 
HETATM    9  C   UNL     1      28.158  45.003  54.768  1.00  0.00     0.234 C 
HETATM   10  N   UNL     1      29.353  44.679  55.633  1.00  0.00    -0.075 N 
HETATM   11  C   UNL     1      30.059  45.931  56.089  1.00  0.00     0.269 C 
HETATM   12  H   UNL     1      28.997  44.231  56.489  1.00  0.00     0.279 HD
HETATM   13  C   UNL     1      30.307  43.709  54.984  1.00  0.00     0.234 C 
HETATM   14  C   UNL     1      29.567  42.429  54.605  1.00  0.00     0.032 C 
ENDBRANCH   6   7
ENDBRANCH   1   6
BRANCH   3  15
HETATM   15  C   UNL     1      25.862  46.212  50.026  1.00  0.00     0.062 A 
HETATM   16  C   UNL     1      26.688  47.266  49.617  1.00  0.00     0.058 A 
HETATM   17  C   UNL     1      26.126  48.495  49.249  1.00  0.00     0.074 A 
HETATM   18 CL   UNL     1      27.174  49.773  48.768  1.00  0.00    -0.081 Cl
HETATM   19  C   UNL     1      24.747  48.675  49.271  1.00  0.00     0.138 A 
HETATM   20  F   UNL     1      24.200  49.846  48.924  1.00  0.00    -0.204 F 
HETATM   21  C   UNL     1      23.913  47.630  49.648  1.00  0.00     0.046 A 
HETATM   22  C   UNL     1      24.466  46.399  50.018  1.00  0.00     0.035 A 
ENDBRANCH   3  15
BRANCH   4  23
HETATM   23  C   UNL     1      24.898  43.185  49.210  1.00  0.00     0.084 C 
HETATM   24  C   UNL     1      23.595  42.769  49.908  1.00  0.00     0.244 C 
HETATM   25  N   UNL     1      22.929  41.823  48.942  1.00  0.00    -0.074 N 
HETATM   26  H   UNL     1      22.559  41.004  49.446  1.00  0.00     0.277 HD
HETATM   27  H   UNL     1      22.115  42.264  48.489  1.00  0.00     0.277 HD
HETATM   28  C   UNL     1      23.940  41.408  47.919  1.00  0.00     0.233 C 
HETATM   29  C   UNL     1      25.266  41.898  48.476  1.00  0.00     0.041 C 
ENDBRANCH   4  23
TORSDOF 4
ENDMDL
MODEL 7
REMARK VINA RESULT:      -7.9      5.227      9.239
REMARK  4 active torsions:
REMARK  status: ('A' for Active; 'I' for Inactive)
REMARK    1  A    between atoms: C_6  and  C_7 
REMARK    2  A    between atoms: C_7  and  C_8 
REMARK    3  A    between atoms: N_10  and  C_11 
REMARK    4  A    between atoms: C_19  and  C_20 
ROOT
HETATM    1  C   UNL     1      24.964  46.676  50.733  1.00  0.00     0.149 C 
HETATM    2  N   UNL     1      24.530  47.914  50.517  1.00  0.00    -0.150 NA
HETATM    3  N   UNL     1      23.507  47.737  49.636  1.00  0.00    -0.218 N 
HETATM    4  C   UNL     1      23.496  46.397  49.236  1.00  0.00     0.136 C 
HETATM    5  N   UNL     1      24.364  45.723  49.969  1.00  0.00    -0.216 NA
ENDROOT
BRANCH   1   6
HETATM    6  C   UNL     1      26.076  46.379  51.677  1.00  0.00     0.087 C 
BRANCH   6   7
HETATM    7  C   UNL     1      25.613  46.027  53.111  1.00  0.00    -0.004 C 
HETATM    8  C   UNL     1      26.615  46.410  54.215  1.00  0.00     0.032 C 
HETATM    9  C   UNL     1      27.877  45.559  54.194  1.00  0.00     0.234 C 
HETATM   10  N   UNL     1      27.493  44.104  54.320  1.00  0.00    -0.075 N 
HETATM   11  C   UNL     1      28.711  43.217  54.408  1.00  0.00     0.269 C 
HETATM   12  H   UNL     1      27.003  43.995  55.219  1.00  0.00     0.279 HD
HETATM   13  C   UNL     1      26.550  43.645  53.238  1.00  0.00     0.234 C 
HETATM   14  C   UNL     1      25.301  44.522  53.232  1.00  0.00     0.032 C 
ENDBRANCH   6   7
ENDBRANCH   1   6
BRANCH   3  15
HETATM   15  C   UNL     1      22.690  48.849  49.283  1.00  0.00     0.062 A 
HETATM   16  C   UNL     1      21.292  48.787  49.302  1.00  0.00     0.058 A 
HETATM   17  C   UNL     1      20.534  49.909  48.944  1.00  0.00     0.074 A 
HETATM   18 CL   UNL     1      18.817  49.789  48.962  1.00  0.00    -0.081 Cl
HETATM   19  C   UNL     1      21.162  51.097  48.584  1.00  0.00     0.138 A 
HETATM   20  F   UNL     1      20.447  52.175  48.238  1.00  0.00    -0.204 F 
HETATM   21  C   UNL     1      22.548  51.183  48.588  1.00  0.00     0.046 A 
HETATM   22  C   UNL     1      23.312  50.066  48.943  1.00  0.00     0.035 A 
ENDBRANCH   3  15
BRANCH   4  23
HETATM   23  C   UNL     1      22.754  45.796  48.086  1.00  0.00     0.084 C 
HETATM   24  C   UNL     1      21.339  45.350  48.479  1.00  0.00     0.244 C 
HETATM   25  N   UNL     1      20.981  44.284  47.476  1.00  0.00    -0.074 N 
HETATM   26  H   UNL     1      20.535  43.485  47.951  1.00  0.00     0.277 HD
HETATM   27  H   UNL     1      20.287  44.629  46.796  1.00  0.00     0.277 HD
HETATM   28  C   UNL     1      22.235  43.856  46.778  1.00  0.00     0.233 C 
HETATM   29  C   UNL     1      23.355  44.481  47.594  1.00  0.00     0.041 C 
ENDBRANCH   4  23
TORSDOF 4
ENDMDL
MODEL 8
REMARK VINA RESULT:      -7.8      4.177      7.490
REMARK  4 active torsions:
REMARK  status: ('A' for Active; 'I' for Inactive)
REMARK    1  A    between atoms: C_6  and  C_7 
REMARK    2  A    between atoms: C_7  and  C_8 
REMARK    3  A    between atoms: N_10  and  C_11 
REMARK    4  A    between atoms: C_19  and  C_20 
ROOT
HETATM    1  C   UNL     1      26.134  42.202  50.445  1.00  0.00     0.149 C 
HETATM    2  N   UNL     1      25.505  43.272  49.967  1.00  0.00    -0.150 NA
HETATM    3  N   UNL     1      26.119  44.306  50.603  1.00  0.00    -0.218 N 
HETATM    4  C   UNL     1      26.981  43.779  51.570  1.00  0.00     0.136 C 
HETATM    5  N   UNL     1      27.037  42.467  51.427  1.00  0.00    -0.216 NA
ENDROOT
BRANCH   1   6
HETATM    6  C   UNL     1      25.806  40.821  49.994  1.00  0.00     0.087 C 
BRANCH   6   7
HETATM    7  C   UNL     1      26.181  40.532  48.520  1.00  0.00    -0.004 C 
HETATM    8  C   UNL     1      26.151  39.041  48.138  1.00  0.00     0.032 C 
HETATM    9  C   UNL     1      27.265  38.237  48.794  1.00  0.00     0.234 C 
HETATM   10  N   UNL     1      28.597  38.844  48.422  1.00  0.00    -0.075 N 
HETATM   11  C   UNL     1      29.746  38.028  48.960  1.00  0.00     0.269 C 
HETATM   12  H   UNL     1      28.677  38.797  47.396  1.00  0.00     0.279 HD
HETATM   13  C   UNL     1      28.716  40.294  48.814  1.00  0.00     0.234 C 
HETATM   14  C   UNL     1      27.576  41.095  48.189  1.00  0.00     0.032 C 
ENDBRANCH   6   7
ENDBRANCH   1   6
BRANCH   3  15
HETATM   15  C   UNL     1      25.807  45.643  50.224  1.00  0.00     0.062 A 
HETATM   16  C   UNL     1      26.790  46.561  49.838  1.00  0.00     0.058 A 
HETATM   17  C   UNL     1      26.429  47.865  49.477  1.00  0.00     0.074 A 
HETATM   18 CL   UNL     1      27.668  48.972  49.025  1.00  0.00    -0.081 Cl
HETATM   19  C   UNL     1      25.093  48.254  49.481  1.00  0.00     0.138 A 
HETATM   20  F   UNL     1      24.738  49.498  49.140  1.00  0.00    -0.204 F 
HETATM   21  C   UNL     1      24.104  47.345  49.834  1.00  0.00     0.046 A 
HETATM   22  C   UNL     1      24.456  46.042  50.198  1.00  0.00     0.035 A 
ENDBRANCH   3  15
BRANCH   4  23
HETATM   23  C   UNL     1      27.646  44.510  52.692  1.00  0.00     0.084 C 
HETATM   24  C   UNL     1      28.728  43.662  53.376  1.00  0.00     0.244 C 
HETATM   25  N   UNL     1      28.851  44.243  54.761  1.00  0.00    -0.074 N 
HETATM   26  H   UNL     1      28.902  43.486  55.459  1.00  0.00     0.277 HD
HETATM   27  H   UNL     1      29.725  44.779  54.864  1.00  0.00     0.277 HD
HETATM   28  C   UNL     1      27.662  45.119  55.010  1.00  0.00     0.233 C 
HETATM   29  C   UNL     1      26.714  44.805  53.864  1.00  0.00     0.041 C 
ENDBRANCH   4  23
TORSDOF 4
ENDMDL
MODEL 9
REMARK VINA RESULT:      -7.8      2.515      6.437
REMARK  4 active torsions:
REMARK  status: ('A' for Active; 'I' for Inactive)
REMARK    1  A    between atoms: C_6  and  C_7 
REMARK    2  A    between atoms: C_7  and  C_8 
REMARK    3  A    between atoms: N_10  and  C_11 
REMARK    4  A    between atoms: C_19  and  C_20 
ROOT
HETATM    1  C   UNL     1      26.263  41.767  51.177  1.00  0.00     0.149 C 
HETATM    2  N   UNL     1      27.190  42.034  52.093  1.00  0.00    -0.150 NA
HETATM    3  N   UNL     1      27.012  43.360  52.340  1.00  0.00    -0.218 N 
HETATM    4  C   UNL     1      26.086  43.860  51.418  1.00  0.00     0.136 C 
HETATM    5  N   UNL     1      25.572  42.853  50.736  1.00  0.00    -0.216 NA
ENDROOT
BRANCH   1   6
HETATM    6  C   UNL     1      26.064  40.398  50.625  1.00  0.00     0.087 C 
BRANCH   6   7
HETATM    7  C   UNL     1      26.933  40.084  49.384  1.00  0.00    -0.004 C 
HETATM    8  C   UNL     1      26.804  38.639  48.867  1.00  0.00     0.032 C 
HETATM    9  C   UNL     1      27.418  37.613  49.810  1.00  0.00     0.234 C 
HETATM   10  N   UNL     1      28.870  37.958  50.038  1.00  0.00    -0.075 N 
HETATM   11  C   UNL     1      29.559  36.917  50.885  1.00  0.00     0.269 C 
HETATM   12  H   UNL     1      29.338  37.927  49.121  1.00  0.00     0.279 HD
HETATM   13  C   UNL     1      29.069  39.345  50.594  1.00  0.00     0.234 C 
HETATM   14  C   UNL     1      28.420  40.372  49.669  1.00  0.00     0.032 C 
ENDBRANCH   6   7
ENDBRANCH   1   6
BRANCH   3  15
HETATM   15  C   UNL     1      27.741  43.977  53.396  1.00  0.00     0.062 A 
HETATM   16  C   UNL     1      28.860  43.376  53.984  1.00  0.00     0.058 A 
HETATM   17  C   UNL     1      29.541  44.024  55.023  1.00  0.00     0.074 A 
HETATM   18 CL   UNL     1      30.902  43.246  55.733  1.00  0.00    -0.081 Cl
HETATM   19  C   UNL     1      29.123  45.274  55.467  1.00  0.00     0.138 A 
HETATM   20  F   UNL     1      29.765  45.901  56.460  1.00  0.00    -0.204 F 
HETATM   21  C   UNL     1      28.031  45.896  54.874  1.00  0.00     0.046 A 
HETATM   22  C   UNL     1      27.345  45.254  53.838  1.00  0.00     0.035 A 
ENDBRANCH   3  15
BRANCH   4  23
HETATM   23  C   UNL     1      25.788  45.293  51.113  1.00  0.00     0.084 C 
HETATM   24  C   UNL     1      24.413  45.471  50.454  1.00  0.00     0.244 C 
HETATM   25  N   UNL     1      24.518  46.769  49.696  1.00  0.00    -0.074 N 
HETATM   26  H   UNL     1      24.100  46.668  48.759  1.00  0.00     0.277 HD
HETATM   27  H   UNL     1      23.984  47.518  50.162  1.00  0.00     0.277 HD
HETATM   28  C   UNL     1      25.966  47.139  49.595  1.00  0.00     0.233 C 
HETATM   29  C   UNL     1      26.707  45.893  50.052  1.00  0.00     0.041 C 
ENDBRANCH   4  23
TORSDOF 4
ENDMDL
MODEL 10
REMARK VINA RESULT:      -7.8      2.990      4.667
REMARK  4 active torsions:
REMARK  status: ('A' for Active; 'I' for Inactive)
REMARK    1  A    between atoms: C_6  and  C_7 
REMARK    2  A    between atoms: C_7  and  C_8 
REMARK    3  A    between atoms: N_10  and  C_11 
REMARK    4  A    between atoms: C_19  and  C_20 
ROOT
HETATM    1  C   UNL     1      24.300  47.423  50.198  1.00  0.00     0.149 C 
HETATM    2  N   UNL     1      25.062  47.296  51.281  1.00  0.00    -0.150 NA
HETATM    3  N   UNL     1      25.332  45.962  51.319  1.00  0.00    -0.218 N 
HETATM    4  C   UNL     1      24.563  45.329  50.337  1.00  0.00     0.136 C 
HETATM    5  N   UNL     1      23.969  46.248  49.597  1.00  0.00    -0.216 NA
ENDROOT
BRANCH   1   6
HETATM    6  C   UNL     1      23.786  48.743  49.740  1.00  0.00     0.087 C 
BRANCH   6   7
HETATM    7  C   UNL     1      22.988  48.686  48.415  1.00  0.00    -0.004 C 
HETATM    8  C   UNL     1      22.949  50.016  47.639  1.00  0.00     0.032 C 
HETATM    9  C   UNL     1      22.117  51.085  48.333  1.00  0.00     0.234 C 
HETATM   10  N   UNL     1      20.715  50.561  48.542  1.00  0.00    -0.075 N 
HETATM   11  C   UNL     1      19.814  51.616  49.134  1.00  0.00     0.269 C 
HETATM   12  H   UNL     1      20.327  50.352  47.611  1.00  0.00     0.279 HD
HETATM   13  C   UNL     1      20.674  49.284  49.341  1.00  0.00     0.234 C 
HETATM   14  C   UNL     1      21.541  48.222  48.667  1.00  0.00     0.032 C 
ENDBRANCH   6   7
ENDBRANCH   1   6
BRANCH   3  15
HETATM   15  C   UNL     1      26.263  45.466  52.275  1.00  0.00     0.062 A 
HETATM   16  C   UNL     1      27.267  44.551  51.937  1.00  0.00     0.058 A 
HETATM   17  C   UNL     1      28.157  44.093  52.917  1.00  0.00     0.074 A 
HETATM   18 CL   UNL     1      29.367  42.954  52.468  1.00  0.00    -0.081 Cl
HETATM   19  C   UNL     1      28.062  44.553  54.226  1.00  0.00     0.138 A 
HETATM   20  F   UNL     1      28.906  44.119  55.170  1.00  0.00    -0.204 F 
HETATM   21  C   UNL     1      27.089  45.483  54.570  1.00  0.00     0.046 A 
HETATM   22  C   UNL     1      26.196  45.945  53.598  1.00  0.00     0.035 A 
ENDBRANCH   3  15
BRANCH   4  23
HETATM   23  C   UNL     1      24.305  43.864  50.187  1.00  0.00     0.084 C 
HETATM   24  C   UNL     1      25.206  43.223  49.122  1.00  0.00     0.244 C 
HETATM   25  N   UNL     1      24.457  41.994  48.676  1.00  0.00    -0.074 N 
HETATM   26  H   UNL     1      24.488  41.913  47.649  1.00  0.00     0.277 HD
HETATM   27  H   UNL     1      24.897  41.136  49.039  1.00  0.00     0.277 HD
HETATM   28  C   UNL     1      23.043  42.106  49.159  1.00  0.00     0.233 C 
HETATM   29  C   UNL     1      22.918  43.543  49.636  1.00  0.00     0.041 C 
ENDBRANCH   4  23
TORSDOF 4
ENDMDL
