MODEL 1
REMARK VINA RESULT:      -9.2      0.000      0.000
REMARK  8 active torsions:
REMARK  status: ('A' for Active; 'I' for Inactive)
REMARK    1  A    between atoms: C_2  and  C_3 
REMARK    2  A    between atoms: C_3  and  C_4 
REMARK    3  A    between atoms: C_7  and  C_8 
REMARK    4  A    between atoms: C_8  and  N_9 
REMARK    5  A    between atoms: C_8  and  C_26 
REMARK    6  A    between atoms: N_9  and  C_12 
REMARK    7  A    between atoms: C_12  and  C_13 
REMARK       I    between atoms: C_13  and  N_14 
REMARK    8  A    between atoms: N_14  and  C_15 
ROOT
HETATM    1  N   UNL     1      23.855  47.169  50.151  1.00  0.00    -0.054 N 
HETATM    2  H   UNL     1      23.568  46.763  51.052  1.00  0.00     0.278 HD
HETATM    3  H   UNL     1      23.657  48.173  50.262  1.00  0.00     0.278 HD
ENDROOT
BRANCH   1   4
HETATM    4  C   UNL     1      25.327  46.966  49.988  1.00  0.00     0.259 C 
BRANCH   4   5
HETATM    5  C   UNL     1      25.921  46.301  51.221  1.00  0.00    -0.023 A 
HETATM    6  C   UNL     1      26.593  45.072  51.083  1.00  0.00     0.010 A 
HETATM    7  C   UNL     1      27.107  44.406  52.196  1.00  0.00     0.007 A 
HETATM    8  C   UNL     1      26.957  44.943  53.478  1.00  0.00    -0.058 A 
HETATM    9  C   UNL     1      26.295  46.166  53.627  1.00  0.00     0.007 A 
HETATM   10  C   UNL     1      25.778  46.834  52.514  1.00  0.00     0.010 A 
BRANCH   8  11
HETATM   11  C   UNL     1      27.535  44.232  54.679  1.00  0.00     0.038 C 
BRANCH  11  12
HETATM   12  C   UNL     1      29.012  44.575  54.881  1.00  0.00     0.000 C 
HETATM   13  C   UNL     1      29.905  43.381  54.580  1.00  0.00     0.005 C 
ENDBRANCH  11  12
ENDBRANCH   8  11
ENDBRANCH   4   5
BRANCH   4  14
HETATM   14  C   UNL     1      26.055  48.191  49.463  1.00  0.00     0.017 A 
HETATM   15  S   UNL     1      25.166  49.400  48.604  1.00  0.00    -0.104 SA
HETATM   16  C   UNL     1      26.561  50.342  48.330  1.00  0.00     0.050 A 
HETATM   17  C   UNL     1      27.692  49.746  48.838  1.00  0.00     0.008 A 
HETATM   18  C   UNL     1      27.405  48.500  49.467  1.00  0.00     0.017 A 
ENDBRANCH   4  14
ENDBRANCH   1   4
BRANCH   1  19
HETATM   19  C   UNL     1      22.918  46.640  49.099  1.00  0.00     0.336 C 
BRANCH  19  20
HETATM   20  C   UNL     1      22.051  47.784  48.568  1.00  0.00     0.248 C 
HETATM   21  N   UNL     1      21.519  48.597  49.546  1.00  0.00    -0.326 N 
HETATM   22  H   UNL     1      21.791  48.440  50.511  1.00  0.00     0.169 HD
HETATM   23  O   UNL     1      21.909  47.880  47.350  1.00  0.00    -0.271 OA
BRANCH  21  24
HETATM   24  C   UNL     1      20.625  49.679  49.356  1.00  0.00     0.037 A 
HETATM   25  C   UNL     1      19.324  49.711  49.876  1.00  0.00     0.061 A 
HETATM   26  C   UNL     1      18.578  50.843  49.630  1.00  0.00     0.065 A 
HETATM   27  C   UNL     1      19.069  51.919  48.896  1.00  0.00     0.063 A 
HETATM   28  N   UNL     1      17.282  51.153  50.027  1.00  0.00    -0.306 N 
HETATM   29  N   UNL     1      18.078  52.890  48.840  1.00  0.00    -0.307 N 
HETATM   30  C   UNL     1      20.335  51.922  48.369  1.00  0.00     0.034 A 
HETATM   31  C   UNL     1      16.955  52.428  49.543  1.00  0.00     0.325 A 
HETATM   32  H   UNL     1      18.117  53.789  48.388  1.00  0.00     0.170 HD
HETATM   33  O   UNL     1      15.904  53.018  49.705  1.00  0.00    -0.247 OA
HETATM   34  C   UNL     1      21.118  50.784  48.609  1.00  0.00     0.032 A 
HETATM   35  H   UNL     1      16.651  50.591  50.574  1.00  0.00     0.170 HD
ENDBRANCH  21  24
ENDBRANCH  19  20
ENDBRANCH   1  19
TORSDOF 8
ENDMDL
MODEL 2
REMARK VINA RESULT:      -9.0      3.274      9.316
REMARK  8 active torsions:
REMARK  status: ('A' for Active; 'I' for Inactive)
REMARK    1  A    between atoms: C_2  and  C_3 
REMARK    2  A    between atoms: C_3  and  C_4 
REMARK    3  A    between atoms: C_7  and  C_8 
REMARK    4  A    between atoms: C_8  and  N_9 
REMARK    5  A    between atoms: C_8  and  C_26 
REMARK    6  A    between atoms: N_9  and  C_12 
REMARK    7  A    between atoms: C_12  and  C_13 
REMARK       I    between atoms: C_13  and  N_14 
REMARK    8  A    between atoms: N_14  and  C_15 
ROOT
HETATM    1  N   UNL     1      22.849  47.081  48.204  1.00  0.00    -0.054 N 
HETATM    2  H   UNL     1      22.034  47.316  47.621  1.00  0.00     0.278 HD
HETATM    3  H   UNL     1      23.609  46.960  47.522  1.00  0.00     0.278 HD
ENDROOT
BRANCH   1   4
HETATM    4  C   UNL     1      23.151  48.248  49.088  1.00  0.00     0.259 C 
BRANCH   4   5
HETATM    5  C   UNL     1      22.080  49.321  48.951  1.00  0.00    -0.023 A 
HETATM    6  C   UNL     1      21.334  49.400  47.760  1.00  0.00     0.010 A 
HETATM    7  C   UNL     1      20.379  50.401  47.576  1.00  0.00     0.007 A 
HETATM    8  C   UNL     1      20.149  51.356  48.571  1.00  0.00    -0.058 A 
HETATM    9  C   UNL     1      20.882  51.286  49.760  1.00  0.00     0.007 A 
HETATM   10  C   UNL     1      21.839  50.285  49.946  1.00  0.00     0.010 A 
BRANCH   8  11
HETATM   11  C   UNL     1      19.099  52.423  48.379  1.00  0.00     0.038 C 
BRANCH  11  12
HETATM   12  C   UNL     1      18.106  52.454  49.542  1.00  0.00     0.000 C 
HETATM   13  C   UNL     1      17.200  51.233  49.532  1.00  0.00     0.005 C 
ENDBRANCH  11  12
ENDBRANCH   8  11
ENDBRANCH   4   5
BRANCH   4  14
HETATM   14  C   UNL     1      24.593  48.717  49.002  1.00  0.00     0.017 A 
HETATM   15  S   UNL     1      24.990  50.049  47.974  1.00  0.00    -0.104 SA
HETATM   16  C   UNL     1      26.650  49.949  48.356  1.00  0.00     0.050 A 
HETATM   17  C   UNL     1      26.919  48.907  49.212  1.00  0.00     0.008 A 
HETATM   18  C   UNL     1      25.742  48.184  49.565  1.00  0.00     0.017 A 
ENDBRANCH   4  14
ENDBRANCH   1   4
BRANCH   1  19
HETATM   19  C   UNL     1      22.585  45.737  48.827  1.00  0.00     0.336 C 
BRANCH  19  20
HETATM   20  C   UNL     1      23.866  45.224  49.490  1.00  0.00     0.248 C 
HETATM   21  N   UNL     1      23.885  45.348  50.864  1.00  0.00    -0.326 N 
HETATM   22  H   UNL     1      23.050  45.683  51.334  1.00  0.00     0.169 HD
HETATM   23  O   UNL     1      24.742  44.756  48.765  1.00  0.00    -0.271 OA
BRANCH  21  24
HETATM   24  C   UNL     1      24.959  45.030  51.730  1.00  0.00     0.037 A 
HETATM   25  C   UNL     1      25.494  43.741  51.862  1.00  0.00     0.061 A 
HETATM   26  C   UNL     1      26.556  43.588  52.725  1.00  0.00     0.065 A 
HETATM   27  C   UNL     1      27.090  44.649  53.451  1.00  0.00     0.063 A 
HETATM   28  N   UNL     1      27.284  42.446  53.040  1.00  0.00    -0.306 N 
HETATM   29  N   UNL     1      28.144  44.161  54.214  1.00  0.00    -0.307 N 
HETATM   30  C   UNL     1      26.590  45.921  53.352  1.00  0.00     0.034 A 
HETATM   31  C   UNL     1      28.280  42.787  53.967  1.00  0.00     0.325 A 
HETATM   32  H   UNL     1      28.739  44.673  54.844  1.00  0.00     0.170 HD
HETATM   33  O   UNL     1      29.102  42.037  54.458  1.00  0.00    -0.247 OA
HETATM   34  C   UNL     1      25.512  46.107  52.476  1.00  0.00     0.032 A 
HETATM   35  H   UNL     1      27.157  41.513  52.684  1.00  0.00     0.170 HD
ENDBRANCH  21  24
ENDBRANCH  19  20
ENDBRANCH   1  19
TORSDOF 8
ENDMDL
MODEL 3
REMARK VINA RESULT:      -8.7      4.901      9.242
REMARK  8 active torsions:
REMARK  status: ('A' for Active; 'I' for Inactive)
REMARK    1  A    between atoms: C_2  and  C_3 
REMARK    2  A    between atoms: C_3  and  C_4 
REMARK    3  A    between atoms: C_7  and  C_8 
REMARK    4  A    between atoms: C_8  and  N_9 
REMARK    5  A    between atoms: C_8  and  C_26 
REMARK    6  A    between atoms: N_9  and  C_12 
REMARK    7  A    between atoms: C_12  and  C_13 
REMARK       I    between atoms: C_13  and  N_14 
REMARK    8  A    between atoms: N_14  and  C_15 
ROOT
HETATM    1  N   UNL     1      24.150  45.551  50.788  1.00  0.00    -0.054 N 
HETATM    2  H   UNL     1      24.004  45.249  51.761  1.00  0.00     0.278 HD
HETATM    3  H   UNL     1      23.476  46.318  50.667  1.00  0.00     0.278 HD
ENDROOT
BRANCH   1   4
HETATM    4  C   UNL     1      25.541  46.084  50.661  1.00  0.00     0.259 C 
BRANCH   4   5
HETATM    5  C   UNL     1      26.253  46.064  52.006  1.00  0.00    -0.023 A 
HETATM    6  C   UNL     1      26.995  44.926  52.373  1.00  0.00     0.010 A 
HETATM    7  C   UNL     1      27.620  44.849  53.619  1.00  0.00     0.007 A 
HETATM    8  C   UNL     1      27.513  45.900  54.535  1.00  0.00    -0.058 A 
HETATM    9  C   UNL     1      26.781  47.037  54.179  1.00  0.00     0.007 A 
HETATM   10  C   UNL     1      26.154  47.116  52.933  1.00  0.00     0.010 A 
BRANCH   8  11
HETATM   11  C   UNL     1      28.210  45.824  55.873  1.00  0.00     0.038 C 
BRANCH  11  12
HETATM   12  C   UNL     1      29.730  45.907  55.723  1.00  0.00     0.000 C 
HETATM   13  C   UNL     1      30.387  44.558  55.971  1.00  0.00     0.005 C 
ENDBRANCH  11  12
ENDBRANCH   8  11
ENDBRANCH   4   5
BRANCH   4  14
HETATM   14  C   UNL     1      25.626  47.378  49.870  1.00  0.00     0.017 A 
HETATM   15  S   UNL     1      27.178  48.018  49.458  1.00  0.00    -0.104 SA
HETATM   16  C   UNL     1      26.498  49.378  48.686  1.00  0.00     0.050 A 
HETATM   17  C   UNL     1      25.125  49.382  48.765  1.00  0.00     0.008 A 
HETATM   18  C   UNL     1      24.625  48.246  49.466  1.00  0.00     0.017 A 
ENDBRANCH   4  14
ENDBRANCH   1   4
BRANCH   1  19
HETATM   19  C   UNL     1      23.712  44.421  49.895  1.00  0.00     0.336 C 
BRANCH  19  20
HETATM   20  C   UNL     1      24.461  43.145  50.284  1.00  0.00     0.248 C 
HETATM   21  N   UNL     1      25.385  42.719  49.352  1.00  0.00    -0.326 N 
HETATM   22  H   UNL     1      25.558  43.301  48.539  1.00  0.00     0.169 HD
HETATM   23  O   UNL     1      24.187  42.623  51.364  1.00  0.00    -0.271 OA
BRANCH  21  24
HETATM   24  C   UNL     1      26.164  41.539  49.407  1.00  0.00     0.037 A 
HETATM   25  C   UNL     1      27.273  41.381  50.249  1.00  0.00     0.061 A 
HETATM   26  C   UNL     1      27.920  40.165  50.212  1.00  0.00     0.065 A 
HETATM   27  C   UNL     1      27.514  39.125  49.381  1.00  0.00     0.063 A 
HETATM   28  N   UNL     1      29.024  39.727  50.936  1.00  0.00    -0.306 N 
HETATM   29  N   UNL     1      28.366  38.048  49.591  1.00  0.00    -0.307 N 
HETATM   30  C   UNL     1      26.437  39.245  48.541  1.00  0.00     0.034 A 
HETATM   31  C   UNL     1      29.315  38.407  50.560  1.00  0.00     0.325 A 
HETATM   32  H   UNL     1      28.341  37.144  49.148  1.00  0.00     0.170 HD
HETATM   33  O   UNL     1      30.212  37.710  50.994  1.00  0.00    -0.247 OA
HETATM   34  C   UNL     1      25.757  40.470  48.562  1.00  0.00     0.032 A 
HETATM   35  H   UNL     1      29.553  40.234  51.626  1.00  0.00     0.170 HD
ENDBRANCH  21  24
ENDBRANCH  19  20
ENDBRANCH   1  19
TORSDOF 8
ENDMDL
MODEL 4
REMARK VINA RESULT:      -8.7      3.255      5.894
REMARK  8 active torsions:
REMARK  status: ('A' for Active; 'I' for Inactive)
REMARK    1  A    between atoms: C_2  and  C_3 
REMARK    2  A    between atoms: C_3  and  C_4 
REMARK    3  A    between atoms: C_7  and  C_8 
REMARK    4  A    between atoms: C_8  and  N_9 
REMARK    5  A    between atoms: C_8  and  C_26 
REMARK    6  A    between atoms: N_9  and  C_12 
REMARK    7  A    between atoms: C_12  and  C_13 
REMARK       I    between atoms: C_13  and  N_14 
REMARK    8  A    between atoms: N_14  and  C_15 
ROOT
HETATM    1  N   UNL     1      26.477  43.201  51.037  1.00  0.00    -0.054 N 
HETATM    2  H   UNL     1      26.040  42.779  50.206  1.00  0.00     0.278 HD
HETATM    3  H   UNL     1      25.676  43.528  51.594  1.00  0.00     0.278 HD
ENDROOT
BRANCH   1   4
HETATM    4  C   UNL     1      27.202  42.129  51.786  1.00  0.00     0.259 C 
BRANCH   4   5
HETATM    5  C   UNL     1      28.099  42.732  52.858  1.00  0.00    -0.023 A 
HETATM    6  C   UNL     1      27.526  43.539  53.859  1.00  0.00     0.010 A 
HETATM    7  C   UNL     1      28.321  44.151  54.829  1.00  0.00     0.007 A 
HETATM    8  C   UNL     1      29.709  43.981  54.822  1.00  0.00    -0.058 A 
HETATM    9  C   UNL     1      30.288  43.178  53.835  1.00  0.00     0.007 A 
HETATM   10  C   UNL     1      29.495  42.565  52.862  1.00  0.00     0.010 A 
BRANCH   8  11
HETATM   11  C   UNL     1      30.564  44.625  55.888  1.00  0.00     0.038 C 
BRANCH  11  12
HETATM   12  C   UNL     1      29.726  45.456  56.860  1.00  0.00     0.000 C 
HETATM   13  C   UNL     1      30.567  45.974  58.016  1.00  0.00     0.005 C 
ENDBRANCH  11  12
ENDBRANCH   8  11
ENDBRANCH   4   5
BRANCH   4  14
HETATM   14  C   UNL     1      27.833  41.081  50.888  1.00  0.00     0.017 A 
HETATM   15  S   UNL     1      27.587  41.172  49.179  1.00  0.00    -0.104 SA
HETATM   16  C   UNL     1      28.490  39.753  48.895  1.00  0.00     0.050 A 
HETATM   17  C   UNL     1      28.942  39.187  50.064  1.00  0.00     0.008 A 
HETATM   18  C   UNL     1      28.544  39.936  51.210  1.00  0.00     0.017 A 
ENDBRANCH   4  14
ENDBRANCH   1   4
BRANCH   1  19
HETATM   19  C   UNL     1      27.234  44.418  50.578  1.00  0.00     0.336 C 
BRANCH  19  20
HETATM   20  C   UNL     1      26.286  45.353  49.824  1.00  0.00     0.248 C 
HETATM   21  N   UNL     1      26.431  46.688  50.140  1.00  0.00    -0.326 N 
HETATM   22  H   UNL     1      27.181  46.960  50.766  1.00  0.00     0.169 HD
HETATM   23  O   UNL     1      25.499  44.851  49.022  1.00  0.00    -0.271 OA
BRANCH  21  24
HETATM   24  C   UNL     1      25.646  47.763  49.659  1.00  0.00     0.037 A 
HETATM   25  C   UNL     1      24.270  47.885  49.894  1.00  0.00     0.061 A 
HETATM   26  C   UNL     1      23.643  49.000  49.384  1.00  0.00     0.065 A 
HETATM   27  C   UNL     1      24.321  49.976  48.659  1.00  0.00     0.063 A 
HETATM   28  N   UNL     1      22.309  49.385  49.472  1.00  0.00    -0.306 N 
HETATM   29  N   UNL     1      23.408  50.958  48.299  1.00  0.00    -0.307 N 
HETATM   30  C   UNL     1      25.666  49.888  48.405  1.00  0.00     0.034 A 
HETATM   31  C   UNL     1      22.146  50.606  48.801  1.00  0.00     0.325 A 
HETATM   32  H   UNL     1      23.580  51.800  47.774  1.00  0.00     0.170 HD
HETATM   33  O   UNL     1      21.113  51.236  48.681  1.00  0.00    -0.247 OA
HETATM   34  C   UNL     1      26.330  48.765  48.918  1.00  0.00     0.032 A 
HETATM   35  H   UNL     1      21.555  48.903  49.933  1.00  0.00     0.170 HD
ENDBRANCH  21  24
ENDBRANCH  19  20
ENDBRANCH   1  19
TORSDOF 8
ENDMDL
MODEL 5
REMARK VINA RESULT:      -8.6     11.545     13.978
REMARK  8 active torsions:
REMARK  status: ('A' for Active; 'I' for Inactive)
REMARK    1  A    between atoms: C_2  and  C_3 
REMARK    2  A    between atoms: C_3  and  C_4 
REMARK    3  A    between atoms: C_7  and  C_8 
REMARK    4  A    between atoms: C_8  and  N_9 
REMARK    5  A    between atoms: C_8  and  C_26 
REMARK    6  A    between atoms: N_9  and  C_12 
REMARK    7  A    between atoms: C_12  and  C_13 
REMARK       I    between atoms: C_13  and  N_14 
REMARK    8  A    between atoms: N_14  and  C_15 
ROOT
HETATM    1  N   UNL     1      35.396  52.733  41.091  1.00  0.00    -0.054 N 
HETATM    2  H   UNL     1      34.574  53.124  41.572  1.00  0.00     0.278 HD
HETATM    3  H   UNL     1      36.157  53.375  41.349  1.00  0.00     0.278 HD
ENDROOT
BRANCH   1   4
HETATM    4  C   UNL     1      35.674  51.376  41.653  1.00  0.00     0.259 C 
BRANCH   4   5
HETATM    5  C   UNL     1      34.378  50.660  42.003  1.00  0.00    -0.023 A 
HETATM    6  C   UNL     1      34.029  49.491  41.302  1.00  0.00     0.010 A 
HETATM    7  C   UNL     1      32.824  48.833  41.558  1.00  0.00     0.007 A 
HETATM    8  C   UNL     1      31.932  49.330  42.513  1.00  0.00    -0.058 A 
HETATM    9  C   UNL     1      32.271  50.489  43.219  1.00  0.00     0.007 A 
HETATM   10  C   UNL     1      33.475  51.149  42.963  1.00  0.00     0.010 A 
BRANCH   8  11
HETATM   11  C   UNL     1      30.641  48.603  42.805  1.00  0.00     0.038 C 
BRANCH  11  12
HETATM   12  C   UNL     1      29.482  49.152  41.970  1.00  0.00     0.000 C 
HETATM   13  C   UNL     1      29.080  48.180  40.873  1.00  0.00     0.005 C 
ENDBRANCH  11  12
ENDBRANCH   8  11
ENDBRANCH   4   5
BRANCH   4  14
HETATM   14  C   UNL     1      36.758  51.371  42.717  1.00  0.00     0.017 A 
HETATM   15  S   UNL     1      36.793  52.635  43.896  1.00  0.00    -0.104 SA
HETATM   16  C   UNL     1      38.194  52.008  44.640  1.00  0.00     0.050 A 
HETATM   17  C   UNL     1      38.661  50.887  43.995  1.00  0.00     0.008 A 
HETATM   18  C   UNL     1      37.851  50.535  42.877  1.00  0.00     0.017 A 
ENDBRANCH   4  14
ENDBRANCH   1   4
BRANCH   1  19
HETATM   19  C   UNL     1      35.165  52.882  39.611  1.00  0.00     0.336 C 
BRANCH  19  20
HETATM   20  C   UNL     1      33.763  52.377  39.261  1.00  0.00     0.248 C 
HETATM   21  N   UNL     1      32.754  52.919  40.030  1.00  0.00    -0.326 N 
HETATM   22  H   UNL     1      32.988  53.649  40.695  1.00  0.00     0.169 HD
HETATM   23  O   UNL     1      33.657  51.557  38.351  1.00  0.00    -0.271 OA
BRANCH  21  24
HETATM   24  C   UNL     1      31.379  52.586  39.983  1.00  0.00     0.037 A 
HETATM   25  C   UNL     1      30.812  51.771  38.994  1.00  0.00     0.061 A 
HETATM   26  C   UNL     1      29.463  51.512  39.091  1.00  0.00     0.065 A 
HETATM   27  C   UNL     1      28.672  52.030  40.114  1.00  0.00     0.063 A 
HETATM   28  N   UNL     1      28.648  50.738  38.273  1.00  0.00    -0.306 N 
HETATM   29  N   UNL     1      27.373  51.577  39.925  1.00  0.00    -0.307 N 
HETATM   30  C   UNL     1      29.191  52.834  41.095  1.00  0.00     0.034 A 
HETATM   31  C   UNL     1      27.340  50.767  38.780  1.00  0.00     0.325 A 
HETATM   32  H   UNL     1      26.563  51.768  40.493  1.00  0.00     0.170 HD
HETATM   33  O   UNL     1      26.369  50.198  38.319  1.00  0.00    -0.247 OA
HETATM   34  C   UNL     1      30.563  53.109  41.023  1.00  0.00     0.032 A 
HETATM   35  H   UNL     1      28.909  50.222  37.449  1.00  0.00     0.170 HD
ENDBRANCH  21  24
ENDBRANCH  19  20
ENDBRANCH   1  19
TORSDOF 8
ENDMDL
MODEL 6
REMARK VINA RESULT:      -8.6      2.407      3.821
REMARK  8 active torsions:
REMARK  status: ('A' for Active; 'I' for Inactive)
REMARK    1  A    between atoms: C_2  and  C_3 
REMARK    2  A    between atoms: C_3  and  C_4 
REMARK    3  A    between atoms: C_7  and  C_8 
REMARK    4  A    between atoms: C_8  and  N_9 
REMARK    5  A    between atoms: C_8  and  C_26 
REMARK    6  A    between atoms: N_9  and  C_12 
REMARK    7  A    between atoms: C_12  and  C_13 
REMARK       I    between atoms: C_13  and  N_14 
REMARK    8  A    between atoms: N_14  and  C_15 
ROOT
HETATM    1  N   UNL     1      25.933  45.848  50.929  1.00  0.00    -0.054 N 
HETATM    2  H   UNL     1      25.641  46.521  51.651  1.00  0.00     0.278 HD
HETATM    3  H   UNL     1      26.875  46.167  50.665  1.00  0.00     0.278 HD
ENDROOT
BRANCH   1   4
HETATM    4  C   UNL     1      26.021  44.493  51.554  1.00  0.00     0.259 C 
BRANCH   4   5
HETATM    5  C   UNL     1      27.073  44.471  52.653  1.00  0.00    -0.023 A 
HETATM    6  C   UNL     1      27.013  45.430  53.681  1.00  0.00     0.010 A 
HETATM    7  C   UNL     1      27.989  45.475  54.678  1.00  0.00     0.007 A 
HETATM    8  C   UNL     1      29.055  44.571  54.671  1.00  0.00    -0.058 A 
HETATM    9  C   UNL     1      29.123  43.610  53.656  1.00  0.00     0.007 A 
HETATM   10  C   UNL     1      28.148  43.564  52.657  1.00  0.00     0.010 A 
BRANCH   8  11
HETATM   11  C   UNL     1      30.096  44.606  55.765  1.00  0.00     0.038 C 
BRANCH  11  12
HETATM   12  C   UNL     1      30.896  43.303  55.826  1.00  0.00     0.000 C 
HETATM   13  C   UNL     1      31.710  43.212  57.106  1.00  0.00     0.005 C 
ENDBRANCH  11  12
ENDBRANCH   8  11
ENDBRANCH   4   5
BRANCH   4  14
HETATM   14  C   UNL     1      26.075  43.361  50.543  1.00  0.00     0.017 A 
HETATM   15  S   UNL     1      24.772  42.226  50.472  1.00  0.00    -0.104 SA
HETATM   16  C   UNL     1      25.523  41.323  49.235  1.00  0.00     0.050 A 
HETATM   17  C   UNL     1      26.754  41.835  48.900  1.00  0.00     0.008 A 
HETATM   18  C   UNL     1      27.082  42.991  49.667  1.00  0.00     0.017 A 
ENDBRANCH   4  14
ENDBRANCH   1   4
BRANCH   1  19
HETATM   19  C   UNL     1      25.039  46.051  49.736  1.00  0.00     0.336 C 
BRANCH  19  20
HETATM   20  C   UNL     1      24.255  47.355  49.903  1.00  0.00     0.248 C 
HETATM   21  N   UNL     1      23.258  47.544  48.968  1.00  0.00    -0.326 N 
HETATM   22  H   UNL     1      23.064  46.800  48.306  1.00  0.00     0.169 HD
HETATM   23  O   UNL     1      24.568  48.100  50.830  1.00  0.00    -0.271 OA
BRANCH  21  24
HETATM   24  C   UNL     1      22.429  48.683  48.831  1.00  0.00     0.037 A 
HETATM   25  C   UNL     1      21.047  48.670  49.066  1.00  0.00     0.061 A 
HETATM   26  C   UNL     1      20.374  49.862  48.917  1.00  0.00     0.065 A 
HETATM   27  C   UNL     1      21.012  51.042  48.545  1.00  0.00     0.063 A 
HETATM   28  N   UNL     1      19.024  50.146  49.095  1.00  0.00    -0.306 N 
HETATM   29  N   UNL     1      20.058  52.050  48.492  1.00  0.00    -0.307 N 
HETATM   30  C   UNL     1      22.361  51.092  48.302  1.00  0.00     0.034 A 
HETATM   31  C   UNL     1      18.811  51.507  48.835  1.00  0.00     0.325 A 
HETATM   32  H   UNL     1      20.196  53.020  48.258  1.00  0.00     0.170 HD
HETATM   33  O   UNL     1      17.751  52.101  48.898  1.00  0.00    -0.247 OA
HETATM   34  C   UNL     1      23.072  49.894  48.452  1.00  0.00     0.032 A 
HETATM   35  H   UNL     1      18.290  49.514  49.369  1.00  0.00     0.170 HD
ENDBRANCH  21  24
ENDBRANCH  19  20
ENDBRANCH   1  19
TORSDOF 8
ENDMDL
MODEL 7
REMARK VINA RESULT:      -8.6      2.141      2.354
REMARK  8 active torsions:
REMARK  status: ('A' for Active; 'I' for Inactive)
REMARK    1  A    between atoms: C_2  and  C_3 
REMARK    2  A    between atoms: C_3  and  C_4 
REMARK    3  A    between atoms: C_7  and  C_8 
REMARK    4  A    between atoms: C_8  and  N_9 
REMARK    5  A    between atoms: C_8  and  C_26 
REMARK    6  A    between atoms: N_9  and  C_12 
REMARK    7  A    between atoms: C_12  and  C_13 
REMARK       I    between atoms: C_13  and  N_14 
REMARK    8  A    between atoms: N_14  and  C_15 
ROOT
HETATM    1  N   UNL     1      23.923  46.512  50.006  1.00  0.00    -0.054 N 
HETATM    2  H   UNL     1      23.637  46.200  50.944  1.00  0.00     0.278 HD
HETATM    3  H   UNL     1      23.496  47.444  49.919  1.00  0.00     0.278 HD
ENDROOT
BRANCH   1   4
HETATM    4  C   UNL     1      25.413  46.640  49.983  1.00  0.00     0.259 C 
BRANCH   4   5
HETATM    5  C   UNL     1      26.014  46.200  51.310  1.00  0.00    -0.023 A 
HETATM    6  C   UNL     1      26.643  44.944  51.396  1.00  0.00     0.010 A 
HETATM    7  C   UNL     1      27.162  44.483  52.607  1.00  0.00     0.007 A 
HETATM    8  C   UNL     1      27.058  45.258  53.766  1.00  0.00    -0.058 A 
HETATM    9  C   UNL     1      26.438  46.510  53.692  1.00  0.00     0.007 A 
HETATM   10  C   UNL     1      25.918  46.973  52.481  1.00  0.00     0.010 A 
BRANCH   8  11
HETATM   11  C   UNL     1      27.642  44.768  55.070  1.00  0.00     0.038 C 
BRANCH  11  12
HETATM   12  C   UNL     1      29.128  45.111  55.189  1.00  0.00     0.000 C 
HETATM   13  C   UNL     1      29.991  43.861  55.145  1.00  0.00     0.005 C 
ENDBRANCH  11  12
ENDBRANCH   8  11
ENDBRANCH   4   5
BRANCH   4  14
HETATM   14  C   UNL     1      25.899  47.967  49.427  1.00  0.00     0.017 A 
HETATM   15  S   UNL     1      24.755  49.068  48.744  1.00  0.00    -0.104 SA
HETATM   16  C   UNL     1      25.967  50.198  48.338  1.00  0.00     0.050 A 
HETATM   17  C   UNL     1      27.223  49.746  48.671  1.00  0.00     0.008 A 
HETATM   18  C   UNL     1      27.187  48.455  49.274  1.00  0.00     0.017 A 
ENDBRANCH   4  14
ENDBRANCH   1   4
BRANCH   1  19
HETATM   19  C   UNL     1      23.247  45.613  49.006  1.00  0.00     0.336 C 
BRANCH  19  20
HETATM   20  C   UNL     1      22.149  46.394  48.281  1.00  0.00     0.248 C 
HETATM   21  N   UNL     1      21.085  46.756  49.081  1.00  0.00    -0.326 N 
HETATM   22  H   UNL     1      21.135  46.560  50.075  1.00  0.00     0.169 HD
HETATM   23  O   UNL     1      22.303  46.627  47.084  1.00  0.00    -0.271 OA
BRANCH  21  24
HETATM   24  C   UNL     1      19.900  47.414  48.670  1.00  0.00     0.037 A 
HETATM   25  C   UNL     1      18.734  46.741  48.282  1.00  0.00     0.061 A 
HETATM   26  C   UNL     1      17.650  47.514  47.930  1.00  0.00     0.065 A 
HETATM   27  C   UNL     1      17.686  48.906  47.946  1.00  0.00     0.063 A 
HETATM   28  N   UNL     1      16.378  47.126  47.524  1.00  0.00    -0.306 N 
HETATM   29  N   UNL     1      16.441  49.374  47.548  1.00  0.00    -0.307 N 
HETATM   30  C   UNL     1      18.810  49.599  48.315  1.00  0.00     0.034 A 
HETATM   31  C   UNL     1      15.611  48.275  47.282  1.00  0.00     0.325 A 
HETATM   32  H   UNL     1      16.140  50.331  47.458  1.00  0.00     0.170 HD
HETATM   33  O   UNL     1      14.451  48.309  46.917  1.00  0.00    -0.247 OA
HETATM   34  C   UNL     1      19.927  48.835  48.683  1.00  0.00     0.032 A 
HETATM   35  H   UNL     1      16.023  46.191  47.412  1.00  0.00     0.170 HD
ENDBRANCH  21  24
ENDBRANCH  19  20
ENDBRANCH   1  19
TORSDOF 8
ENDMDL
MODEL 8
REMARK VINA RESULT:      -8.4     11.260     14.350
REMARK  8 active torsions:
REMARK  status: ('A' for Active; 'I' for Inactive)
REMARK    1  A    between atoms: C_2  and  C_3 
REMARK    2  A    between atoms: C_3  and  C_4 
REMARK    3  A    between atoms: C_7  and  C_8 
REMARK    4  A    between atoms: C_8  and  N_9 
REMARK    5  A    between atoms: C_8  and  C_26 
REMARK    6  A    between atoms: N_9  and  C_12 
REMARK    7  A    between atoms: C_12  and  C_13 
REMARK       I    between atoms: C_13  and  N_14 
REMARK    8  A    between atoms: N_14  and  C_15 
ROOT
HETATM    1  N   UNL     1      27.153  47.755  40.305  1.00  0.00    -0.054 N 
HETATM    2  H   UNL     1      27.568  48.209  41.130  1.00  0.00     0.278 HD
HETATM    3  H   UNL     1      26.403  47.172  40.700  1.00  0.00     0.278 HD
ENDROOT
BRANCH   1   4
HETATM    4  C   UNL     1      26.557  48.813  39.432  1.00  0.00     0.259 C 
BRANCH   4   5
HETATM    5  C   UNL     1      27.272  50.142  39.628  1.00  0.00    -0.023 A 
HETATM    6  C   UNL     1      27.734  50.846  38.501  1.00  0.00     0.010 A 
HETATM    7  C   UNL     1      28.438  52.043  38.642  1.00  0.00     0.007 A 
HETATM    8  C   UNL     1      28.709  52.564  39.910  1.00  0.00    -0.058 A 
HETATM    9  C   UNL     1      28.251  51.874  41.038  1.00  0.00     0.007 A 
HETATM   10  C   UNL     1      27.547  50.676  40.900  1.00  0.00     0.010 A 
BRANCH   8  11
HETATM   11  C   UNL     1      29.450  53.871  40.059  1.00  0.00     0.038 C 
BRANCH  11  12
HETATM   12  C   UNL     1      30.788  53.684  40.778  1.00  0.00     0.000 C 
HETATM   13  C   UNL     1      31.706  52.749  40.007  1.00  0.00     0.005 C 
ENDBRANCH  11  12
ENDBRANCH   8  11
ENDBRANCH   4   5
BRANCH   4  14
HETATM   14  C   UNL     1      25.039  48.849  39.472  1.00  0.00     0.017 A 
HETATM   15  S   UNL     1      24.187  47.624  40.346  1.00  0.00    -0.104 SA
HETATM   16  C   UNL     1      22.666  48.269  39.919  1.00  0.00     0.050 A 
HETATM   17  C   UNL     1      22.785  49.367  39.099  1.00  0.00     0.008 A 
HETATM   18  C   UNL     1      24.147  49.685  38.822  1.00  0.00     0.017 A 
ENDBRANCH   4  14
ENDBRANCH   1   4
BRANCH   1  19
HETATM   19  C   UNL     1      28.190  46.827  39.732  1.00  0.00     0.336 C 
BRANCH  19  20
HETATM   20  C   UNL     1      29.573  47.468  39.862  1.00  0.00     0.248 C 
HETATM   21  N   UNL     1      29.837  48.009  41.103  1.00  0.00    -0.326 N 
HETATM   22  H   UNL     1      29.155  47.882  41.844  1.00  0.00     0.169 HD
HETATM   23  O   UNL     1      30.314  47.444  38.880  1.00  0.00    -0.271 OA
BRANCH  21  24
HETATM   24  C   UNL     1      30.995  48.727  41.488  1.00  0.00     0.037 A 
HETATM   25  C   UNL     1      32.266  48.497  40.943  1.00  0.00     0.061 A 
HETATM   26  C   UNL     1      33.296  49.290  41.398  1.00  0.00     0.065 A 
HETATM   27  C   UNL     1      33.111  50.281  42.359  1.00  0.00     0.063 A 
HETATM   28  N   UNL     1      34.637  49.296  41.032  1.00  0.00    -0.306 N 
HETATM   29  N   UNL     1      34.336  50.894  42.586  1.00  0.00    -0.307 N 
HETATM   30  C   UNL     1      31.884  50.531  42.917  1.00  0.00     0.034 A 
HETATM   31  C   UNL     1      35.300  50.293  41.764  1.00  0.00     0.325 A 
HETATM   32  H   UNL     1      34.541  51.650  43.220  1.00  0.00     0.170 HD
HETATM   33  O   UNL     1      36.480  50.580  41.695  1.00  0.00    -0.247 OA
HETATM   34  C   UNL     1      30.817  49.740  42.469  1.00  0.00     0.032 A 
HETATM   35  H   UNL     1      35.097  48.708  40.358  1.00  0.00     0.170 HD
ENDBRANCH  21  24
ENDBRANCH  19  20
ENDBRANCH   1  19
TORSDOF 8
ENDMDL
MODEL 9
REMARK VINA RESULT:      -8.3     11.310     14.293
REMARK  8 active torsions:
REMARK  status: ('A' for Active; 'I' for Inactive)
REMARK    1  A    between atoms: C_2  and  C_3 
REMARK    2  A    between atoms: C_3  and  C_4 
REMARK    3  A    between atoms: C_7  and  C_8 
REMARK    4  A    between atoms: C_8  and  N_9 
REMARK    5  A    between atoms: C_8  and  C_26 
REMARK    6  A    between atoms: N_9  and  C_12 
REMARK    7  A    between atoms: C_12  and  C_13 
REMARK       I    between atoms: C_13  and  N_14 
REMARK    8  A    between atoms: N_14  and  C_15 
ROOT
HETATM    1  N   UNL     1      29.301  46.763  39.894  1.00  0.00    -0.054 N 
HETATM    2  H   UNL     1      29.520  46.690  40.897  1.00  0.00     0.278 HD
HETATM    3  H   UNL     1      29.220  45.784  39.591  1.00  0.00     0.278 HD
ENDROOT
BRANCH   1   4
HETATM    4  C   UNL     1      27.977  47.443  39.746  1.00  0.00     0.259 C 
BRANCH   4   5
HETATM    5  C   UNL     1      28.111  48.942  39.973  1.00  0.00    -0.023 A 
HETATM    6  C   UNL     1      28.149  49.436  41.290  1.00  0.00     0.010 A 
HETATM    7  C   UNL     1      28.220  50.808  41.540  1.00  0.00     0.007 A 
HETATM    8  C   UNL     1      28.244  51.723  40.483  1.00  0.00    -0.058 A 
HETATM    9  C   UNL     1      28.210  51.242  39.170  1.00  0.00     0.007 A 
HETATM   10  C   UNL     1      28.139  49.870  38.918  1.00  0.00     0.010 A 
BRANCH   8  11
HETATM   11  C   UNL     1      28.344  53.205  40.756  1.00  0.00     0.038 C 
BRANCH  11  12
HETATM   12  C   UNL     1      29.609  53.808  40.142  1.00  0.00     0.000 C 
HETATM   13  C   UNL     1      30.837  53.498  40.983  1.00  0.00     0.005 C 
ENDBRANCH  11  12
ENDBRANCH   8  11
ENDBRANCH   4   5
BRANCH   4  14
HETATM   14  C   UNL     1      26.850  46.744  40.487  1.00  0.00     0.017 A 
HETATM   15  S   UNL     1      25.248  47.385  40.388  1.00  0.00    -0.104 SA
HETATM   16  C   UNL     1      24.620  46.184  41.424  1.00  0.00     0.050 A 
HETATM   17  C   UNL     1      25.599  45.331  41.876  1.00  0.00     0.008 A 
HETATM   18  C   UNL     1      26.884  45.667  41.358  1.00  0.00     0.017 A 
ENDBRANCH   4  14
ENDBRANCH   1   4
BRANCH   1  19
HETATM   19  C   UNL     1      30.507  47.348  39.211  1.00  0.00     0.336 C 
BRANCH  19  20
HETATM   20  C   UNL     1      31.508  47.826  40.266  1.00  0.00     0.248 C 
HETATM   21  N   UNL     1      31.445  49.176  40.541  1.00  0.00    -0.326 N 
HETATM   22  H   UNL     1      30.715  49.728  40.103  1.00  0.00     0.169 HD
HETATM   23  O   UNL     1      32.260  46.991  40.767  1.00  0.00    -0.271 OA
BRANCH  21  24
HETATM   24  C   UNL     1      32.293  49.905  41.410  1.00  0.00     0.037 A 
HETATM   25  C   UNL     1      33.617  50.243  41.099  1.00  0.00     0.061 A 
HETATM   26  C   UNL     1      34.312  50.977  42.034  1.00  0.00     0.065 A 
HETATM   27  C   UNL     1      33.751  51.375  43.244  1.00  0.00     0.063 A 
HETATM   28  N   UNL     1      35.616  51.459  41.991  1.00  0.00    -0.306 N 
HETATM   29  N   UNL     1      34.706  52.098  43.946  1.00  0.00    -0.307 N 
HETATM   30  C   UNL     1      32.461  51.059  43.584  1.00  0.00     0.034 A 
HETATM   31  C   UNL     1      35.877  52.162  43.176  1.00  0.00     0.325 A 
HETATM   32  H   UNL     1      34.615  52.526  44.853  1.00  0.00     0.170 HD
HETATM   33  O   UNL     1      36.916  52.720  43.476  1.00  0.00    -0.247 OA
HETATM   34  C   UNL     1      31.728  50.316  42.649  1.00  0.00     0.032 A 
HETATM   35  H   UNL     1      36.292  51.350  41.253  1.00  0.00     0.170 HD
ENDBRANCH  21  24
ENDBRANCH  19  20
ENDBRANCH   1  19
TORSDOF 8
ENDMDL
MODEL 10
REMARK VINA RESULT:      -8.2      3.513     10.271
REMARK  8 active torsions:
REMARK  status: ('A' for Active; 'I' for Inactive)
REMARK    1  A    between atoms: C_2  and  C_3 
REMARK    2  A    between atoms: C_3  and  C_4 
REMARK    3  A    between atoms: C_7  and  C_8 
REMARK    4  A    between atoms: C_8  and  N_9 
REMARK    5  A    between atoms: C_8  and  C_26 
REMARK    6  A    between atoms: N_9  and  C_12 
REMARK    7  A    between atoms: C_12  and  C_13 
REMARK       I    between atoms: C_13  and  N_14 
REMARK    8  A    between atoms: N_14  and  C_15 
ROOT
HETATM    1  N   UNL     1      22.513  48.112  49.528  1.00  0.00    -0.054 N 
HETATM    2  H   UNL     1      22.135  48.574  50.366  1.00  0.00     0.278 HD
HETATM    3  H   UNL     1      22.359  47.111  49.711  1.00  0.00     0.278 HD
ENDROOT
BRANCH   1   4
HETATM    4  C   UNL     1      21.700  48.535  48.347  1.00  0.00     0.259 C 
BRANCH   4   5
HETATM    5  C   UNL     1      20.717  49.632  48.731  1.00  0.00    -0.023 A 
HETATM    6  C   UNL     1      19.643  49.323  49.586  1.00  0.00     0.010 A 
HETATM    7  C   UNL     1      18.692  50.288  49.922  1.00  0.00     0.007 A 
HETATM    8  C   UNL     1      18.782  51.584  49.405  1.00  0.00    -0.058 A 
HETATM    9  C   UNL     1      19.848  51.903  48.557  1.00  0.00     0.007 A 
HETATM   10  C   UNL     1      20.800  50.939  48.220  1.00  0.00     0.010 A 
BRANCH   8  11
HETATM   11  C   UNL     1      17.766  52.633  49.789  1.00  0.00     0.038 C 
BRANCH  11  12
HETATM   12  C   UNL     1      16.343  52.071  49.783  1.00  0.00     0.000 C 
HETATM   13  C   UNL     1      15.686  52.239  48.422  1.00  0.00     0.005 C 
ENDBRANCH  11  12
ENDBRANCH   8  11
ENDBRANCH   4   5
BRANCH   4  14
HETATM   14  C   UNL     1      21.136  47.371  47.550  1.00  0.00     0.017 A 
HETATM   15  S   UNL     1      21.755  45.780  47.823  1.00  0.00    -0.104 SA
HETATM   16  C   UNL     1      20.745  45.098  46.630  1.00  0.00     0.050 A 
HETATM   17  C   UNL     1      19.977  46.049  46.001  1.00  0.00     0.008 A 
HETATM   18  C   UNL     1      20.219  47.358  46.512  1.00  0.00     0.017 A 
ENDBRANCH   4  14
ENDBRANCH   1   4
BRANCH   1  19
HETATM   19  C   UNL     1      24.000  48.344  49.517  1.00  0.00     0.336 C 
BRANCH  19  20
HETATM   20  C   UNL     1      24.690  47.259  50.347  1.00  0.00     0.248 C 
HETATM   21  N   UNL     1      24.876  46.064  49.682  1.00  0.00    -0.326 N 
HETATM   22  H   UNL     1      24.626  46.011  48.700  1.00  0.00     0.169 HD
HETATM   23  O   UNL     1      25.013  47.535  51.502  1.00  0.00    -0.271 OA
BRANCH  21  24
HETATM   24  C   UNL     1      25.414  44.870  50.218  1.00  0.00     0.037 A 
HETATM   25  C   UNL     1      26.724  44.758  50.704  1.00  0.00     0.061 A 
HETATM   26  C   UNL     1      27.100  43.538  51.219  1.00  0.00     0.065 A 
HETATM   27  C   UNL     1      26.239  42.445  51.263  1.00  0.00     0.063 A 
HETATM   28  N   UNL     1      28.314  43.147  51.775  1.00  0.00    -0.306 N 
HETATM   29  N   UNL     1      26.920  41.383  51.843  1.00  0.00    -0.307 N 
HETATM   30  C   UNL     1      24.953  42.515  50.794  1.00  0.00     0.034 A 
HETATM   31  C   UNL     1      28.217  41.805  52.170  1.00  0.00     0.325 A 
HETATM   32  H   UNL     1      26.578  40.453  52.022  1.00  0.00     0.170 HD
HETATM   33  O   UNL     1      29.088  41.139  52.697  1.00  0.00    -0.247 OA
HETATM   34  C   UNL     1      24.542  43.748  50.268  1.00  0.00     0.032 A 
HETATM   35  H   UNL     1      29.145  43.701  51.898  1.00  0.00     0.170 HD
ENDBRANCH  21  24
ENDBRANCH  19  20
ENDBRANCH   1  19
TORSDOF 8
ENDMDL
