MODEL 1
REMARK VINA RESULT:      -8.7      0.000      0.000
REMARK  4 active torsions:
REMARK  status: ('A' for Active; 'I' for Inactive)
REMARK    1  A    between atoms: C_9  and  N_10 
REMARK    2  A    between atoms: N_10  and  C_12 
REMARK    3  A    between atoms: C_12  and  C_13 
REMARK    4  A    between atoms: C_14  and  C_15 
ROOT
HETATM    1  C   UNL     1      25.911  43.517  51.358  1.00  0.00     0.016 A 
HETATM    2  C   UNL     1      25.766  44.203  50.109  1.00  0.00     0.096 A 
HETATM    3  N   UNL     1      25.851  43.348  49.083  1.00  0.00    -0.174 NA
HETATM    4  N   UNL     1      26.020  42.147  49.635  1.00  0.00    -0.288 N 
HETATM    5  H   UNL     1      26.090  41.341  49.018  1.00  0.00     0.188 HD
HETATM    6  C   UNL     1      26.054  42.186  51.000  1.00  0.00     0.120 A 
ENDROOT
BRANCH   1   7
HETATM    7  C   UNL     1      25.824  44.115  52.719  1.00  0.00     0.277 C 
BRANCH   7   8
HETATM    8  N   UNL     1      27.084  44.815  53.177  1.00  0.00    -0.065 N 
HETATM    9  H   UNL     1      27.694  44.923  52.358  1.00  0.00     0.280 HD
HETATM   10  C   UNL     1      26.816  46.169  53.776  1.00  0.00     0.270 C 
BRANCH   8  11
HETATM   11  C   UNL     1      27.743  43.980  54.234  1.00  0.00     0.205 C 
HETATM   12  C   UNL     1      28.804  42.884  53.701  1.00  0.00     0.008 C 
HETATM   13  C   UNL     1      29.610  43.133  52.424  1.00  0.00     0.020 C 
HETATM   14  C   UNL     1      28.264  41.450  53.722  1.00  0.00     0.020 C 
HETATM   15  C   UNL     1      29.528  43.225  55.018  1.00  0.00     0.137 C 
HETATM   16  C   UNL     1      28.997  44.680  54.865  1.00  0.00     0.049 C 
HETATM   17  O   UNL     1      30.929  43.364  55.246  1.00  0.00    -0.385 OA
HETATM   18  C   UNL     1      29.616  45.111  56.189  1.00  0.00     0.035 C 
HETATM   19  C   UNL     1      31.067  44.553  56.068  1.00  0.00     0.168 C 
ENDBRANCH   8  11
ENDBRANCH   7   8
ENDBRANCH   1   7
BRANCH   2  20
HETATM   20  C   UNL     1      25.502  45.617  49.861  1.00  0.00    -0.002 A 
HETATM   21  C   UNL     1      24.189  46.033  49.590  1.00  0.00     0.053 A 
HETATM   22  C   UNL     1      23.910  47.381  49.365  1.00  0.00     0.103 A 
HETATM   23  C   UNL     1      24.943  48.319  49.382  1.00  0.00     0.102 A 
HETATM   24  O   UNL     1      22.601  47.704  49.122  1.00  0.00    -0.346 OA
HETATM   25  O   UNL     1      24.747  49.654  49.137  1.00  0.00    -0.346 OA
HETATM   26  C   UNL     1      26.249  47.917  49.652  1.00  0.00     0.040 A 
HETATM   27  C   UNL     1      23.490  49.878  48.483  1.00  0.00     0.202 C 
HETATM   28  C   UNL     1      22.378  49.118  49.186  1.00  0.00     0.202 C 
HETATM   29  C   UNL     1      26.533  46.567  49.880  1.00  0.00     0.017 A 
ENDBRANCH   2  20
TORSDOF 4
ENDMDL
MODEL 2
REMARK VINA RESULT:      -8.3      3.889      9.470
REMARK  4 active torsions:
REMARK  status: ('A' for Active; 'I' for Inactive)
REMARK    1  A    between atoms: C_9  and  N_10 
REMARK    2  A    between atoms: N_10  and  C_12 
REMARK    3  A    between atoms: C_12  and  C_13 
REMARK    4  A    between atoms: C_14  and  C_15 
ROOT
HETATM    1  C   UNL     1      23.634  48.990  48.520  1.00  0.00     0.016 A 
HETATM    2  C   UNL     1      24.741  48.379  49.194  1.00  0.00     0.096 A 
HETATM    3  N   UNL     1      25.877  49.039  48.941  1.00  0.00    -0.174 NA
HETATM    4  N   UNL     1      25.529  50.055  48.151  1.00  0.00    -0.288 N 
HETATM    5  H   UNL     1      26.255  50.702  47.852  1.00  0.00     0.188 HD
HETATM    6  C   UNL     1      24.191  50.082  47.874  1.00  0.00     0.120 A 
ENDROOT
BRANCH   1   7
HETATM    7  C   UNL     1      22.205  48.578  48.596  1.00  0.00     0.277 C 
BRANCH   7   8
HETATM    8  N   UNL     1      21.375  49.377  49.577  1.00  0.00    -0.065 N 
HETATM    9  H   UNL     1      21.273  48.813  50.429  1.00  0.00     0.280 HD
HETATM   10  C   UNL     1      21.999  50.700  49.930  1.00  0.00     0.270 C 
BRANCH   8  11
HETATM   11  C   UNL     1      20.040  49.663  48.956  1.00  0.00     0.205 C 
HETATM   12  C   UNL     1      18.757  49.110  49.768  1.00  0.00     0.008 C 
HETATM   13  C   UNL     1      18.791  48.986  51.292  1.00  0.00     0.020 C 
HETATM   14  C   UNL     1      18.132  47.858  49.142  1.00  0.00     0.020 C 
HETATM   15  C   UNL     1      18.098  50.392  49.222  1.00  0.00     0.137 C 
HETATM   16  C   UNL     1      19.489  51.083  49.332  1.00  0.00     0.049 C 
HETATM   17  O   UNL     1      17.193  51.273  49.885  1.00  0.00    -0.385 OA
HETATM   18  C   UNL     1      18.959  52.382  48.739  1.00  0.00     0.035 C 
HETATM   19  C   UNL     1      17.655  52.610  49.563  1.00  0.00     0.168 C 
ENDBRANCH   8  11
ENDBRANCH   7   8
ENDBRANCH   1   7
BRANCH   2  20
HETATM   20  C   UNL     1      24.747  47.236  50.102  1.00  0.00    -0.002 A 
HETATM   21  C   UNL     1      25.364  47.359  51.357  1.00  0.00     0.053 A 
HETATM   22  C   UNL     1      25.369  46.285  52.246  1.00  0.00     0.103 A 
HETATM   23  C   UNL     1      24.784  45.072  51.879  1.00  0.00     0.102 A 
HETATM   24  O   UNL     1      25.979  46.493  53.455  1.00  0.00    -0.346 OA
HETATM   25  O   UNL     1      24.782  43.966  52.689  1.00  0.00    -0.346 OA
HETATM   26  C   UNL     1      24.168  44.940  50.637  1.00  0.00     0.040 A 
HETATM   27  C   UNL     1      25.769  44.082  53.723  1.00  0.00     0.202 C 
HETATM   28  C   UNL     1      25.688  45.446  54.389  1.00  0.00     0.202 C 
HETATM   29  C   UNL     1      24.159  46.016  49.743  1.00  0.00     0.017 A 
ENDBRANCH   2  20
TORSDOF 4
ENDMDL
MODEL 3
REMARK VINA RESULT:      -8.1      2.590      4.457
REMARK  4 active torsions:
REMARK  status: ('A' for Active; 'I' for Inactive)
REMARK    1  A    between atoms: C_9  and  N_10 
REMARK    2  A    between atoms: N_10  and  C_12 
REMARK    3  A    between atoms: C_12  and  C_13 
REMARK    4  A    between atoms: C_14  and  C_15 
ROOT
HETATM    1  C   UNL     1      25.648  48.110  49.826  1.00  0.00     0.016 A 
HETATM    2  C   UNL     1      25.009  49.082  48.991  1.00  0.00     0.096 A 
HETATM    3  N   UNL     1      25.897  49.680  48.188  1.00  0.00    -0.174 NA
HETATM    4  N   UNL     1      27.068  49.108  48.466  1.00  0.00    -0.288 N 
HETATM    5  H   UNL     1      27.887  49.411  47.944  1.00  0.00     0.188 HD
HETATM    6  C   UNL     1      26.977  48.149  49.436  1.00  0.00     0.120 A 
ENDROOT
BRANCH   1   7
HETATM    7  C   UNL     1      24.990  47.207  50.810  1.00  0.00     0.277 C 
BRANCH   7   8
HETATM    8  N   UNL     1      25.910  46.680  51.890  1.00  0.00    -0.065 N 
HETATM    9  H   UNL     1      26.875  46.800  51.560  1.00  0.00     0.280 HD
HETATM   10  C   UNL     1      25.743  47.398  53.202  1.00  0.00     0.270 C 
BRANCH   8  11
HETATM   11  C   UNL     1      25.595  45.234  52.127  1.00  0.00     0.205 C 
HETATM   12  C   UNL     1      26.152  44.204  51.014  1.00  0.00     0.008 C 
HETATM   13  C   UNL     1      27.437  44.506  50.242  1.00  0.00     0.020 C 
HETATM   14  C   UNL     1      25.066  43.686  50.063  1.00  0.00     0.020 C 
HETATM   15  C   UNL     1      26.314  43.273  52.231  1.00  0.00     0.137 C 
HETATM   16  C   UNL     1      26.627  44.538  53.083  1.00  0.00     0.049 C 
HETATM   17  O   UNL     1      27.376  42.364  52.515  1.00  0.00    -0.385 OA
HETATM   18  C   UNL     1      26.745  43.723  54.364  1.00  0.00     0.035 C 
HETATM   19  C   UNL     1      27.677  42.553  53.922  1.00  0.00     0.168 C 
ENDBRANCH   8  11
ENDBRANCH   7   8
ENDBRANCH   1   7
BRANCH   2  20
HETATM   20  C   UNL     1      23.592  49.422  48.894  1.00  0.00    -0.002 A 
HETATM   21  C   UNL     1      22.635  48.397  48.944  1.00  0.00     0.053 A 
HETATM   22  C   UNL     1      21.276  48.699  48.868  1.00  0.00     0.103 A 
HETATM   23  C   UNL     1      20.863  50.023  48.714  1.00  0.00     0.102 A 
HETATM   24  O   UNL     1      20.408  47.641  48.939  1.00  0.00    -0.346 OA
HETATM   25  O   UNL     1      19.546  50.389  48.600  1.00  0.00    -0.346 OA
HETATM   26  C   UNL     1      21.805  51.048  48.665  1.00  0.00     0.040 A 
HETATM   27  C   UNL     1      18.727  49.264  48.253  1.00  0.00     0.202 C 
HETATM   28  C   UNL     1      19.055  48.072  49.137  1.00  0.00     0.202 C 
HETATM   29  C   UNL     1      23.169  50.750  48.743  1.00  0.00     0.017 A 
ENDBRANCH   2  20
TORSDOF 4
ENDMDL
MODEL 4
REMARK VINA RESULT:      -8.1      3.278      9.058
REMARK  4 active torsions:
REMARK  status: ('A' for Active; 'I' for Inactive)
REMARK    1  A    between atoms: C_9  and  N_10 
REMARK    2  A    between atoms: N_10  and  C_12 
REMARK    3  A    between atoms: C_12  and  C_13 
REMARK    4  A    between atoms: C_14  and  C_15 
ROOT
HETATM    1  C   UNL     1      25.072  48.595  49.116  1.00  0.00     0.016 A 
HETATM    2  C   UNL     1      26.258  47.873  49.469  1.00  0.00     0.096 A 
HETATM    3  N   UNL     1      27.344  48.459  48.953  1.00  0.00    -0.174 NA
HETATM    4  N   UNL     1      26.895  49.535  48.308  1.00  0.00    -0.288 N 
HETATM    5  H   UNL     1      27.574  50.141  47.852  1.00  0.00     0.188 HD
HETATM    6  C   UNL     1      25.537  49.673  48.381  1.00  0.00     0.120 A 
ENDROOT
BRANCH   1   7
HETATM    7  C   UNL     1      23.679  48.285  49.541  1.00  0.00     0.277 C 
BRANCH   7   8
HETATM    8  N   UNL     1      22.684  48.191  48.406  1.00  0.00    -0.065 N 
HETATM    9  H   UNL     1      23.081  48.694  47.603  1.00  0.00     0.280 HD
HETATM   10  C   UNL     1      22.388  46.771  48.004  1.00  0.00     0.270 C 
BRANCH   8  11
HETATM   11  C   UNL     1      21.391  48.811  48.845  1.00  0.00     0.205 C 
HETATM   12  C   UNL     1      21.394  50.422  48.972  1.00  0.00     0.008 C 
HETATM   13  C   UNL     1      22.292  51.275  48.074  1.00  0.00     0.020 C 
HETATM   14  C   UNL     1      21.457  50.920  50.420  1.00  0.00     0.020 C 
HETATM   15  C   UNL     1      19.935  50.271  48.498  1.00  0.00     0.137 C 
HETATM   16  C   UNL     1      20.397  49.047  47.654  1.00  0.00     0.049 C 
HETATM   17  O   UNL     1      19.211  51.096  47.588  1.00  0.00    -0.385 OA
HETATM   18  C   UNL     1      18.979  48.765  47.174  1.00  0.00     0.035 C 
HETATM   19  C   UNL     1      18.501  50.177  46.719  1.00  0.00     0.168 C 
ENDBRANCH   8  11
ENDBRANCH   7   8
ENDBRANCH   1   7
BRANCH   2  20
HETATM   20  C   UNL     1      26.397  46.689  50.312  1.00  0.00    -0.002 A 
HETATM   21  C   UNL     1      25.978  46.746  51.650  1.00  0.00     0.053 A 
HETATM   22  C   UNL     1      26.088  45.624  52.470  1.00  0.00     0.103 A 
HETATM   23  C   UNL     1      26.643  44.445  51.969  1.00  0.00     0.102 A 
HETATM   24  O   UNL     1      25.643  45.760  53.758  1.00  0.00    -0.346 OA
HETATM   25  O   UNL     1      26.812  43.315  52.727  1.00  0.00    -0.346 OA
HETATM   26  C   UNL     1      27.060  44.378  50.642  1.00  0.00     0.040 A 
HETATM   27  C   UNL     1      26.741  43.619  54.127  1.00  0.00     0.202 C 
HETATM   28  C   UNL     1      25.536  44.495  54.424  1.00  0.00     0.202 C 
HETATM   29  C   UNL     1      26.950  45.500  49.816  1.00  0.00     0.017 A 
ENDBRANCH   2  20
TORSDOF 4
ENDMDL
MODEL 5
REMARK VINA RESULT:      -8.0      1.446      7.415
REMARK  4 active torsions:
REMARK  status: ('A' for Active; 'I' for Inactive)
REMARK    1  A    between atoms: C_9  and  N_10 
REMARK    2  A    between atoms: N_10  and  C_12 
REMARK    3  A    between atoms: C_12  and  C_13 
REMARK    4  A    between atoms: C_14  and  C_15 
ROOT
HETATM    1  C   UNL     1      26.469  42.208  51.445  1.00  0.00     0.016 A 
HETATM    2  C   UNL     1      27.681  42.122  52.203  1.00  0.00     0.096 A 
HETATM    3  N   UNL     1      28.390  41.044  51.848  1.00  0.00    -0.174 NA
HETATM    4  N   UNL     1      27.685  40.459  50.879  1.00  0.00    -0.288 N 
HETATM    5  H   UNL     1      28.065  39.618  50.451  1.00  0.00     0.188 HD
HETATM    6  C   UNL     1      26.526  41.121  50.588  1.00  0.00     0.120 A 
ENDROOT
BRANCH   1   7
HETATM    7  C   UNL     1      25.446  43.289  51.517  1.00  0.00     0.277 C 
BRANCH   7   8
HETATM    8  N   UNL     1      25.465  44.247  50.346  1.00  0.00    -0.065 N 
HETATM    9  H   UNL     1      26.448  44.454  50.130  1.00  0.00     0.280 HD
HETATM   10  C   UNL     1      24.797  43.686  49.120  1.00  0.00     0.270 C 
BRANCH   8  11
HETATM   11  C   UNL     1      24.724  45.492  50.730  1.00  0.00     0.205 C 
HETATM   12  C   UNL     1      25.626  46.822  50.897  1.00  0.00     0.008 C 
HETATM   13  C   UNL     1      26.898  47.012  50.069  1.00  0.00     0.020 C 
HETATM   14  C   UNL     1      25.874  47.213  52.358  1.00  0.00     0.020 C 
HETATM   15  C   UNL     1      24.365  47.515  50.343  1.00  0.00     0.137 C 
HETATM   16  C   UNL     1      24.106  46.236  49.495  1.00  0.00     0.049 C 
HETATM   17  O   UNL     1      24.286  48.596  49.415  1.00  0.00    -0.385 OA
HETATM   18  C   UNL     1      22.806  46.796  48.933  1.00  0.00     0.035 C 
HETATM   19  C   UNL     1      23.233  48.228  48.487  1.00  0.00     0.168 C 
ENDBRANCH   8  11
ENDBRANCH   7   8
ENDBRANCH   1   7
BRANCH   2  20
HETATM   20  C   UNL     1      28.207  43.045  53.205  1.00  0.00    -0.002 A 
HETATM   21  C   UNL     1      29.239  42.620  54.055  1.00  0.00     0.053 A 
HETATM   22  C   UNL     1      29.767  43.489  55.010  1.00  0.00     0.103 A 
HETATM   23  C   UNL     1      29.250  44.778  55.141  1.00  0.00     0.102 A 
HETATM   24  O   UNL     1      30.782  43.000  55.789  1.00  0.00    -0.346 OA
HETATM   25  O   UNL     1      29.698  45.673  56.078  1.00  0.00    -0.346 OA
HETATM   26  C   UNL     1      28.226  45.210  54.301  1.00  0.00     0.040 A 
HETATM   27  C   UNL     1      30.426  45.008  57.119  1.00  0.00     0.202 C 
HETATM   28  C   UNL     1      31.437  44.039  56.528  1.00  0.00     0.202 C 
HETATM   29  C   UNL     1      27.695  44.343  53.342  1.00  0.00     0.017 A 
ENDBRANCH   2  20
TORSDOF 4
ENDMDL
MODEL 6
REMARK VINA RESULT:      -7.9      1.561      2.543
REMARK  4 active torsions:
REMARK  status: ('A' for Active; 'I' for Inactive)
REMARK    1  A    between atoms: C_9  and  N_10 
REMARK    2  A    between atoms: N_10  and  C_12 
REMARK    3  A    between atoms: C_12  and  C_13 
REMARK    4  A    between atoms: C_14  and  C_15 
ROOT
HETATM    1  C   UNL     1      24.873  43.073  49.722  1.00  0.00     0.016 A 
HETATM    2  C   UNL     1      23.815  43.986  49.407  1.00  0.00     0.096 A 
HETATM    3  N   UNL     1      22.694  43.327  49.093  1.00  0.00    -0.174 NA
HETATM    4  N   UNL     1      22.995  42.035  49.218  1.00  0.00    -0.288 N 
HETATM    5  H   UNL     1      22.262  41.352  49.039  1.00  0.00     0.188 HD
HETATM    6  C   UNL     1      24.288  41.823  49.604  1.00  0.00     0.120 A 
ENDROOT
BRANCH   1   7
HETATM    7  C   UNL     1      26.251  43.423  50.166  1.00  0.00     0.277 C 
BRANCH   7   8
HETATM    8  N   UNL     1      26.607  42.926  51.550  1.00  0.00    -0.065 N 
HETATM    9  H   UNL     1      25.740  42.890  52.099  1.00  0.00     0.280 HD
HETATM   10  C   UNL     1      27.241  41.561  51.536  1.00  0.00     0.270 C 
BRANCH   8  11
HETATM   11  C   UNL     1      27.595  43.873  52.162  1.00  0.00     0.205 C 
HETATM   12  C   UNL     1      27.160  44.522  53.576  1.00  0.00     0.008 C 
HETATM   13  C   UNL     1      26.258  43.754  54.544  1.00  0.00     0.020 C 
HETATM   14  C   UNL     1      26.704  45.981  53.465  1.00  0.00     0.020 C 
HETATM   15  C   UNL     1      28.671  44.432  53.865  1.00  0.00     0.137 C 
HETATM   16  C   UNL     1      28.700  43.139  52.999  1.00  0.00     0.049 C 
HETATM   17  O   UNL     1      29.318  44.075  55.085  1.00  0.00    -0.385 OA
HETATM   18  C   UNL     1      30.207  42.988  53.164  1.00  0.00     0.035 C 
HETATM   19  C   UNL     1      30.388  43.172  54.701  1.00  0.00     0.168 C 
ENDBRANCH   8  11
ENDBRANCH   7   8
ENDBRANCH   1   7
BRANCH   2  20
HETATM   20  C   UNL     1      23.818  45.446  49.446  1.00  0.00    -0.002 A 
HETATM   21  C   UNL     1      23.060  46.159  48.505  1.00  0.00     0.053 A 
HETATM   22  C   UNL     1      23.036  47.553  48.532  1.00  0.00     0.103 A 
HETATM   23  C   UNL     1      23.790  48.245  49.480  1.00  0.00     0.102 A 
HETATM   24  O   UNL     1      22.260  48.171  47.588  1.00  0.00    -0.346 OA
HETATM   25  O   UNL     1      23.840  49.614  49.544  1.00  0.00    -0.346 OA
HETATM   26  C   UNL     1      24.545  47.547  50.420  1.00  0.00     0.040 A 
HETATM   27  C   UNL     1      23.383  50.204  48.319  1.00  0.00     0.202 C 
HETATM   28  C   UNL     1      22.079  49.565  47.872  1.00  0.00     0.202 C 
HETATM   29  C   UNL     1      24.570  46.149  50.397  1.00  0.00     0.017 A 
ENDBRANCH   2  20
TORSDOF 4
ENDMDL
MODEL 7
REMARK VINA RESULT:      -7.8      1.392      2.339
REMARK  4 active torsions:
REMARK  status: ('A' for Active; 'I' for Inactive)
REMARK    1  A    between atoms: C_9  and  N_10 
REMARK    2  A    between atoms: N_10  and  C_12 
REMARK    3  A    between atoms: C_12  and  C_13 
REMARK    4  A    between atoms: C_14  and  C_15 
ROOT
HETATM    1  C   UNL     1      26.966  42.733  50.922  1.00  0.00     0.016 A 
HETATM    2  C   UNL     1      25.987  43.452  50.162  1.00  0.00     0.096 A 
HETATM    3  N   UNL     1      25.056  42.623  49.678  1.00  0.00    -0.174 NA
HETATM    4  N   UNL     1      25.394  41.412  50.120  1.00  0.00    -0.288 N 
HETATM    5  H   UNL     1      24.795  40.627  49.876  1.00  0.00     0.188 HD
HETATM    6  C   UNL     1      26.529  41.419  50.882  1.00  0.00     0.120 A 
ENDROOT
BRANCH   1   7
HETATM    7  C   UNL     1      28.125  43.311  51.658  1.00  0.00     0.277 C 
BRANCH   7   8
HETATM    8  N   UNL     1      27.946  43.372  53.159  1.00  0.00    -0.065 N 
HETATM    9  H   UNL     1      26.975  43.107  53.367  1.00  0.00     0.280 HD
HETATM   10  C   UNL     1      28.879  42.450  53.897  1.00  0.00     0.270 C 
BRANCH   8  11
HETATM   11  C   UNL     1      28.235  44.768  53.623  1.00  0.00     0.205 C 
HETATM   12  C   UNL     1      26.970  45.590  54.202  1.00  0.00     0.008 C 
HETATM   13  C   UNL     1      25.818  44.863  54.898  1.00  0.00     0.020 C 
HETATM   14  C   UNL     1      26.429  46.644  53.229  1.00  0.00     0.020 C 
HETATM   15  C   UNL     1      28.035  46.193  55.139  1.00  0.00     0.137 C 
HETATM   16  C   UNL     1      28.765  44.819  55.098  1.00  0.00     0.049 C 
HETATM   17  O   UNL     1      27.917  46.509  56.525  1.00  0.00    -0.385 OA
HETATM   18  C   UNL     1      29.908  45.331  55.967  1.00  0.00     0.035 C 
HETATM   19  C   UNL     1      29.144  46.028  57.133  1.00  0.00     0.168 C 
ENDBRANCH   8  11
ENDBRANCH   7   8
ENDBRANCH   1   7
BRANCH   2  20
HETATM   20  C   UNL     1      25.879  44.889  49.928  1.00  0.00    -0.002 A 
HETATM   21  C   UNL     1      24.609  45.468  49.782  1.00  0.00     0.053 A 
HETATM   22  C   UNL     1      24.480  46.840  49.572  1.00  0.00     0.103 A 
HETATM   23  C   UNL     1      25.620  47.641  49.477  1.00  0.00     0.102 A 
HETATM   24  O   UNL     1      23.205  47.326  49.455  1.00  0.00    -0.346 OA
HETATM   25  O   UNL     1      25.569  48.990  49.239  1.00  0.00    -0.346 OA
HETATM   26  C   UNL     1      26.885  47.077  49.622  1.00  0.00     0.040 A 
HETATM   27  C   UNL     1      24.292  49.373  48.709  1.00  0.00     0.202 C 
HETATM   28  C   UNL     1      23.169  48.757  49.526  1.00  0.00     0.202 C 
HETATM   29  C   UNL     1      27.018  45.701  49.835  1.00  0.00     0.017 A 
ENDBRANCH   2  20
TORSDOF 4
ENDMDL
MODEL 8
REMARK VINA RESULT:      -7.5      6.115     10.549
REMARK  4 active torsions:
REMARK  status: ('A' for Active; 'I' for Inactive)
REMARK    1  A    between atoms: C_9  and  N_10 
REMARK    2  A    between atoms: N_10  and  C_12 
REMARK    3  A    between atoms: C_12  and  C_13 
REMARK    4  A    between atoms: C_14  and  C_15 
ROOT
HETATM    1  C   UNL     1      19.190  51.160  47.792  1.00  0.00     0.016 A 
HETATM    2  C   UNL     1      20.173  51.153  48.833  1.00  0.00     0.096 A 
HETATM    3  N   UNL     1      19.714  51.772  49.927  1.00  0.00    -0.174 NA
HETATM    4  N   UNL     1      18.471  52.149  49.626  1.00  0.00    -0.288 N 
HETATM    5  H   UNL     1      17.929  52.629  50.341  1.00  0.00     0.188 HD
HETATM    6  C   UNL     1      18.099  51.799  48.359  1.00  0.00     0.120 A 
ENDROOT
BRANCH   1   7
HETATM    7  C   UNL     1      19.308  50.528  46.449  1.00  0.00     0.277 C 
BRANCH   7   8
HETATM    8  N   UNL     1      18.339  49.392  46.203  1.00  0.00    -0.065 N 
HETATM    9  H   UNL     1      17.404  49.717  46.478  1.00  0.00     0.280 HD
HETATM   10  C   UNL     1      18.308  48.951  44.765  1.00  0.00     0.270 C 
BRANCH   8  11
HETATM   11  C   UNL     1      18.763  48.211  47.025  1.00  0.00     0.205 C 
HETATM   12  C   UNL     1      17.692  47.699  48.120  1.00  0.00     0.008 C 
HETATM   13  C   UNL     1      16.190  47.861  47.880  1.00  0.00     0.020 C 
HETATM   14  C   UNL     1      18.050  48.096  49.557  1.00  0.00     0.020 C 
HETATM   15  C   UNL     1      18.275  46.318  47.764  1.00  0.00     0.137 C 
HETATM   16  C   UNL     1      18.478  46.843  46.313  1.00  0.00     0.049 C 
HETATM   17  O   UNL     1      17.584  45.078  47.615  1.00  0.00    -0.385 OA
HETATM   18  C   UNL     1      19.130  45.541  45.866  1.00  0.00     0.035 C 
HETATM   19  C   UNL     1      18.138  44.473  46.418  1.00  0.00     0.168 C 
ENDBRANCH   8  11
ENDBRANCH   7   8
ENDBRANCH   1   7
BRANCH   2  20
HETATM   20  C   UNL     1      21.498  50.541  48.843  1.00  0.00    -0.002 A 
HETATM   21  C   UNL     1      21.629  49.192  49.208  1.00  0.00     0.053 A 
HETATM   22  C   UNL     1      22.883  48.582  49.211  1.00  0.00     0.103 A 
HETATM   23  C   UNL     1      24.019  49.321  48.875  1.00  0.00     0.102 A 
HETATM   24  O   UNL     1      22.921  47.260  49.566  1.00  0.00    -0.346 OA
HETATM   25  O   UNL     1      25.285  48.795  48.888  1.00  0.00    -0.346 OA
HETATM   26  C   UNL     1      23.900  50.660  48.509  1.00  0.00     0.040 A 
HETATM   27  C   UNL     1      25.332  47.584  49.654  1.00  0.00     0.202 C 
HETATM   28  C   UNL     1      24.188  46.661  49.267  1.00  0.00     0.202 C 
HETATM   29  C   UNL     1      22.644  51.274  48.504  1.00  0.00     0.017 A 
ENDBRANCH   2  20
TORSDOF 4
ENDMDL
MODEL 9
REMARK VINA RESULT:      -7.5      3.927      7.293
REMARK  4 active torsions:
REMARK  status: ('A' for Active; 'I' for Inactive)
REMARK    1  A    between atoms: C_9  and  N_10 
REMARK    2  A    between atoms: N_10  and  C_12 
REMARK    3  A    between atoms: C_12  and  C_13 
REMARK    4  A    between atoms: C_14  and  C_15 
ROOT
HETATM    1  C   UNL     1      26.521  43.918  52.413  1.00  0.00     0.016 A 
HETATM    2  C   UNL     1      26.927  45.122  53.074  1.00  0.00     0.096 A 
HETATM    3  N   UNL     1      26.334  46.189  52.527  1.00  0.00    -0.174 NA
HETATM    4  N   UNL     1      25.552  45.705  51.562  1.00  0.00    -0.288 N 
HETATM    5  H   UNL     1      24.989  46.362  51.026  1.00  0.00     0.188 HD
HETATM    6  C   UNL     1      25.616  44.345  51.454  1.00  0.00     0.120 A 
ENDROOT
BRANCH   1   7
HETATM    7  C   UNL     1      26.923  42.527  52.764  1.00  0.00     0.277 C 
BRANCH   7   8
HETATM    8  N   UNL     1      27.944  41.915  51.830  1.00  0.00    -0.065 N 
HETATM    9  H   UNL     1      28.216  42.638  51.153  1.00  0.00     0.280 HD
HETATM   10  C   UNL     1      29.171  41.420  52.547  1.00  0.00     0.270 C 
BRANCH   8  11
HETATM   11  C   UNL     1      27.321  40.738  51.141  1.00  0.00     0.205 C 
HETATM   12  C   UNL     1      26.625  41.047  49.716  1.00  0.00     0.008 C 
HETATM   13  C   UNL     1      27.150  42.167  48.816  1.00  0.00     0.020 C 
HETATM   14  C   UNL     1      25.094  41.085  49.780  1.00  0.00     0.020 C 
HETATM   15  C   UNL     1      27.132  39.632  49.377  1.00  0.00     0.137 C 
HETATM   16  C   UNL     1      28.355  39.913  50.298  1.00  0.00     0.049 C 
HETATM   17  O   UNL     1      27.691  39.163  48.152  1.00  0.00    -0.385 OA
HETATM   18  C   UNL     1      28.915  38.512  50.086  1.00  0.00     0.035 C 
HETATM   19  C   UNL     1      28.838  38.361  48.536  1.00  0.00     0.168 C 
ENDBRANCH   8  11
ENDBRANCH   7   8
ENDBRANCH   1   7
BRANCH   2  20
HETATM   20  C   UNL     1      27.808  45.286  54.227  1.00  0.00    -0.002 A 
HETATM   21  C   UNL     1      28.822  44.344  54.456  1.00  0.00     0.053 A 
HETATM   22  C   UNL     1      29.684  44.488  55.542  1.00  0.00     0.103 A 
HETATM   23  C   UNL     1      29.522  45.558  56.423  1.00  0.00     0.102 A 
HETATM   24  O   UNL     1      30.655  43.533  55.686  1.00  0.00    -0.346 OA
HETATM   25  O   UNL     1      30.312  45.744  57.530  1.00  0.00    -0.346 OA
HETATM   26  C   UNL     1      28.520  46.500  56.204  1.00  0.00     0.040 A 
HETATM   27  C   UNL     1      31.005  44.537  57.876  1.00  0.00     0.202 C 
HETATM   28  C   UNL     1      31.648  43.918  56.645  1.00  0.00     0.202 C 
HETATM   29  C   UNL     1      27.654  46.360  55.115  1.00  0.00     0.017 A 
ENDBRANCH   2  20
TORSDOF 4
ENDMDL
MODEL 10
REMARK VINA RESULT:      -7.5     12.079     14.575
REMARK  4 active torsions:
REMARK  status: ('A' for Active; 'I' for Inactive)
REMARK    1  A    between atoms: C_9  and  N_10 
REMARK    2  A    between atoms: N_10  and  C_12 
REMARK    3  A    between atoms: C_12  and  C_13 
REMARK    4  A    between atoms: C_14  and  C_15 
ROOT
HETATM    1  C   UNL     1      28.992  51.437  40.122  1.00  0.00     0.016 A 
HETATM    2  C   UNL     1      30.046  51.817  41.014  1.00  0.00     0.096 A 
HETATM    3  N   UNL     1      29.584  52.608  41.989  1.00  0.00    -0.174 NA
HETATM    4  N   UNL     1      28.276  52.724  41.762  1.00  0.00    -0.288 N 
HETATM    5  H   UNL     1      27.724  53.280  42.411  1.00  0.00     0.188 HD
HETATM    6  C   UNL     1      27.862  52.033  40.659  1.00  0.00     0.120 A 
ENDROOT
BRANCH   1   7
HETATM    7  C   UNL     1      29.100  50.525  38.949  1.00  0.00     0.277 C 
BRANCH   7   8
HETATM    8  N   UNL     1      28.085  49.404  38.932  1.00  0.00    -0.065 N 
HETATM    9  H   UNL     1      27.606  49.405  39.841  1.00  0.00     0.280 HD
HETATM   10  C   UNL     1      27.065  49.555  37.835  1.00  0.00     0.270 C 
BRANCH   8  11
HETATM   11  C   UNL     1      28.802  48.108  38.701  1.00  0.00     0.205 C 
HETATM   12  C   UNL     1      29.667  47.554  39.949  1.00  0.00     0.008 C 
HETATM   13  C   UNL     1      29.244  47.856  41.388  1.00  0.00     0.020 C 
HETATM   14  C   UNL     1      31.177  47.753  39.781  1.00  0.00     0.020 C 
HETATM   15  C   UNL     1      29.223  46.183  39.401  1.00  0.00     0.137 C 
HETATM   16  C   UNL     1      27.891  46.857  38.959  1.00  0.00     0.049 C 
HETATM   17  O   UNL     1      28.827  45.025  40.133  1.00  0.00    -0.385 OA
HETATM   18  C   UNL     1      27.379  45.570  38.325  1.00  0.00     0.035 C 
HETATM   19  C   UNL     1      27.651  44.522  39.447  1.00  0.00     0.168 C 
ENDBRANCH   8  11
ENDBRANCH   7   8
ENDBRANCH   1   7
BRANCH   2  20
HETATM   20  C   UNL     1      31.451  51.417  41.001  1.00  0.00    -0.002 A 
HETATM   21  C   UNL     1      32.306  51.943  40.020  1.00  0.00     0.053 A 
HETATM   22  C   UNL     1      33.653  51.587  39.997  1.00  0.00     0.103 A 
HETATM   23  C   UNL     1      34.152  50.682  40.935  1.00  0.00     0.102 A 
HETATM   24  O   UNL     1      34.422  52.156  39.016  1.00  0.00    -0.346 OA
HETATM   25  O   UNL     1      35.457  50.262  40.952  1.00  0.00    -0.346 OA
HETATM   26  C   UNL     1      33.312  50.155  41.914  1.00  0.00     0.040 A 
HETATM   27  C   UNL     1      36.100  50.529  39.698  1.00  0.00     0.202 C 
HETATM   28  C   UNL     1      35.822  51.954  39.248  1.00  0.00     0.202 C 
HETATM   29  C   UNL     1      31.960  50.511  41.942  1.00  0.00     0.017 A 
ENDBRANCH   2  20
TORSDOF 4
ENDMDL
