MODEL 1
REMARK VINA RESULT:      -8.8      0.000      0.000
REMARK  6 active torsions:
REMARK  status: ('A' for Active; 'I' for Inactive)
REMARK    1  A    between atoms: C_2  and  C_3 
REMARK       I    between atoms: C_3  and  N_4 
REMARK    2  A    between atoms: N_4  and  C_5 
REMARK    3  A    between atoms: C_7  and  N_8 
REMARK       I    between atoms: N_8  and  C_9 
REMARK    4  A    between atoms: C_9  and  C_10 
REMARK    5  A    between atoms: C_12  and  O_13 
REMARK    6  A    between atoms: O_13  and  C_14 
ROOT
HETATM    1  N   UNL     1      26.313  46.868  51.772  1.00  0.00    -0.323 N 
HETATM    2  C   UNL     1      26.020  46.713  50.429  1.00  0.00     0.256 C 
HETATM    3  O   UNL     1      25.784  45.658  49.851  1.00  0.00    -0.267 OA
HETATM    4  H   UNL     1      26.629  47.778  52.084  1.00  0.00     0.169 HD
ENDROOT
BRANCH   1   5
HETATM    5  C   UNL     1      26.301  45.862  52.766  1.00  0.00     0.037 A 
HETATM    6  C   UNL     1      27.541  45.332  53.161  1.00  0.00     0.059 A 
HETATM    7  C   UNL     1      27.623  44.334  54.138  1.00  0.00     0.036 A 
HETATM    8  C   UNL     1      26.445  43.867  54.729  1.00  0.00     0.029 A 
HETATM    9  C   UNL     1      25.209  44.391  54.351  1.00  0.00     0.004 A 
HETATM   10  C   UNL     1      25.139  45.385  53.375  1.00  0.00     0.029 A 
BRANCH   7  11
HETATM   11  N   UNL     1      28.831  43.754  54.579  1.00  0.00    -0.327 N 
HETATM   12  C   UNL     1      29.750  44.282  55.466  1.00  0.00     0.221 C 
HETATM   13  O   UNL     1      29.679  45.366  56.035  1.00  0.00    -0.273 OA
HETATM   14  H   UNL     1      29.042  42.839  54.199  1.00  0.00     0.169 HD
BRANCH  12  15
HETATM   15  C   UNL     1      30.937  43.364  55.695  1.00  0.00     0.098 C 
HETATM   16  C   UNL     1      31.492  43.490  57.103  1.00  0.00     0.014 C 
ENDBRANCH  12  15
ENDBRANCH   7  11
ENDBRANCH   1   5
BRANCH   2  17
HETATM   17  C   UNL     1      26.028  47.958  49.611  1.00  0.00     0.037 A 
HETATM   18  C   UNL     1      24.895  48.427  48.949  1.00  0.00     0.075 A 
HETATM   19  C   UNL     1      25.036  49.553  48.159  1.00  0.00     0.165 A 
HETATM   20  N   UNL     1      26.191  50.231  48.001  1.00  0.00    -0.237 NA
HETATM   21  C   UNL     1      27.271  49.756  48.653  1.00  0.00     0.120 A 
HETATM   22  C   UNL     1      27.242  48.631  49.457  1.00  0.00     0.036 A 
BRANCH  19  23
HETATM   23  O   UNL     1      23.906  49.995  47.496  1.00  0.00    -0.329 OA
BRANCH  23  24
HETATM   24  C   UNL     1      22.675  49.950  48.252  1.00  0.00     0.130 C 
HETATM   25  C   UNL     1      22.520  51.081  49.303  1.00  0.00     0.032 C 
HETATM   26  C   UNL     1      21.019  51.099  48.966  1.00  0.00     0.005 C 
HETATM   27  C   UNL     1      21.395  50.525  47.588  1.00  0.00     0.032 C 
ENDBRANCH  23  24
ENDBRANCH  19  23
ENDBRANCH   2  17
TORSDOF 6
ENDMDL
MODEL 2
REMARK VINA RESULT:      -8.6      1.763      9.238
REMARK  6 active torsions:
REMARK  status: ('A' for Active; 'I' for Inactive)
REMARK    1  A    between atoms: C_2  and  C_3 
REMARK       I    between atoms: C_3  and  N_4 
REMARK    2  A    between atoms: N_4  and  C_5 
REMARK    3  A    between atoms: C_7  and  N_8 
REMARK       I    between atoms: N_8  and  C_9 
REMARK    4  A    between atoms: C_9  and  C_10 
REMARK    5  A    between atoms: C_12  and  O_13 
REMARK    6  A    between atoms: O_13  and  C_14 
ROOT
HETATM    1  N   UNL     1      26.480  46.678  50.495  1.00  0.00    -0.323 N 
HETATM    2  C   UNL     1      26.210  45.368  50.143  1.00  0.00     0.256 C 
HETATM    3  O   UNL     1      25.634  44.990  49.129  1.00  0.00    -0.267 OA
HETATM    4  H   UNL     1      26.831  46.852  51.429  1.00  0.00     0.169 HD
ENDROOT
BRANCH   1   5
HETATM    5  C   UNL     1      26.239  47.835  49.718  1.00  0.00     0.037 A 
HETATM    6  C   UNL     1      24.898  48.185  49.485  1.00  0.00     0.059 A 
HETATM    7  C   UNL     1      24.568  49.314  48.727  1.00  0.00     0.036 A 
HETATM    8  C   UNL     1      25.597  50.102  48.202  1.00  0.00     0.029 A 
HETATM    9  C   UNL     1      26.930  49.768  48.434  1.00  0.00     0.004 A 
HETATM   10  C   UNL     1      27.249  48.640  49.190  1.00  0.00     0.029 A 
BRANCH   7  11
HETATM   11  N   UNL     1      23.246  49.723  48.448  1.00  0.00    -0.327 N 
HETATM   12  C   UNL     1      22.451  50.580  49.187  1.00  0.00     0.221 C 
HETATM   13  O   UNL     1      22.757  51.146  50.231  1.00  0.00    -0.273 OA
HETATM   14  H   UNL     1      22.839  49.343  47.604  1.00  0.00     0.169 HD
BRANCH  12  15
HETATM   15  C   UNL     1      21.078  50.780  48.572  1.00  0.00     0.098 C 
HETATM   16  C   UNL     1      20.077  51.323  49.577  1.00  0.00     0.014 C 
ENDBRANCH  12  15
ENDBRANCH   7  11
ENDBRANCH   1   5
BRANCH   2  17
HETATM   17  C   UNL     1      26.640  44.327  51.117  1.00  0.00     0.037 A 
HETATM   18  C   UNL     1      27.054  44.636  52.412  1.00  0.00     0.075 A 
HETATM   19  C   UNL     1      27.500  43.596  53.206  1.00  0.00     0.165 A 
HETATM   20  N   UNL     1      27.547  42.307  52.814  1.00  0.00    -0.237 NA
HETATM   21  C   UNL     1      27.139  42.036  51.558  1.00  0.00     0.120 A 
HETATM   22  C   UNL     1      26.688  43.001  50.679  1.00  0.00     0.036 A 
BRANCH  19  23
HETATM   23  O   UNL     1      27.924  43.923  54.480  1.00  0.00    -0.329 OA
BRANCH  23  24
HETATM   24  C   UNL     1      29.328  44.244  54.613  1.00  0.00     0.130 C 
HETATM   25  C   UNL     1      29.687  45.065  55.880  1.00  0.00     0.032 C 
HETATM   26  C   UNL     1      30.999  44.263  55.948  1.00  0.00     0.005 C 
HETATM   27  C   UNL     1      30.272  43.147  55.176  1.00  0.00     0.032 C 
ENDBRANCH  23  24
ENDBRANCH  19  23
ENDBRANCH   2  17
TORSDOF 6
ENDMDL
MODEL 3
REMARK VINA RESULT:      -8.3      2.225      3.149
REMARK  6 active torsions:
REMARK  status: ('A' for Active; 'I' for Inactive)
REMARK    1  A    between atoms: C_2  and  C_3 
REMARK       I    between atoms: C_3  and  N_4 
REMARK    2  A    between atoms: N_4  and  C_5 
REMARK    3  A    between atoms: C_7  and  N_8 
REMARK       I    between atoms: N_8  and  C_9 
REMARK    4  A    between atoms: C_9  and  C_10 
REMARK    5  A    between atoms: C_12  and  O_13 
REMARK    6  A    between atoms: O_13  and  C_14 
ROOT
HETATM    1  N   UNL     1      27.033  44.635  51.707  1.00  0.00    -0.323 N 
HETATM    2  C   UNL     1      25.665  44.652  51.915  1.00  0.00     0.256 C 
HETATM    3  O   UNL     1      25.058  44.088  52.818  1.00  0.00    -0.267 OA
HETATM    4  H   UNL     1      27.383  45.024  50.841  1.00  0.00     0.169 HD
ENDROOT
BRANCH   1   5
HETATM    5  C   UNL     1      28.012  44.049  52.543  1.00  0.00     0.037 A 
HETATM    6  C   UNL     1      28.237  44.654  53.792  1.00  0.00     0.059 A 
HETATM    7  C   UNL     1      29.186  44.141  54.682  1.00  0.00     0.036 A 
HETATM    8  C   UNL     1      29.914  43.004  54.316  1.00  0.00     0.029 A 
HETATM    9  C   UNL     1      29.692  42.391  53.084  1.00  0.00     0.004 A 
HETATM   10  C   UNL     1      28.745  42.912  52.203  1.00  0.00     0.029 A 
BRANCH   7  11
HETATM   11  N   UNL     1      29.469  44.698  55.947  1.00  0.00    -0.327 N 
HETATM   12  C   UNL     1      29.036  45.909  56.455  1.00  0.00     0.221 C 
HETATM   13  O   UNL     1      28.318  46.727  55.888  1.00  0.00    -0.273 OA
HETATM   14  H   UNL     1      30.056  44.138  56.552  1.00  0.00     0.169 HD
BRANCH  12  15
HETATM   15  C   UNL     1      29.550  46.174  57.858  1.00  0.00     0.098 C 
HETATM   16  C   UNL     1      30.721  45.275  58.215  1.00  0.00     0.014 C 
ENDBRANCH  12  15
ENDBRANCH   7  11
ENDBRANCH   1   5
BRANCH   2  17
HETATM   17  C   UNL     1      24.862  45.412  50.917  1.00  0.00     0.037 A 
HETATM   18  C   UNL     1      24.895  46.802  50.829  1.00  0.00     0.075 A 
HETATM   19  C   UNL     1      24.053  47.405  49.913  1.00  0.00     0.165 A 
HETATM   20  N   UNL     1      23.217  46.735  49.093  1.00  0.00    -0.237 NA
HETATM   21  C   UNL     1      23.206  45.392  49.199  1.00  0.00     0.120 A 
HETATM   22  C   UNL     1      23.997  44.691  50.089  1.00  0.00     0.036 A 
BRANCH  19  23
HETATM   23  O   UNL     1      24.085  48.786  49.852  1.00  0.00    -0.329 OA
BRANCH  23  24
HETATM   24  C   UNL     1      23.062  49.403  49.039  1.00  0.00     0.130 C 
HETATM   25  C   UNL     1      22.211  50.474  49.772  1.00  0.00     0.032 C 
HETATM   26  C   UNL     1      22.180  51.260  48.449  1.00  0.00     0.005 C 
HETATM   27  C   UNL     1      23.490  50.543  48.076  1.00  0.00     0.032 C 
ENDBRANCH  23  24
ENDBRANCH  19  23
ENDBRANCH   2  17
TORSDOF 6
ENDMDL
MODEL 4
REMARK VINA RESULT:      -8.3      4.992      8.151
REMARK  6 active torsions:
REMARK  status: ('A' for Active; 'I' for Inactive)
REMARK    1  A    between atoms: C_2  and  C_3 
REMARK       I    between atoms: C_3  and  N_4 
REMARK    2  A    between atoms: N_4  and  C_5 
REMARK    3  A    between atoms: C_7  and  N_8 
REMARK       I    between atoms: N_8  and  C_9 
REMARK    4  A    between atoms: C_9  and  C_10 
REMARK    5  A    between atoms: C_12  and  O_13 
REMARK    6  A    between atoms: O_13  and  C_14 
ROOT
HETATM    1  N   UNL     1      26.715  43.900  52.080  1.00  0.00    -0.323 N 
HETATM    2  C   UNL     1      26.029  44.362  53.189  1.00  0.00     0.256 C 
HETATM    3  O   UNL     1      24.946  43.958  53.598  1.00  0.00    -0.267 OA
HETATM    4  H   UNL     1      27.527  44.423  51.777  1.00  0.00     0.169 HD
ENDROOT
BRANCH   1   5
HETATM    5  C   UNL     1      26.359  42.809  51.255  1.00  0.00     0.037 A 
HETATM    6  C   UNL     1      27.217  41.696  51.253  1.00  0.00     0.059 A 
HETATM    7  C   UNL     1      26.941  40.572  50.467  1.00  0.00     0.036 A 
HETATM    8  C   UNL     1      25.787  40.564  49.678  1.00  0.00     0.029 A 
HETATM    9  C   UNL     1      24.924  41.659  49.679  1.00  0.00     0.004 A 
HETATM   10  C   UNL     1      25.209  42.775  50.465  1.00  0.00     0.029 A 
BRANCH   7  11
HETATM   11  N   UNL     1      27.759  39.423  50.411  1.00  0.00    -0.327 N 
HETATM   12  C   UNL     1      28.764  39.143  49.504  1.00  0.00     0.221 C 
HETATM   13  O   UNL     1      29.128  39.852  48.572  1.00  0.00    -0.273 OA
HETATM   14  H   UNL     1      27.587  38.728  51.126  1.00  0.00     0.169 HD
BRANCH  12  15
HETATM   15  C   UNL     1      29.425  37.801  49.760  1.00  0.00     0.098 C 
HETATM   16  C   UNL     1      29.998  37.705  51.162  1.00  0.00     0.014 C 
ENDBRANCH  12  15
ENDBRANCH   7  11
ENDBRANCH   1   5
BRANCH   2  17
HETATM   17  C   UNL     1      26.669  45.483  53.933  1.00  0.00     0.037 A 
HETATM   18  C   UNL     1      27.938  45.381  54.499  1.00  0.00     0.075 A 
HETATM   19  C   UNL     1      28.403  46.459  55.229  1.00  0.00     0.165 A 
HETATM   20  N   UNL     1      27.713  47.604  55.416  1.00  0.00    -0.237 NA
HETATM   21  C   UNL     1      26.489  47.676  54.857  1.00  0.00     0.120 A 
HETATM   22  C   UNL     1      25.926  46.652  54.120  1.00  0.00     0.036 A 
BRANCH  19  23
HETATM   23  O   UNL     1      29.656  46.334  55.797  1.00  0.00    -0.329 OA
BRANCH  23  24
HETATM   24  C   UNL     1      29.894  45.111  56.530  1.00  0.00     0.130 C 
HETATM   25  C   UNL     1      31.110  44.285  56.032  1.00  0.00     0.032 C 
HETATM   26  C   UNL     1      31.377  43.915  57.502  1.00  0.00     0.005 C 
HETATM   27  C   UNL     1      30.643  45.212  57.886  1.00  0.00     0.032 C 
ENDBRANCH  23  24
ENDBRANCH  19  23
ENDBRANCH   2  17
TORSDOF 6
ENDMDL
MODEL 5
REMARK VINA RESULT:      -8.2      3.399      6.527
REMARK  6 active torsions:
REMARK  status: ('A' for Active; 'I' for Inactive)
REMARK    1  A    between atoms: C_2  and  C_3 
REMARK       I    between atoms: C_3  and  N_4 
REMARK    2  A    between atoms: N_4  and  C_5 
REMARK    3  A    between atoms: C_7  and  N_8 
REMARK       I    between atoms: N_8  and  C_9 
REMARK    4  A    between atoms: C_9  and  C_10 
REMARK    5  A    between atoms: C_12  and  O_13 
REMARK    6  A    between atoms: O_13  and  C_14 
ROOT
HETATM    1  N   UNL     1      23.045  49.808  48.272  1.00  0.00    -0.323 N 
HETATM    2  C   UNL     1      22.168  50.546  49.048  1.00  0.00     0.256 C 
HETATM    3  O   UNL     1      22.351  50.915  50.203  1.00  0.00    -0.267 OA
HETATM    4  H   UNL     1      22.704  49.449  47.389  1.00  0.00     0.169 HD
ENDROOT
BRANCH   1   5
HETATM    5  C   UNL     1      24.360  49.417  48.614  1.00  0.00     0.037 A 
HETATM    6  C   UNL     1      24.501  48.324  49.486  1.00  0.00     0.059 A 
HETATM    7  C   UNL     1      25.765  47.869  49.876  1.00  0.00     0.036 A 
HETATM    8  C   UNL     1      26.901  48.518  49.381  1.00  0.00     0.029 A 
HETATM    9  C   UNL     1      26.773  49.598  48.509  1.00  0.00     0.004 A 
HETATM   10  C   UNL     1      25.508  50.044  48.127  1.00  0.00     0.029 A 
BRANCH   7  11
HETATM   11  N   UNL     1      25.982  46.783  50.750  1.00  0.00    -0.327 N 
HETATM   12  C   UNL     1      25.766  46.739  52.115  1.00  0.00     0.221 C 
HETATM   13  O   UNL     1      25.341  47.650  52.820  1.00  0.00    -0.273 OA
HETATM   14  H   UNL     1      26.334  45.937  50.320  1.00  0.00     0.169 HD
BRANCH  12  15
HETATM   15  C   UNL     1      26.119  45.393  52.721  1.00  0.00     0.098 C 
HETATM   16  C   UNL     1      25.778  45.325  54.199  1.00  0.00     0.014 C 
ENDBRANCH  12  15
ENDBRANCH   7  11
ENDBRANCH   1   5
BRANCH   2  17
HETATM   17  C   UNL     1      20.866  50.891  48.414  1.00  0.00     0.037 A 
HETATM   18  C   UNL     1      20.001  51.845  48.947  1.00  0.00     0.075 A 
HETATM   19  C   UNL     1      18.786  52.033  48.315  1.00  0.00     0.165 A 
HETATM   20  N   UNL     1      18.392  51.363  47.212  1.00  0.00    -0.237 NA
HETATM   21  C   UNL     1      19.248  50.446  46.717  1.00  0.00     0.120 A 
HETATM   22  C   UNL     1      20.480  50.172  47.279  1.00  0.00     0.036 A 
BRANCH  19  23
HETATM   23  O   UNL     1      17.934  52.970  48.867  1.00  0.00    -0.329 OA
BRANCH  23  24
HETATM   24  C   UNL     1      16.887  52.446  49.715  1.00  0.00     0.130 C 
HETATM   25  C   UNL     1      15.941  53.520  50.314  1.00  0.00     0.032 C 
HETATM   26  C   UNL     1      14.794  52.507  50.150  1.00  0.00     0.005 C 
HETATM   27  C   UNL     1      15.625  51.858  49.028  1.00  0.00     0.032 C 
ENDBRANCH  23  24
ENDBRANCH  19  23
ENDBRANCH   2  17
TORSDOF 6
ENDMDL
MODEL 6
REMARK VINA RESULT:      -8.2      2.404      9.399
REMARK  6 active torsions:
REMARK  status: ('A' for Active; 'I' for Inactive)
REMARK    1  A    between atoms: C_2  and  C_3 
REMARK       I    between atoms: C_3  and  N_4 
REMARK    2  A    between atoms: N_4  and  C_5 
REMARK    3  A    between atoms: C_7  and  N_8 
REMARK       I    between atoms: N_8  and  C_9 
REMARK    4  A    between atoms: C_9  and  C_10 
REMARK    5  A    between atoms: C_12  and  O_13 
REMARK    6  A    between atoms: O_13  and  C_14 
ROOT
HETATM    1  N   UNL     1      26.651  45.604  51.131  1.00  0.00    -0.323 N 
HETATM    2  C   UNL     1      27.120  44.420  50.591  1.00  0.00     0.256 C 
HETATM    3  O   UNL     1      27.066  44.084  49.413  1.00  0.00    -0.267 OA
HETATM    4  H   UNL     1      26.631  45.685  52.140  1.00  0.00     0.169 HD
ENDROOT
BRANCH   1   5
HETATM    5  C   UNL     1      26.108  46.703  50.427  1.00  0.00     0.037 A 
HETATM    6  C   UNL     1      24.708  46.802  50.370  1.00  0.00     0.059 A 
HETATM    7  C   UNL     1      24.086  47.859  49.695  1.00  0.00     0.036 A 
HETATM    8  C   UNL     1      24.880  48.828  49.076  1.00  0.00     0.029 A 
HETATM    9  C   UNL     1      26.270  48.744  49.134  1.00  0.00     0.004 A 
HETATM   10  C   UNL     1      26.881  47.686  49.808  1.00  0.00     0.029 A 
BRANCH   7  11
HETATM   11  N   UNL     1      22.687  48.019  49.592  1.00  0.00    -0.327 N 
HETATM   12  C   UNL     1      21.903  47.904  48.459  1.00  0.00     0.221 C 
HETATM   13  O   UNL     1      22.288  47.638  47.325  1.00  0.00    -0.273 OA
HETATM   14  H   UNL     1      22.207  48.240  50.455  1.00  0.00     0.169 HD
BRANCH  12  15
HETATM   15  C   UNL     1      20.432  48.150  48.739  1.00  0.00     0.098 C 
HETATM   16  C   UNL     1      19.637  46.858  48.789  1.00  0.00     0.014 C 
ENDBRANCH  12  15
ENDBRANCH   7  11
ENDBRANCH   1   5
BRANCH   2  17
HETATM   17  C   UNL     1      27.720  43.454  51.553  1.00  0.00     0.037 A 
HETATM   18  C   UNL     1      28.808  43.777  52.361  1.00  0.00     0.075 A 
HETATM   19  C   UNL     1      29.327  42.779  53.165  1.00  0.00     0.165 A 
HETATM   20  N   UNL     1      28.841  41.522  53.225  1.00  0.00    -0.237 NA
HETATM   21  C   UNL     1      27.788  41.237  52.433  1.00  0.00     0.120 A 
HETATM   22  C   UNL     1      27.202  42.156  51.584  1.00  0.00     0.036 A 
BRANCH  19  23
HETATM   23  O   UNL     1      30.417  43.112  53.946  1.00  0.00    -0.329 OA
BRANCH  23  24
HETATM   24  C   UNL     1      30.126  43.437  55.325  1.00  0.00     0.130 C 
HETATM   25  C   UNL     1      31.311  43.223  56.304  1.00  0.00     0.032 C 
HETATM   26  C   UNL     1      30.823  44.470  57.063  1.00  0.00     0.005 C 
HETATM   27  C   UNL     1      30.177  44.931  55.744  1.00  0.00     0.032 C 
ENDBRANCH  23  24
ENDBRANCH  19  23
ENDBRANCH   2  17
TORSDOF 6
ENDMDL
MODEL 7
REMARK VINA RESULT:      -8.2      1.779      1.892
REMARK  6 active torsions:
REMARK  status: ('A' for Active; 'I' for Inactive)
REMARK    1  A    between atoms: C_2  and  C_3 
REMARK       I    between atoms: C_3  and  N_4 
REMARK    2  A    between atoms: N_4  and  C_5 
REMARK    3  A    between atoms: C_7  and  N_8 
REMARK       I    between atoms: N_8  and  C_9 
REMARK    4  A    between atoms: C_9  and  C_10 
REMARK    5  A    between atoms: C_12  and  O_13 
REMARK    6  A    between atoms: O_13  and  C_14 
ROOT
HETATM    1  N   UNL     1      26.402  45.794  49.802  1.00  0.00    -0.323 N 
HETATM    2  C   UNL     1      25.776  46.903  50.342  1.00  0.00     0.256 C 
HETATM    3  O   UNL     1      25.224  46.969  51.435  1.00  0.00    -0.267 OA
HETATM    4  H   UNL     1      26.688  45.840  48.832  1.00  0.00     0.169 HD
ENDROOT
BRANCH   1   5
HETATM    5  C   UNL     1      26.619  44.548  50.435  1.00  0.00     0.037 A 
HETATM    6  C   UNL     1      27.712  44.453  51.312  1.00  0.00     0.059 A 
HETATM    7  C   UNL     1      28.000  43.259  51.982  1.00  0.00     0.036 A 
HETATM    8  C   UNL     1      27.176  42.149  51.772  1.00  0.00     0.029 A 
HETATM    9  C   UNL     1      26.083  42.234  50.910  1.00  0.00     0.004 A 
HETATM   10  C   UNL     1      25.806  43.429  50.246  1.00  0.00     0.029 A 
BRANCH   7  11
HETATM   11  N   UNL     1      29.082  43.090  52.871  1.00  0.00    -0.327 N 
HETATM   12  C   UNL     1      29.278  43.705  54.094  1.00  0.00     0.221 C 
HETATM   13  O   UNL     1      28.535  44.520  54.631  1.00  0.00    -0.273 OA
HETATM   14  H   UNL     1      29.795  42.436  52.575  1.00  0.00     0.169 HD
BRANCH  12  15
HETATM   15  C   UNL     1      30.568  43.274  54.767  1.00  0.00     0.098 C 
HETATM   16  C   UNL     1      30.789  43.988  56.088  1.00  0.00     0.014 C 
ENDBRANCH  12  15
ENDBRANCH   7  11
ENDBRANCH   1   5
BRANCH   2  17
HETATM   17  C   UNL     1      25.753  48.122  49.487  1.00  0.00     0.037 A 
HETATM   18  C   UNL     1      24.583  48.608  48.904  1.00  0.00     0.075 A 
HETATM   19  C   UNL     1      24.692  49.705  48.070  1.00  0.00     0.165 A 
HETATM   20  N   UNL     1      25.850  50.339  47.796  1.00  0.00    -0.237 NA
HETATM   21  C   UNL     1      26.965  49.849  48.373  1.00  0.00     0.120 A 
HETATM   22  C   UNL     1      26.970  48.751  49.212  1.00  0.00     0.036 A 
BRANCH  19  23
HETATM   23  O   UNL     1      23.525  50.162  47.488  1.00  0.00    -0.329 OA
BRANCH  23  24
HETATM   24  C   UNL     1      22.332  50.050  48.297  1.00  0.00     0.130 C 
HETATM   25  C   UNL     1      21.465  51.336  48.353  1.00  0.00     0.032 C 
HETATM   26  C   UNL     1      20.227  50.422  48.370  1.00  0.00     0.005 C 
HETATM   27  C   UNL     1      21.092  49.359  47.668  1.00  0.00     0.032 C 
ENDBRANCH  23  24
ENDBRANCH  19  23
ENDBRANCH   2  17
TORSDOF 6
ENDMDL
MODEL 8
REMARK VINA RESULT:      -8.1      2.666      9.123
REMARK  6 active torsions:
REMARK  status: ('A' for Active; 'I' for Inactive)
REMARK    1  A    between atoms: C_2  and  C_3 
REMARK       I    between atoms: C_3  and  N_4 
REMARK    2  A    between atoms: N_4  and  C_5 
REMARK    3  A    between atoms: C_7  and  N_8 
REMARK       I    between atoms: N_8  and  C_9 
REMARK    4  A    between atoms: C_9  and  C_10 
REMARK    5  A    between atoms: C_12  and  O_13 
REMARK    6  A    between atoms: O_13  and  C_14 
ROOT
HETATM    1  N   UNL     1      26.408  46.908  50.601  1.00  0.00    -0.323 N 
HETATM    2  C   UNL     1      26.022  46.767  51.922  1.00  0.00     0.256 C 
HETATM    3  O   UNL     1      25.434  47.600  52.602  1.00  0.00    -0.267 OA
HETATM    4  H   UNL     1      27.014  46.197  50.209  1.00  0.00     0.169 HD
ENDROOT
BRANCH   1   5
HETATM    5  C   UNL     1      26.119  47.993  49.742  1.00  0.00     0.037 A 
HETATM    6  C   UNL     1      24.766  48.245  49.457  1.00  0.00     0.059 A 
HETATM    7  C   UNL     1      24.389  49.299  48.617  1.00  0.00     0.036 A 
HETATM    8  C   UNL     1      25.382  50.112  48.063  1.00  0.00     0.029 A 
HETATM    9  C   UNL     1      26.726  49.876  48.346  1.00  0.00     0.004 A 
HETATM   10  C   UNL     1      27.092  48.822  49.183  1.00  0.00     0.029 A 
BRANCH   7  11
HETATM   11  N   UNL     1      23.053  49.606  48.283  1.00  0.00    -0.327 N 
HETATM   12  C   UNL     1      22.152  50.367  49.006  1.00  0.00     0.221 C 
HETATM   13  O   UNL     1      22.357  50.918  50.082  1.00  0.00    -0.273 OA
HETATM   14  H   UNL     1      22.721  49.224  47.406  1.00  0.00     0.169 HD
BRANCH  12  15
HETATM   15  C   UNL     1      20.799  50.474  48.327  1.00  0.00     0.098 C 
HETATM   16  C   UNL     1      20.062  51.741  48.722  1.00  0.00     0.014 C 
ENDBRANCH  12  15
ENDBRANCH   7  11
ENDBRANCH   1   5
BRANCH   2  17
HETATM   17  C   UNL     1      26.392  45.482  52.578  1.00  0.00     0.037 A 
HETATM   18  C   UNL     1      27.158  44.507  51.941  1.00  0.00     0.075 A 
HETATM   19  C   UNL     1      27.379  43.323  52.619  1.00  0.00     0.165 A 
HETATM   20  N   UNL     1      26.913  43.058  53.857  1.00  0.00    -0.237 NA
HETATM   21  C   UNL     1      26.176  44.018  54.450  1.00  0.00     0.120 A 
HETATM   22  C   UNL     1      25.885  45.231  53.856  1.00  0.00     0.036 A 
BRANCH  19  23
HETATM   23  O   UNL     1      28.125  42.361  51.965  1.00  0.00    -0.329 OA
BRANCH  23  24
HETATM   24  C   UNL     1      27.435  41.128  51.662  1.00  0.00     0.130 C 
HETATM   25  C   UNL     1      26.191  41.291  50.748  1.00  0.00     0.032 C 
HETATM   26  C   UNL     1      26.570  39.945  50.104  1.00  0.00     0.005 C 
HETATM   27  C   UNL     1      28.019  40.227  50.540  1.00  0.00     0.032 C 
ENDBRANCH  23  24
ENDBRANCH  19  23
ENDBRANCH   2  17
TORSDOF 6
ENDMDL
MODEL 9
REMARK VINA RESULT:      -8.0      2.634      9.661
REMARK  6 active torsions:
REMARK  status: ('A' for Active; 'I' for Inactive)
REMARK    1  A    between atoms: C_2  and  C_3 
REMARK       I    between atoms: C_3  and  N_4 
REMARK    2  A    between atoms: N_4  and  C_5 
REMARK    3  A    between atoms: C_7  and  N_8 
REMARK       I    between atoms: N_8  and  C_9 
REMARK    4  A    between atoms: C_9  and  C_10 
REMARK    5  A    between atoms: C_12  and  O_13 
REMARK    6  A    between atoms: O_13  and  C_14 
ROOT
HETATM    1  N   UNL     1      24.225  47.356  49.608  1.00  0.00    -0.323 N 
HETATM    2  C   UNL     1      25.303  47.060  50.423  1.00  0.00     0.256 C 
HETATM    3  O   UNL     1      26.138  47.853  50.844  1.00  0.00    -0.267 OA
HETATM    4  H   UNL     1      23.701  46.582  49.219  1.00  0.00     0.169 HD
ENDROOT
BRANCH   1   5
HETATM    5  C   UNL     1      23.811  48.638  49.178  1.00  0.00     0.037 A 
HETATM    6  C   UNL     1      22.570  49.104  49.644  1.00  0.00     0.059 A 
HETATM    7  C   UNL     1      22.083  50.361  49.271  1.00  0.00     0.036 A 
HETATM    8  C   UNL     1      22.855  51.161  48.423  1.00  0.00     0.029 A 
HETATM    9  C   UNL     1      24.092  50.713  47.962  1.00  0.00     0.004 A 
HETATM   10  C   UNL     1      24.567  49.457  48.339  1.00  0.00     0.029 A 
BRANCH   7  11
HETATM   11  N   UNL     1      20.846  50.890  49.694  1.00  0.00    -0.327 N 
HETATM   12  C   UNL     1      19.580  50.526  49.273  1.00  0.00     0.221 C 
HETATM   13  O   UNL     1      19.304  49.666  48.442  1.00  0.00    -0.273 OA
HETATM   14  H   UNL     1      20.897  51.620  50.394  1.00  0.00     0.169 HD
BRANCH  12  15
HETATM   15  C   UNL     1      18.484  51.324  49.955  1.00  0.00     0.098 C 
HETATM   16  C   UNL     1      18.093  52.555  49.155  1.00  0.00     0.014 C 
ENDBRANCH  12  15
ENDBRANCH   7  11
ENDBRANCH   1   5
BRANCH   2  17
HETATM   17  C   UNL     1      25.469  45.627  50.792  1.00  0.00     0.037 A 
HETATM   18  C   UNL     1      26.718  45.051  51.021  1.00  0.00     0.075 A 
HETATM   19  C   UNL     1      26.758  43.694  51.286  1.00  0.00     0.165 A 
HETATM   20  N   UNL     1      25.669  42.900  51.350  1.00  0.00    -0.237 NA
HETATM   21  C   UNL     1      24.475  43.483  51.126  1.00  0.00     0.120 A 
HETATM   22  C   UNL     1      24.325  44.827  50.840  1.00  0.00     0.036 A 
BRANCH  19  23
HETATM   23  O   UNL     1      28.005  43.137  51.492  1.00  0.00    -0.329 OA
BRANCH  23  24
HETATM   24  C   UNL     1      28.743  43.649  52.625  1.00  0.00     0.130 C 
HETATM   25  C   UNL     1      28.201  43.199  54.008  1.00  0.00     0.032 C 
HETATM   26  C   UNL     1      29.662  43.141  54.489  1.00  0.00     0.005 C 
HETATM   27  C   UNL     1      30.062  42.928  53.017  1.00  0.00     0.032 C 
ENDBRANCH  23  24
ENDBRANCH  19  23
ENDBRANCH   2  17
TORSDOF 6
ENDMDL
MODEL 10
REMARK VINA RESULT:      -7.8      2.250      2.851
REMARK  6 active torsions:
REMARK  status: ('A' for Active; 'I' for Inactive)
REMARK    1  A    between atoms: C_2  and  C_3 
REMARK       I    between atoms: C_3  and  N_4 
REMARK    2  A    between atoms: N_4  and  C_5 
REMARK    3  A    between atoms: C_7  and  N_8 
REMARK       I    between atoms: N_8  and  C_9 
REMARK    4  A    between atoms: C_9  and  C_10 
REMARK    5  A    between atoms: C_12  and  O_13 
REMARK    6  A    between atoms: O_13  and  C_14 
ROOT
HETATM    1  N   UNL     1      25.286  46.384  52.333  1.00  0.00    -0.323 N 
HETATM    2  C   UNL     1      25.331  47.052  51.122  1.00  0.00     0.256 C 
HETATM    3  O   UNL     1      26.096  47.961  50.818  1.00  0.00    -0.267 OA
HETATM    4  H   UNL     1      24.509  45.757  52.496  1.00  0.00     0.169 HD
ENDROOT
BRANCH   1   5
HETATM    5  C   UNL     1      26.172  46.542  53.423  1.00  0.00     0.037 A 
HETATM    6  C   UNL     1      27.100  45.512  53.654  1.00  0.00     0.059 A 
HETATM    7  C   UNL     1      28.015  45.586  54.710  1.00  0.00     0.036 A 
HETATM    8  C   UNL     1      28.000  46.710  55.541  1.00  0.00     0.029 A 
HETATM    9  C   UNL     1      27.090  47.742  55.316  1.00  0.00     0.004 A 
HETATM   10  C   UNL     1      26.182  47.658  54.261  1.00  0.00     0.029 A 
BRANCH   7  11
HETATM   11  N   UNL     1      28.968  44.588  55.003  1.00  0.00    -0.327 N 
HETATM   12  C   UNL     1      30.082  44.694  55.817  1.00  0.00     0.221 C 
HETATM   13  O   UNL     1      30.444  45.688  56.437  1.00  0.00    -0.273 OA
HETATM   14  H   UNL     1      28.811  43.689  54.566  1.00  0.00     0.169 HD
BRANCH  12  15
HETATM   15  C   UNL     1      30.879  43.404  55.888  1.00  0.00     0.098 C 
HETATM   16  C   UNL     1      31.785  43.360  57.106  1.00  0.00     0.014 C 
ENDBRANCH  12  15
ENDBRANCH   7  11
ENDBRANCH   1   5
BRANCH   2  17
HETATM   17  C   UNL     1      24.322  46.637  50.108  1.00  0.00     0.037 A 
HETATM   18  C   UNL     1      23.685  47.547  49.267  1.00  0.00     0.075 A 
HETATM   19  C   UNL     1      22.713  47.057  48.414  1.00  0.00     0.165 A 
HETATM   20  N   UNL     1      22.354  45.759  48.336  1.00  0.00    -0.237 NA
HETATM   21  C   UNL     1      22.987  44.901  49.160  1.00  0.00     0.120 A 
HETATM   22  C   UNL     1      23.963  45.287  50.059  1.00  0.00     0.036 A 
BRANCH  19  23
HETATM   23  O   UNL     1      22.078  47.976  47.600  1.00  0.00    -0.329 OA
BRANCH  23  24
HETATM   24  C   UNL     1      21.261  48.957  48.277  1.00  0.00     0.130 C 
HETATM   25  C   UNL     1      20.093  49.524  47.427  1.00  0.00     0.032 C 
HETATM   26  C   UNL     1      19.257  49.560  48.719  1.00  0.00     0.005 C 
HETATM   27  C   UNL     1      20.170  48.442  49.255  1.00  0.00     0.032 C 
ENDBRANCH  23  24
ENDBRANCH  19  23
ENDBRANCH   2  17
TORSDOF 6
ENDMDL
