MODEL 1
REMARK VINA RESULT:      -8.3      0.000      0.000
REMARK  5 active torsions:
REMARK  status: ('A' for Active; 'I' for Inactive)
REMARK    1  A    between atoms: C_4  and  N_5 
REMARK       I    between atoms: N_5  and  C_6 
REMARK       I    between atoms: C_6  and  N_7 
REMARK    2  A    between atoms: N_7  and  C_8 
REMARK    3  A    between atoms: C_11  and  O_12 
REMARK    4  A    between atoms: O_12  and  C_13 
REMARK    5  A    between atoms: C_13  and  C_14 
ROOT
HETATM    1  N   UNL     1      24.065  46.352  50.240  1.00  0.00    -0.293 N 
HETATM    2  C   UNL     1      24.626  45.440  51.091  1.00  0.00     0.326 C 
HETATM    3  N   UNL     1      25.916  45.676  51.473  1.00  0.00    -0.309 N 
HETATM    4  O   UNL     1      23.922  44.497  51.448  1.00  0.00    -0.247 OA
HETATM    5  H   UNL     1      23.108  46.124  50.018  1.00  0.00     0.172 HD
HETATM    6  H   UNL     1      26.316  46.518  51.063  1.00  0.00     0.170 HD
ENDROOT
BRANCH   3   7
HETATM    7  C   UNL     1      26.718  44.944  52.364  1.00  0.00     0.036 A 
HETATM    8  C   UNL     1      26.624  45.037  53.753  1.00  0.00     0.032 A 
HETATM    9  C   UNL     1      27.480  44.297  54.579  1.00  0.00     0.039 A 
HETATM   10  C   UNL     1      28.447  43.461  54.023  1.00  0.00     0.068 A 
HETATM   11  C   UNL     1      28.526  43.346  52.636  1.00  0.00     0.039 A 
HETATM   12  C   UNL     1      27.669  44.082  51.811  1.00  0.00     0.032 A 
BRANCH  10  13
HETATM   13  O   UNL     1      29.354  42.711  54.719  1.00  0.00    -0.351 OA
BRANCH  13  14
HETATM   14  C   UNL     1      30.632  43.308  54.953  1.00  0.00     0.179 C 
BRANCH  14  15
HETATM   15  C   UNL     1      30.674  43.854  56.387  1.00  0.00     0.002 C 
HETATM   16  C   UNL     1      31.935  43.389  57.122  1.00  0.00     0.011 C 
HETATM   17  C   UNL     1      30.599  45.379  56.378  1.00  0.00     0.011 C 
ENDBRANCH  14  15
ENDBRANCH  13  14
ENDBRANCH  10  13
ENDBRANCH   3   7
BRANCH   1  18
HETATM   18  C   UNL     1      24.615  47.504  49.676  1.00  0.00     0.131 A 
HETATM   19  C   UNL     1      23.735  48.440  49.140  1.00  0.00     0.057 A 
HETATM   20  C   UNL     1      24.242  49.611  48.569  1.00  0.00    -0.057 A 
HETATM   21  C   UNL     1      23.319  50.623  47.959  1.00  0.00     0.048 C 
HETATM   22  C   UNL     1      25.623  49.787  48.530  1.00  0.00     0.026 A 
HETATM   23  C   UNL     1      26.427  48.806  49.086  1.00  0.00     0.119 A 
HETATM   24  N   UNL     1      25.956  47.677  49.661  1.00  0.00    -0.243 NA
ENDBRANCH   1  18
TORSDOF 5
ENDMDL
MODEL 2
REMARK VINA RESULT:      -8.2      2.213      3.520
REMARK  5 active torsions:
REMARK  status: ('A' for Active; 'I' for Inactive)
REMARK    1  A    between atoms: C_4  and  N_5 
REMARK       I    between atoms: N_5  and  C_6 
REMARK       I    between atoms: C_6  and  N_7 
REMARK    2  A    between atoms: N_7  and  C_8 
REMARK    3  A    between atoms: C_11  and  O_12 
REMARK    4  A    between atoms: O_12  and  C_13 
REMARK    5  A    between atoms: C_13  and  C_14 
ROOT
HETATM    1  N   UNL     1      24.886  49.501  48.451  1.00  0.00    -0.293 N 
HETATM    2  C   UNL     1      25.723  48.726  49.207  1.00  0.00     0.326 C 
HETATM    3  N   UNL     1      25.149  47.684  49.877  1.00  0.00    -0.309 N 
HETATM    4  O   UNL     1      26.916  49.024  49.208  1.00  0.00    -0.247 OA
HETATM    5  H   UNL     1      25.383  50.236  47.971  1.00  0.00     0.172 HD
HETATM    6  H   UNL     1      24.143  47.612  49.736  1.00  0.00     0.170 HD
ENDROOT
BRANCH   3   7
HETATM    7  C   UNL     1      25.763  46.708  50.679  1.00  0.00     0.036 A 
HETATM    8  C   UNL     1      26.491  45.630  50.174  1.00  0.00     0.032 A 
HETATM    9  C   UNL     1      27.050  44.677  51.037  1.00  0.00     0.039 A 
HETATM   10  C   UNL     1      26.880  44.789  52.415  1.00  0.00     0.068 A 
HETATM   11  C   UNL     1      26.175  45.879  52.924  1.00  0.00     0.039 A 
HETATM   12  C   UNL     1      25.620  46.832  52.064  1.00  0.00     0.032 A 
BRANCH  10  13
HETATM   13  O   UNL     1      27.352  43.915  53.355  1.00  0.00    -0.351 OA
BRANCH  13  14
HETATM   14  C   UNL     1      28.442  44.369  54.160  1.00  0.00     0.179 C 
BRANCH  14  15
HETATM   15  C   UNL     1      29.453  43.225  54.325  1.00  0.00     0.002 C 
HETATM   16  C   UNL     1      30.103  42.862  52.987  1.00  0.00     0.011 C 
HETATM   17  C   UNL     1      30.522  43.604  55.348  1.00  0.00     0.011 C 
ENDBRANCH  14  15
ENDBRANCH  13  14
ENDBRANCH  10  13
ENDBRANCH   3   7
BRANCH   1  18
HETATM   18  C   UNL     1      23.507  49.403  48.262  1.00  0.00     0.131 A 
HETATM   19  C   UNL     1      22.747  50.550  48.478  1.00  0.00     0.057 A 
HETATM   20  C   UNL     1      21.361  50.499  48.296  1.00  0.00    -0.057 A 
HETATM   21  C   UNL     1      20.515  51.710  48.550  1.00  0.00     0.048 C 
HETATM   22  C   UNL     1      20.784  49.286  47.930  1.00  0.00     0.026 A 
HETATM   23  C   UNL     1      21.613  48.194  47.735  1.00  0.00     0.119 A 
HETATM   24  N   UNL     1      22.956  48.228  47.886  1.00  0.00    -0.243 NA
ENDBRANCH   1  18
TORSDOF 5
ENDMDL
MODEL 3
REMARK VINA RESULT:      -8.1      2.185      8.763
REMARK  5 active torsions:
REMARK  status: ('A' for Active; 'I' for Inactive)
REMARK    1  A    between atoms: C_4  and  N_5 
REMARK       I    between atoms: N_5  and  C_6 
REMARK       I    between atoms: C_6  and  N_7 
REMARK    2  A    between atoms: N_7  and  C_8 
REMARK    3  A    between atoms: C_11  and  O_12 
REMARK    4  A    between atoms: O_12  and  C_13 
REMARK    5  A    between atoms: C_13  and  C_14 
ROOT
HETATM    1  N   UNL     1      26.803  45.966  54.031  1.00  0.00    -0.293 N 
HETATM    2  C   UNL     1      26.175  46.851  53.197  1.00  0.00     0.326 C 
HETATM    3  N   UNL     1      26.318  46.631  51.857  1.00  0.00    -0.309 N 
HETATM    4  O   UNL     1      25.529  47.756  53.722  1.00  0.00    -0.247 OA
HETATM    5  H   UNL     1      26.636  46.180  55.003  1.00  0.00     0.172 HD
HETATM    6  H   UNL     1      26.894  45.821  51.635  1.00  0.00     0.170 HD
ENDROOT
BRANCH   3   7
HETATM    7  C   UNL     1      25.754  47.339  50.783  1.00  0.00     0.036 A 
HETATM    8  C   UNL     1      26.451  48.269  50.012  1.00  0.00     0.032 A 
HETATM    9  C   UNL     1      25.811  48.960  48.973  1.00  0.00     0.039 A 
HETATM   10  C   UNL     1      24.464  48.733  48.701  1.00  0.00     0.068 A 
HETATM   11  C   UNL     1      23.772  47.784  49.453  1.00  0.00     0.039 A 
HETATM   12  C   UNL     1      24.411  47.092  50.487  1.00  0.00     0.032 A 
BRANCH  10  13
HETATM   13  O   UNL     1      23.724  49.359  47.737  1.00  0.00    -0.351 OA
BRANCH  13  14
HETATM   14  C   UNL     1      22.307  49.373  47.926  1.00  0.00     0.179 C 
BRANCH  14  15
HETATM   15  C   UNL     1      21.879  50.769  48.399  1.00  0.00     0.002 C 
HETATM   16  C   UNL     1      20.429  51.068  48.008  1.00  0.00     0.011 C 
HETATM   17  C   UNL     1      22.056  50.896  49.911  1.00  0.00     0.011 C 
ENDBRANCH  14  15
ENDBRANCH  13  14
ENDBRANCH  10  13
ENDBRANCH   3   7
BRANCH   1  18
HETATM   18  C   UNL     1      27.594  44.858  53.726  1.00  0.00     0.131 A 
HETATM   19  C   UNL     1      28.698  44.614  54.539  1.00  0.00     0.057 A 
HETATM   20  C   UNL     1      29.516  43.512  54.273  1.00  0.00    -0.057 A 
HETATM   21  C   UNL     1      30.727  43.240  55.114  1.00  0.00     0.048 C 
HETATM   22  C   UNL     1      29.212  42.709  53.176  1.00  0.00     0.026 A 
HETATM   23  C   UNL     1      28.096  43.023  52.419  1.00  0.00     0.119 A 
HETATM   24  N   UNL     1      27.280  44.071  52.673  1.00  0.00    -0.243 NA
ENDBRANCH   1  18
TORSDOF 5
ENDMDL
MODEL 4
REMARK VINA RESULT:      -8.0      2.129      8.721
REMARK  5 active torsions:
REMARK  status: ('A' for Active; 'I' for Inactive)
REMARK    1  A    between atoms: C_4  and  N_5 
REMARK       I    between atoms: N_5  and  C_6 
REMARK       I    between atoms: C_6  and  N_7 
REMARK    2  A    between atoms: N_7  and  C_8 
REMARK    3  A    between atoms: C_11  and  O_12 
REMARK    4  A    between atoms: O_12  and  C_13 
REMARK    5  A    between atoms: C_13  and  C_14 
ROOT
HETATM    1  N   UNL     1      27.581  44.061  51.414  1.00  0.00    -0.293 N 
HETATM    2  C   UNL     1      26.948  44.849  50.491  1.00  0.00     0.326 C 
HETATM    3  N   UNL     1      26.550  46.084  50.916  1.00  0.00    -0.309 N 
HETATM    4  O   UNL     1      26.804  44.385  49.361  1.00  0.00    -0.247 OA
HETATM    5  H   UNL     1      27.863  43.174  51.024  1.00  0.00     0.172 HD
HETATM    6  H   UNL     1      26.770  46.271  51.892  1.00  0.00     0.170 HD
ENDROOT
BRANCH   3   7
HETATM    7  C   UNL     1      25.929  47.108  50.183  1.00  0.00     0.036 A 
HETATM    8  C   UNL     1      26.619  48.141  49.548  1.00  0.00     0.032 A 
HETATM    9  C   UNL     1      25.928  49.147  48.859  1.00  0.00     0.039 A 
HETATM   10  C   UNL     1      24.536  49.135  48.805  1.00  0.00     0.068 A 
HETATM   11  C   UNL     1      23.844  48.090  49.416  1.00  0.00     0.039 A 
HETATM   12  C   UNL     1      24.533  47.084  50.101  1.00  0.00     0.032 A 
BRANCH  10  13
HETATM   13  O   UNL     1      23.749  50.069  48.190  1.00  0.00    -0.351 OA
BRANCH  13  14
HETATM   14  C   UNL     1      23.155  51.059  49.033  1.00  0.00     0.179 C 
BRANCH  14  15
HETATM   15  C   UNL     1      21.652  51.136  48.731  1.00  0.00     0.002 C 
HETATM   16  C   UNL     1      21.252  50.133  47.645  1.00  0.00     0.011 C 
HETATM   17  C   UNL     1      20.841  50.891  50.003  1.00  0.00     0.011 C 
ENDBRANCH  14  15
ENDBRANCH  13  14
ENDBRANCH  10  13
ENDBRANCH   3   7
BRANCH   1  18
HETATM   18  C   UNL     1      27.880  44.317  52.753  1.00  0.00     0.131 A 
HETATM   19  C   UNL     1      29.043  43.753  53.270  1.00  0.00     0.057 A 
HETATM   20  C   UNL     1      29.383  43.987  54.606  1.00  0.00    -0.057 A 
HETATM   21  C   UNL     1      30.614  43.370  55.198  1.00  0.00     0.048 C 
HETATM   22  C   UNL     1      28.525  44.759  55.385  1.00  0.00     0.026 A 
HETATM   23  C   UNL     1      27.388  45.282  54.790  1.00  0.00     0.119 A 
HETATM   24  N   UNL     1      27.052  45.085  53.496  1.00  0.00    -0.243 NA
ENDBRANCH   1  18
TORSDOF 5
ENDMDL
MODEL 5
REMARK VINA RESULT:      -7.8      1.565      2.393
REMARK  5 active torsions:
REMARK  status: ('A' for Active; 'I' for Inactive)
REMARK    1  A    between atoms: C_4  and  N_5 
REMARK       I    between atoms: N_5  and  C_6 
REMARK       I    between atoms: C_6  and  N_7 
REMARK    2  A    between atoms: N_7  and  C_8 
REMARK    3  A    between atoms: C_11  and  O_12 
REMARK    4  A    between atoms: O_12  and  C_13 
REMARK    5  A    between atoms: C_13  and  C_14 
ROOT
HETATM    1  N   UNL     1      23.183  47.027  48.935  1.00  0.00    -0.293 N 
HETATM    2  C   UNL     1      23.886  46.260  49.823  1.00  0.00     0.326 C 
HETATM    3  N   UNL     1      24.709  46.925  50.685  1.00  0.00    -0.309 N 
HETATM    4  O   UNL     1      23.708  45.044  49.778  1.00  0.00    -0.247 OA
HETATM    5  H   UNL     1      22.583  46.470  48.345  1.00  0.00     0.172 HD
HETATM    6  H   UNL     1      24.706  47.935  50.555  1.00  0.00     0.170 HD
ENDROOT
BRANCH   3   7
HETATM    7  C   UNL     1      25.503  46.407  51.722  1.00  0.00     0.036 A 
HETATM    8  C   UNL     1      25.642  47.009  52.972  1.00  0.00     0.032 A 
HETATM    9  C   UNL     1      26.477  46.448  53.948  1.00  0.00     0.039 A 
HETATM   10  C   UNL     1      27.189  45.281  53.679  1.00  0.00     0.068 A 
HETATM   11  C   UNL     1      27.032  44.662  52.440  1.00  0.00     0.039 A 
HETATM   12  C   UNL     1      26.196  45.220  51.467  1.00  0.00     0.032 A 
BRANCH  10  13
HETATM   13  O   UNL     1      28.052  44.653  54.534  1.00  0.00    -0.351 OA
BRANCH  13  14
HETATM   14  C   UNL     1      28.150  43.231  54.414  1.00  0.00     0.179 C 
BRANCH  14  15
HETATM   15  C   UNL     1      29.630  42.827  54.452  1.00  0.00     0.002 C 
HETATM   16  C   UNL     1      30.243  42.833  53.049  1.00  0.00     0.011 C 
HETATM   17  C   UNL     1      30.412  43.759  55.376  1.00  0.00     0.011 C 
ENDBRANCH  14  15
ENDBRANCH  13  14
ENDBRANCH  10  13
ENDBRANCH   3   7
BRANCH   1  18
HETATM   18  C   UNL     1      23.183  48.412  48.755  1.00  0.00     0.131 A 
HETATM   19  C   UNL     1      21.974  49.080  48.928  1.00  0.00     0.057 A 
HETATM   20  C   UNL     1      21.928  50.468  48.762  1.00  0.00    -0.057 A 
HETATM   21  C   UNL     1      20.635  51.211  48.914  1.00  0.00     0.048 C 
HETATM   22  C   UNL     1      23.097  51.133  48.400  1.00  0.00     0.026 A 
HETATM   23  C   UNL     1      24.256  50.390  48.249  1.00  0.00     0.119 A 
HETATM   24  N   UNL     1      24.326  49.052  48.424  1.00  0.00    -0.243 NA
ENDBRANCH   1  18
TORSDOF 5
ENDMDL
MODEL 6
REMARK VINA RESULT:      -7.7      2.132      8.669
REMARK  5 active torsions:
REMARK  status: ('A' for Active; 'I' for Inactive)
REMARK    1  A    between atoms: C_4  and  N_5 
REMARK       I    between atoms: N_5  and  C_6 
REMARK       I    between atoms: C_6  and  N_7 
REMARK    2  A    between atoms: N_7  and  C_8 
REMARK    3  A    between atoms: C_11  and  O_12 
REMARK    4  A    between atoms: O_12  and  C_13 
REMARK    5  A    between atoms: C_13  and  C_14 
ROOT
HETATM    1  N   UNL     1      25.906  43.302  52.946  1.00  0.00    -0.293 N 
HETATM    2  C   UNL     1      25.081  43.798  51.973  1.00  0.00     0.326 C 
HETATM    3  N   UNL     1      25.231  45.119  51.663  1.00  0.00    -0.309 N 
HETATM    4  O   UNL     1      24.289  43.012  51.455  1.00  0.00    -0.247 OA
HETATM    5  H   UNL     1      25.752  42.318  53.107  1.00  0.00     0.172 HD
HETATM    6  H   UNL     1      25.950  45.589  52.211  1.00  0.00     0.170 HD
ENDROOT
BRANCH   3   7
HETATM    7  C   UNL     1      24.564  45.874  50.685  1.00  0.00     0.036 A 
HETATM    8  C   UNL     1      23.715  45.327  49.722  1.00  0.00     0.032 A 
HETATM    9  C   UNL     1      23.107  46.142  48.758  1.00  0.00     0.039 A 
HETATM   10  C   UNL     1      23.348  47.514  48.741  1.00  0.00     0.068 A 
HETATM   11  C   UNL     1      24.175  48.068  49.718  1.00  0.00     0.039 A 
HETATM   12  C   UNL     1      24.779  47.255  50.683  1.00  0.00     0.032 A 
BRANCH  10  13
HETATM   13  O   UNL     1      22.838  48.408  47.841  1.00  0.00    -0.351 OA
BRANCH  13  14
HETATM   14  C   UNL     1      21.594  49.023  48.185  1.00  0.00     0.179 C 
BRANCH  14  15
HETATM   15  C   UNL     1      21.669  50.520  47.853  1.00  0.00     0.002 C 
HETATM   16  C   UNL     1      20.623  51.316  48.639  1.00  0.00     0.011 C 
HETATM   17  C   UNL     1      23.069  51.059  48.140  1.00  0.00     0.011 C 
ENDBRANCH  14  15
ENDBRANCH  13  14
ENDBRANCH  10  13
ENDBRANCH   3   7
BRANCH   1  18
HETATM   18  C   UNL     1      26.889  43.948  53.698  1.00  0.00     0.131 A 
HETATM   19  C   UNL     1      28.109  43.296  53.854  1.00  0.00     0.057 A 
HETATM   20  C   UNL     1      29.124  43.908  54.597  1.00  0.00    -0.057 A 
HETATM   21  C   UNL     1      30.438  43.217  54.805  1.00  0.00     0.048 C 
HETATM   22  C   UNL     1      28.865  45.145  55.182  1.00  0.00     0.026 A 
HETATM   23  C   UNL     1      27.623  45.723  54.977  1.00  0.00     0.119 A 
HETATM   24  N   UNL     1      26.636  45.157  54.246  1.00  0.00    -0.243 NA
ENDBRANCH   1  18
TORSDOF 5
ENDMDL
MODEL 7
REMARK VINA RESULT:      -7.6      2.029      8.596
REMARK  5 active torsions:
REMARK  status: ('A' for Active; 'I' for Inactive)
REMARK    1  A    between atoms: C_4  and  N_5 
REMARK       I    between atoms: N_5  and  C_6 
REMARK       I    between atoms: C_6  and  N_7 
REMARK    2  A    between atoms: N_7  and  C_8 
REMARK    3  A    between atoms: C_11  and  O_12 
REMARK    4  A    between atoms: O_12  and  C_13 
REMARK    5  A    between atoms: C_13  and  C_14 
ROOT
HETATM    1  N   UNL     1      28.536  43.069  53.519  1.00  0.00    -0.293 N 
HETATM    2  C   UNL     1      27.564  43.408  52.617  1.00  0.00     0.326 C 
HETATM    3  N   UNL     1      27.116  44.697  52.661  1.00  0.00    -0.309 N 
HETATM    4  O   UNL     1      27.190  42.532  51.840  1.00  0.00    -0.247 OA
HETATM    5  H   UNL     1      28.831  42.110  53.415  1.00  0.00     0.172 HD
HETATM    6  H   UNL     1      27.563  45.261  53.381  1.00  0.00     0.170 HD
ENDROOT
BRANCH   3   7
HETATM    7  C   UNL     1      26.172  45.329  51.834  1.00  0.00     0.036 A 
HETATM    8  C   UNL     1      25.165  44.654  51.143  1.00  0.00     0.032 A 
HETATM    9  C   UNL     1      24.277  45.350  50.313  1.00  0.00     0.039 A 
HETATM   10  C   UNL     1      24.392  46.731  50.158  1.00  0.00     0.068 A 
HETATM   11  C   UNL     1      25.381  47.411  50.867  1.00  0.00     0.039 A 
HETATM   12  C   UNL     1      26.265  46.717  51.699  1.00  0.00     0.032 A 
BRANCH  10  13
HETATM   13  O   UNL     1      23.607  47.516  49.360  1.00  0.00    -0.351 OA
BRANCH  13  14
HETATM   14  C   UNL     1      24.132  48.799  49.011  1.00  0.00     0.179 C 
BRANCH  14  15
HETATM   15  C   UNL     1      23.169  49.484  48.030  1.00  0.00     0.002 C 
HETATM   16  C   UNL     1      21.851  48.713  47.918  1.00  0.00     0.011 C 
HETATM   17  C   UNL     1      22.905  50.924  48.464  1.00  0.00     0.011 C 
ENDBRANCH  14  15
ENDBRANCH  13  14
ENDBRANCH  10  13
ENDBRANCH   3   7
BRANCH   1  18
HETATM   18  C   UNL     1      29.146  43.843  54.508  1.00  0.00     0.131 A 
HETATM   19  C   UNL     1      30.184  43.260  55.229  1.00  0.00     0.057 A 
HETATM   20  C   UNL     1      30.827  44.000  56.227  1.00  0.00    -0.057 A 
HETATM   21  C   UNL     1      31.929  43.389  57.038  1.00  0.00     0.048 C 
HETATM   22  C   UNL     1      30.382  45.294  56.484  1.00  0.00     0.026 A 
HETATM   23  C   UNL     1      29.343  45.797  55.719  1.00  0.00     0.119 A 
HETATM   24  N   UNL     1      28.722  45.106  54.737  1.00  0.00    -0.243 NA
ENDBRANCH   1  18
TORSDOF 5
ENDMDL
MODEL 8
REMARK VINA RESULT:      -7.5     16.419     19.596
REMARK  5 active torsions:
REMARK  status: ('A' for Active; 'I' for Inactive)
REMARK    1  A    between atoms: C_4  and  N_5 
REMARK       I    between atoms: N_5  and  C_6 
REMARK       I    between atoms: C_6  and  N_7 
REMARK    2  A    between atoms: N_7  and  C_8 
REMARK    3  A    between atoms: C_11  and  O_12 
REMARK    4  A    between atoms: O_12  and  C_13 
REMARK    5  A    between atoms: C_13  and  C_14 
ROOT
HETATM    1  N   UNL     1      40.475  38.576  63.192  1.00  0.00    -0.293 N 
HETATM    2  C   UNL     1      39.763  39.667  62.775  1.00  0.00     0.326 C 
HETATM    3  N   UNL     1      39.624  40.685  63.674  1.00  0.00    -0.309 N 
HETATM    4  O   UNL     1      39.322  39.644  61.627  1.00  0.00    -0.247 OA
HETATM    5  H   UNL     1      40.553  37.876  62.470  1.00  0.00     0.172 HD
HETATM    6  H   UNL     1      40.071  40.501  64.571  1.00  0.00     0.170 HD
ENDROOT
BRANCH   3   7
HETATM    7  C   UNL     1      38.995  41.929  63.506  1.00  0.00     0.036 A 
HETATM    8  C   UNL     1      39.549  42.993  62.794  1.00  0.00     0.032 A 
HETATM    9  C   UNL     1      38.873  44.217  62.694  1.00  0.00     0.039 A 
HETATM   10  C   UNL     1      37.637  44.392  63.313  1.00  0.00     0.068 A 
HETATM   11  C   UNL     1      37.068  43.322  64.004  1.00  0.00     0.039 A 
HETATM   12  C   UNL     1      37.741  42.100  64.100  1.00  0.00     0.032 A 
BRANCH  10  13
HETATM   13  O   UNL     1      36.895  45.540  63.311  1.00  0.00    -0.351 OA
BRANCH  13  14
HETATM   14  C   UNL     1      36.149  45.822  64.498  1.00  0.00     0.179 C 
BRANCH  14  15
HETATM   15  C   UNL     1      36.698  47.104  65.141  1.00  0.00     0.002 C 
HETATM   16  C   UNL     1      36.903  48.204  64.096  1.00  0.00     0.011 C 
HETATM   17  C   UNL     1      35.759  47.589  66.244  1.00  0.00     0.011 C 
ENDBRANCH  14  15
ENDBRANCH  13  14
ENDBRANCH  10  13
ENDBRANCH   3   7
BRANCH   1  18
HETATM   18  C   UNL     1      41.084  38.325  64.423  1.00  0.00     0.131 A 
HETATM   19  C   UNL     1      40.417  37.484  65.310  1.00  0.00     0.057 A 
HETATM   20  C   UNL     1      40.993  37.202  66.552  1.00  0.00    -0.057 A 
HETATM   21  C   UNL     1      40.283  36.323  67.538  1.00  0.00     0.048 C 
HETATM   22  C   UNL     1      42.209  37.799  66.871  1.00  0.00     0.026 A 
HETATM   23  C   UNL     1      42.806  38.622  65.930  1.00  0.00     0.119 A 
HETATM   24  N   UNL     1      42.276  38.892  64.716  1.00  0.00    -0.243 NA
ENDBRANCH   1  18
TORSDOF 5
ENDMDL
MODEL 9
REMARK VINA RESULT:      -7.0     16.057     17.883
REMARK  5 active torsions:
REMARK  status: ('A' for Active; 'I' for Inactive)
REMARK    1  A    between atoms: C_4  and  N_5 
REMARK       I    between atoms: N_5  and  C_6 
REMARK       I    between atoms: C_6  and  N_7 
REMARK    2  A    between atoms: N_7  and  C_8 
REMARK    3  A    between atoms: C_11  and  O_12 
REMARK    4  A    between atoms: O_12  and  C_13 
REMARK    5  A    between atoms: C_13  and  C_14 
ROOT
HETATM    1  N   UNL     1      35.426  43.752  65.446  1.00  0.00    -0.293 N 
HETATM    2  C   UNL     1      36.048  42.571  65.144  1.00  0.00     0.326 C 
HETATM    3  N   UNL     1      37.289  42.662  64.584  1.00  0.00    -0.309 N 
HETATM    4  O   UNL     1      35.444  41.534  65.415  1.00  0.00    -0.247 OA
HETATM    5  H   UNL     1      34.524  43.607  65.874  1.00  0.00     0.172 HD
HETATM    6  H   UNL     1      37.607  43.620  64.447  1.00  0.00     0.170 HD
ENDROOT
BRANCH   3   7
HETATM    7  C   UNL     1      38.169  41.629  64.220  1.00  0.00     0.036 A 
HETATM    8  C   UNL     1      38.535  41.344  62.905  1.00  0.00     0.032 A 
HETATM    9  C   UNL     1      39.396  40.276  62.617  1.00  0.00     0.039 A 
HETATM   10  C   UNL     1      39.893  39.476  63.643  1.00  0.00     0.068 A 
HETATM   11  C   UNL     1      39.550  39.774  64.961  1.00  0.00     0.039 A 
HETATM   12  C   UNL     1      38.694  40.842  65.249  1.00  0.00     0.032 A 
BRANCH  10  13
HETATM   13  O   UNL     1      40.716  38.394  63.490  1.00  0.00    -0.351 OA
BRANCH  13  14
HETATM   14  C   UNL     1      41.705  38.194  64.503  1.00  0.00     0.179 C 
BRANCH  14  15
HETATM   15  C   UNL     1      41.748  36.704  64.872  1.00  0.00     0.002 C 
HETATM   16  C   UNL     1      43.146  36.288  65.337  1.00  0.00     0.011 C 
HETATM   17  C   UNL     1      40.715  36.394  65.954  1.00  0.00     0.011 C 
ENDBRANCH  14  15
ENDBRANCH  13  14
ENDBRANCH  10  13
ENDBRANCH   3   7
BRANCH   1  18
HETATM   18  C   UNL     1      35.862  45.065  65.255  1.00  0.00     0.131 A 
HETATM   19  C   UNL     1      35.784  45.931  66.343  1.00  0.00     0.057 A 
HETATM   20  C   UNL     1      36.213  47.254  66.199  1.00  0.00    -0.057 A 
HETATM   21  C   UNL     1      36.114  48.216  67.344  1.00  0.00     0.048 C 
HETATM   22  C   UNL     1      36.680  47.668  64.954  1.00  0.00     0.026 A 
HETATM   23  C   UNL     1      36.724  46.742  63.926  1.00  0.00     0.119 A 
HETATM   24  N   UNL     1      36.334  45.454  64.050  1.00  0.00    -0.243 NA
ENDBRANCH   1  18
TORSDOF 5
ENDMDL
MODEL 10
REMARK VINA RESULT:      -7.0      2.509      9.068
REMARK  5 active torsions:
REMARK  status: ('A' for Active; 'I' for Inactive)
REMARK    1  A    between atoms: C_4  and  N_5 
REMARK       I    between atoms: N_5  and  C_6 
REMARK       I    between atoms: C_6  and  N_7 
REMARK    2  A    between atoms: N_7  and  C_8 
REMARK    3  A    between atoms: C_11  and  O_12 
REMARK    4  A    between atoms: O_12  and  C_13 
REMARK    5  A    between atoms: C_13  and  C_14 
ROOT
HETATM    1  N   UNL     1      26.032  44.222  50.785  1.00  0.00    -0.293 N 
HETATM    2  C   UNL     1      25.366  44.982  49.862  1.00  0.00     0.326 C 
HETATM    3  N   UNL     1      24.697  46.072  50.339  1.00  0.00    -0.309 N 
HETATM    4  O   UNL     1      25.438  44.628  48.686  1.00  0.00    -0.247 OA
HETATM    5  H   UNL     1      26.518  43.448  50.358  1.00  0.00     0.172 HD
HETATM    6  H   UNL     1      24.770  46.187  51.349  1.00  0.00     0.170 HD
ENDROOT
BRANCH   3   7
HETATM    7  C   UNL     1      23.978  47.046  49.626  1.00  0.00     0.036 A 
HETATM    8  C   UNL     1      22.798  46.787  48.929  1.00  0.00     0.032 A 
HETATM    9  C   UNL     1      22.151  47.804  48.215  1.00  0.00     0.039 A 
HETATM   10  C   UNL     1      22.683  49.092  48.184  1.00  0.00     0.068 A 
HETATM   11  C   UNL     1      23.848  49.360  48.901  1.00  0.00     0.039 A 
HETATM   12  C   UNL     1      24.492  48.345  49.617  1.00  0.00     0.032 A 
BRANCH  10  13
HETATM   13  O   UNL     1      22.163  50.158  47.505  1.00  0.00    -0.351 OA
BRANCH  13  14
HETATM   14  C   UNL     1      20.761  50.391  47.657  1.00  0.00     0.179 C 
BRANCH  14  15
HETATM   15  C   UNL     1      20.548  51.504  48.693  1.00  0.00     0.002 C 
HETATM   16  C   UNL     1      19.295  52.325  48.377  1.00  0.00     0.011 C 
HETATM   17  C   UNL     1      20.452  50.911  50.098  1.00  0.00     0.011 C 
ENDBRANCH  14  15
ENDBRANCH  13  14
ENDBRANCH  10  13
ENDBRANCH   3   7
BRANCH   1  18
HETATM   18  C   UNL     1      26.128  44.378  52.169  1.00  0.00     0.131 A 
HETATM   19  C   UNL     1      27.396  44.588  52.704  1.00  0.00     0.057 A 
HETATM   20  C   UNL     1      27.538  44.753  54.086  1.00  0.00    -0.057 A 
HETATM   21  C   UNL     1      28.894  44.952  54.693  1.00  0.00     0.048 C 
HETATM   22  C   UNL     1      26.400  44.673  54.884  1.00  0.00     0.026 A 
HETATM   23  C   UNL     1      25.178  44.462  54.270  1.00  0.00     0.119 A 
HETATM   24  N   UNL     1      25.016  44.320  52.935  1.00  0.00    -0.243 NA
ENDBRANCH   1  18
TORSDOF 5
ENDMDL
