MODEL 1
REMARK VINA RESULT:     -10.0      0.000      0.000
REMARK  6 active torsions:
REMARK  status: ('A' for Active; 'I' for Inactive)
REMARK    1  A    between atoms: C_2  and  O_3 
REMARK    2  A    between atoms: C_2  and  C_10 
REMARK    3  A    between atoms: O_3  and  C_4 
REMARK       I    between atoms: C_10  and  N_11 
REMARK    4  A    between atoms: N_11  and  C_12 
REMARK    5  A    between atoms: N_13  and  C_14 
REMARK    6  A    between atoms: C_26  and  C_27 
ROOT
HETATM    1  C   UNL     1      26.642  44.299  51.212  1.00  0.00     0.152 A 
HETATM    2  N   UNL     1      26.382  43.620  50.032  1.00  0.00    -0.044 N 
HETATM    3  N   UNL     1      25.439  44.244  49.266  1.00  0.00    -0.150 NA
HETATM    4  C   UNL     1      25.106  45.331  49.978  1.00  0.00     0.099 A 
HETATM    5  C   UNL     1      25.830  45.410  51.188  1.00  0.00     0.086 A 
ENDROOT
BRANCH   1   6
HETATM    6  N   UNL     1      27.552  43.832  52.147  1.00  0.00    -0.309 N 
HETATM    7  C   UNL     1      27.259  43.643  53.484  1.00  0.00     0.252 C 
HETATM    8  O   UNL     1      26.183  43.881  54.028  1.00  0.00    -0.270 OA
HETATM    9  H   UNL     1      28.515  43.659  51.838  1.00  0.00     0.170 HD
BRANCH   7  10
HETATM   10  C   UNL     1      28.425  43.016  54.268  1.00  0.00     0.217 C 
HETATM   11  C   UNL     1      28.816  41.709  53.583  1.00  0.00     0.050 C 
BRANCH  10  12
HETATM   12  O   UNL     1      29.595  43.839  54.274  1.00  0.00    -0.337 OA
BRANCH  12  13
HETATM   13  C   UNL     1      30.158  44.093  55.495  1.00  0.00     0.070 A 
HETATM   14  C   UNL     1      29.730  45.272  56.110  1.00  0.00     0.037 A 
HETATM   15  C   UNL     1      30.228  45.638  57.361  1.00  0.00     0.003 A 
HETATM   16  C   UNL     1      31.145  44.816  58.011  1.00  0.00     0.000 A 
HETATM   17  C   UNL     1      31.557  43.627  57.411  1.00  0.00     0.003 A 
HETATM   18  C   UNL     1      31.064  43.262  56.154  1.00  0.00     0.037 A 
ENDBRANCH  12  13
ENDBRANCH  10  12
ENDBRANCH   7  10
ENDBRANCH   1   6
BRANCH   2  19
HETATM   19  C   UNL     1      26.951  42.411  49.589  1.00  0.00     0.732 A 
HETATM   20  N   UNL     1      27.614  41.616  50.367  1.00  0.00    -0.067 NA
HETATM   21  C   UNL     1      28.104  40.467  49.788  1.00  0.00     0.065 A 
HETATM   22  C   UNL     1      27.920  40.132  48.497  1.00  0.00     0.036 A 
HETATM   23  C   UNL     1      28.874  39.563  50.725  1.00  0.00     0.060 C 
HETATM   24  C   UNL     1      28.454  38.884  47.859  1.00  0.00     0.046 C 
HETATM   25  C   UNL     1      27.143  41.063  47.640  1.00  0.00     0.268 A 
HETATM   26  C   UNL     1      29.488  38.164  48.726  1.00  0.00     0.005 C 
HETATM   27  C   UNL     1      29.062  38.143  50.189  1.00  0.00     0.006 C 
HETATM   28  O   UNL     1      26.909  40.829  46.460  1.00  0.00    -0.267 OA
HETATM   29  N   UNL     1      26.708  42.189  48.264  1.00  0.00    -0.152 N 
HETATM   30  H   UNL     1      26.167  42.867  47.738  1.00  0.00     0.188 HD
ENDBRANCH   2  19
BRANCH   4  31
HETATM   31  C   UNL     1      24.071  46.305  49.495  1.00  0.00     0.035 A 
HETATM   32  S   UNL     1      22.719  45.883  48.538  1.00  0.00    -0.100 SA
HETATM   33  C   UNL     1      22.170  47.503  48.481  1.00  0.00     0.050 A 
HETATM   34  C   UNL     1      22.999  48.352  49.180  1.00  0.00     0.008 A 
HETATM   35  C   UNL     1      24.098  47.659  49.768  1.00  0.00     0.022 A 
ENDBRANCH   4  31
TORSDOF 6
ENDMDL
MODEL 2
REMARK VINA RESULT:      -9.9      2.705      6.955
REMARK  6 active torsions:
REMARK  status: ('A' for Active; 'I' for Inactive)
REMARK    1  A    between atoms: C_2  and  O_3 
REMARK    2  A    between atoms: C_2  and  C_10 
REMARK    3  A    between atoms: O_3  and  C_4 
REMARK       I    between atoms: C_10  and  N_11 
REMARK    4  A    between atoms: N_11  and  C_12 
REMARK    5  A    between atoms: N_13  and  C_14 
REMARK    6  A    between atoms: C_26  and  C_27 
ROOT
HETATM    1  C   UNL     1      27.831  44.089  52.537  1.00  0.00     0.152 A 
HETATM    2  N   UNL     1      28.449  42.848  52.497  1.00  0.00    -0.044 N 
HETATM    3  N   UNL     1      29.286  42.646  53.557  1.00  0.00    -0.150 NA
HETATM    4  C   UNL     1      29.189  43.776  54.271  1.00  0.00     0.099 A 
HETATM    5  C   UNL     1      28.295  44.698  53.681  1.00  0.00     0.086 A 
ENDROOT
BRANCH   1   6
HETATM    6  N   UNL     1      26.956  44.509  51.549  1.00  0.00    -0.309 N 
HETATM    7  C   UNL     1      25.593  44.651  51.732  1.00  0.00     0.252 C 
HETATM    8  O   UNL     1      24.975  44.406  52.765  1.00  0.00    -0.270 OA
HETATM    9  H   UNL     1      27.334  44.682  50.611  1.00  0.00     0.170 HD
BRANCH   7  10
HETATM   10  C   UNL     1      24.883  45.233  50.498  1.00  0.00     0.217 C 
HETATM   11  C   UNL     1      23.640  44.392  50.217  1.00  0.00     0.050 C 
BRANCH  10  12
HETATM   12  O   UNL     1      24.431  46.575  50.700  1.00  0.00    -0.337 OA
BRANCH  12  13
HETATM   13  C   UNL     1      25.065  47.550  49.980  1.00  0.00     0.070 A 
HETATM   14  C   UNL     1      24.219  48.435  49.308  1.00  0.00     0.037 A 
HETATM   15  C   UNL     1      24.747  49.477  48.545  1.00  0.00     0.003 A 
HETATM   16  C   UNL     1      26.127  49.649  48.465  1.00  0.00     0.000 A 
HETATM   17  C   UNL     1      26.975  48.782  49.153  1.00  0.00     0.003 A 
HETATM   18  C   UNL     1      26.446  47.734  49.913  1.00  0.00     0.037 A 
ENDBRANCH  12  13
ENDBRANCH  10  12
ENDBRANCH   7  10
ENDBRANCH   1   6
BRANCH   2  19
HETATM   19  C   UNL     1      28.314  41.849  51.514  1.00  0.00     0.732 A 
HETATM   20  N   UNL     1      27.642  42.020  50.420  1.00  0.00    -0.067 NA
HETATM   21  C   UNL     1      27.608  40.951  49.553  1.00  0.00     0.065 A 
HETATM   22  C   UNL     1      28.233  39.779  49.772  1.00  0.00     0.036 A 
HETATM   23  C   UNL     1      26.814  41.186  48.288  1.00  0.00     0.060 C 
HETATM   24  C   UNL     1      28.198  38.609  48.834  1.00  0.00     0.046 C 
HETATM   25  C   UNL     1      29.005  39.625  51.032  1.00  0.00     0.268 A 
HETATM   26  C   UNL     1      27.138  38.752  47.740  1.00  0.00     0.005 C 
HETATM   27  C   UNL     1      27.107  40.170  47.183  1.00  0.00     0.006 C 
HETATM   28  O   UNL     1      29.622  38.602  51.303  1.00  0.00    -0.267 OA
HETATM   29  N   UNL     1      28.979  40.706  51.856  1.00  0.00    -0.152 N 
HETATM   30  H   UNL     1      29.489  40.672  52.732  1.00  0.00     0.188 HD
ENDBRANCH   2  19
BRANCH   4  31
HETATM   31  C   UNL     1      29.973  43.983  55.535  1.00  0.00     0.035 A 
HETATM   32  S   UNL     1      29.879  45.382  56.512  1.00  0.00    -0.100 SA
HETATM   33  C   UNL     1      31.029  44.767  57.619  1.00  0.00     0.050 A 
HETATM   34  C   UNL     1      31.477  43.517  57.255  1.00  0.00     0.008 A 
HETATM   35  C   UNL     1      30.864  43.062  56.050  1.00  0.00     0.022 A 
ENDBRANCH   4  31
TORSDOF 6
ENDMDL
MODEL 3
REMARK VINA RESULT:      -9.8      2.332      6.460
REMARK  6 active torsions:
REMARK  status: ('A' for Active; 'I' for Inactive)
REMARK    1  A    between atoms: C_2  and  O_3 
REMARK    2  A    between atoms: C_2  and  C_10 
REMARK    3  A    between atoms: O_3  and  C_4 
REMARK       I    between atoms: C_10  and  N_11 
REMARK    4  A    between atoms: N_11  and  C_12 
REMARK    5  A    between atoms: N_13  and  C_14 
REMARK    6  A    between atoms: C_26  and  C_27 
ROOT
HETATM    1  C   UNL     1      24.163  45.638  49.460  1.00  0.00     0.152 A 
HETATM    2  N   UNL     1      24.731  46.324  50.523  1.00  0.00    -0.044 N 
HETATM    3  N   UNL     1      24.361  47.638  50.554  1.00  0.00    -0.150 NA
HETATM    4  C   UNL     1      23.549  47.776  49.496  1.00  0.00     0.099 A 
HETATM    5  C   UNL     1      23.392  46.561  48.791  1.00  0.00     0.086 A 
ENDROOT
BRANCH   1   6
HETATM    6  N   UNL     1      24.418  44.296  49.227  1.00  0.00    -0.309 N 
HETATM    7  C   UNL     1      23.630  43.265  49.703  1.00  0.00     0.252 C 
HETATM    8  O   UNL     1      22.629  43.386  50.404  1.00  0.00    -0.270 OA
HETATM    9  H   UNL     1      25.268  44.050  48.709  1.00  0.00     0.170 HD
BRANCH   7  10
HETATM   10  C   UNL     1      24.090  41.884  49.204  1.00  0.00     0.217 C 
HETATM   11  C   UNL     1      22.968  41.279  48.364  1.00  0.00     0.050 C 
BRANCH  10  12
HETATM   12  O   UNL     1      25.241  41.955  48.358  1.00  0.00    -0.337 OA
BRANCH  12  13
HETATM   13  C   UNL     1      26.342  41.250  48.761  1.00  0.00     0.070 A 
HETATM   14  C   UNL     1      27.338  41.103  47.793  1.00  0.00     0.037 A 
HETATM   15  C   UNL     1      28.512  40.409  48.086  1.00  0.00     0.003 A 
HETATM   16  C   UNL     1      28.703  39.873  49.357  1.00  0.00     0.000 A 
HETATM   17  C   UNL     1      27.722  40.038  50.334  1.00  0.00     0.003 A 
HETATM   18  C   UNL     1      26.542  40.727  50.039  1.00  0.00     0.037 A 
ENDBRANCH  12  13
ENDBRANCH  10  12
ENDBRANCH   7  10
ENDBRANCH   1   6
BRANCH   2  19
HETATM   19  C   UNL     1      25.613  45.824  51.499  1.00  0.00     0.732 A 
HETATM   20  N   UNL     1      26.489  44.901  51.253  1.00  0.00    -0.067 NA
HETATM   21  C   UNL     1      27.285  44.522  52.310  1.00  0.00     0.065 A 
HETATM   22  C   UNL     1      27.212  45.057  53.544  1.00  0.00     0.036 A 
HETATM   23  C   UNL     1      28.295  43.443  51.988  1.00  0.00     0.060 C 
HETATM   24  C   UNL     1      28.074  44.646  54.701  1.00  0.00     0.046 C 
HETATM   25  C   UNL     1      26.204  46.121  53.783  1.00  0.00     0.268 A 
HETATM   26  C   UNL     1      28.844  43.350  54.442  1.00  0.00     0.005 C 
HETATM   27  C   UNL     1      29.410  43.318  53.027  1.00  0.00     0.006 C 
HETATM   28  O   UNL     1      26.082  46.678  54.867  1.00  0.00    -0.267 OA
HETATM   29  N   UNL     1      25.433  46.433  52.707  1.00  0.00    -0.152 N 
HETATM   30  H   UNL     1      24.727  47.155  52.799  1.00  0.00     0.188 HD
ENDBRANCH   2  19
BRANCH   4  31
HETATM   31  C   UNL     1      22.920  49.094  49.149  1.00  0.00     0.035 A 
HETATM   32  S   UNL     1      21.236  49.389  49.143  1.00  0.00    -0.100 SA
HETATM   33  C   UNL     1      21.456  51.014  48.656  1.00  0.00     0.050 A 
HETATM   34  C   UNL     1      22.787  51.331  48.501  1.00  0.00     0.008 A 
HETATM   35  C   UNL     1      23.635  50.219  48.788  1.00  0.00     0.022 A 
ENDBRANCH   4  31
TORSDOF 6
ENDMDL
MODEL 4
REMARK VINA RESULT:      -9.7      2.618      7.148
REMARK  6 active torsions:
REMARK  status: ('A' for Active; 'I' for Inactive)
REMARK    1  A    between atoms: C_2  and  O_3 
REMARK    2  A    between atoms: C_2  and  C_10 
REMARK    3  A    between atoms: O_3  and  C_4 
REMARK       I    between atoms: C_10  and  N_11 
REMARK    4  A    between atoms: N_11  and  C_12 
REMARK    5  A    between atoms: N_13  and  C_14 
REMARK    6  A    between atoms: C_26  and  C_27 
ROOT
HETATM    1  C   UNL     1      27.302  43.143  51.999  1.00  0.00     0.152 A 
HETATM    2  N   UNL     1      28.258  42.142  51.926  1.00  0.00    -0.044 N 
HETATM    3  N   UNL     1      29.201  42.247  52.908  1.00  0.00    -0.150 NA
HETATM    4  C   UNL     1      28.828  43.329  53.606  1.00  0.00     0.099 A 
HETATM    5  C   UNL     1      27.653  43.914  53.084  1.00  0.00     0.086 A 
ENDROOT
BRANCH   1   6
HETATM    6  N   UNL     1      26.262  43.238  51.087  1.00  0.00    -0.309 N 
HETATM    7  C   UNL     1      26.279  44.064  49.979  1.00  0.00     0.252 C 
HETATM    8  O   UNL     1      27.185  44.832  49.665  1.00  0.00    -0.270 OA
HETATM    9  H   UNL     1      25.410  42.699  51.270  1.00  0.00     0.170 HD
BRANCH   7  10
HETATM   10  C   UNL     1      25.039  43.889  49.086  1.00  0.00     0.217 C 
HETATM   11  C   UNL     1      24.763  42.395  48.935  1.00  0.00     0.050 C 
BRANCH  10  12
HETATM   12  O   UNL     1      23.860  44.467  49.653  1.00  0.00    -0.337 OA
BRANCH  12  13
HETATM   13  C   UNL     1      23.579  45.757  49.299  1.00  0.00     0.070 A 
HETATM   14  C   UNL     1      22.588  45.902  48.326  1.00  0.00     0.037 A 
HETATM   15  C   UNL     1      22.208  47.170  47.885  1.00  0.00     0.003 A 
HETATM   16  C   UNL     1      22.807  48.303  48.431  1.00  0.00     0.000 A 
HETATM   17  C   UNL     1      23.781  48.164  49.420  1.00  0.00     0.003 A 
HETATM   18  C   UNL     1      24.167  46.893  49.857  1.00  0.00     0.037 A 
ENDBRANCH  12  13
ENDBRANCH  10  12
ENDBRANCH   7  10
ENDBRANCH   1   6
BRANCH   2  19
HETATM   19  C   UNL     1      28.350  41.104  50.979  1.00  0.00     0.732 A 
HETATM   20  N   UNL     1      27.888  41.206  49.773  1.00  0.00    -0.067 NA
HETATM   21  C   UNL     1      28.060  40.107  48.961  1.00  0.00     0.065 A 
HETATM   22  C   UNL     1      28.679  38.974  49.342  1.00  0.00     0.036 A 
HETATM   23  C   UNL     1      27.507  40.260  47.562  1.00  0.00     0.060 C 
HETATM   24  C   UNL     1      28.867  37.772  48.465  1.00  0.00     0.046 C 
HETATM   25  C   UNL     1      29.207  38.900  50.728  1.00  0.00     0.268 A 
HETATM   26  C   UNL     1      28.025  37.826  47.188  1.00  0.00     0.005 C 
HETATM   27  C   UNL     1      28.043  39.221  46.575  1.00  0.00     0.006 C 
HETATM   28  O   UNL     1      29.802  37.918  51.154  1.00  0.00    -0.267 OA
HETATM   29  N   UNL     1      28.984  40.007  51.487  1.00  0.00    -0.152 N 
HETATM   30  H   UNL     1      29.322  40.027  52.443  1.00  0.00     0.188 HD
ENDBRANCH   2  19
BRANCH   4  31
HETATM   31  C   UNL     1      29.614  43.817  54.789  1.00  0.00     0.035 A 
HETATM   32  S   UNL     1      29.317  45.288  55.606  1.00  0.00    -0.100 SA
HETATM   33  C   UNL     1      30.601  45.016  56.703  1.00  0.00     0.050 A 
HETATM   34  C   UNL     1      31.246  43.824  56.455  1.00  0.00     0.008 A 
HETATM   35  C   UNL     1      30.674  43.129  55.348  1.00  0.00     0.022 A 
ENDBRANCH   4  31
TORSDOF 6
ENDMDL
MODEL 5
REMARK VINA RESULT:      -9.6      2.410      8.270
REMARK  6 active torsions:
REMARK  status: ('A' for Active; 'I' for Inactive)
REMARK    1  A    between atoms: C_2  and  O_3 
REMARK    2  A    between atoms: C_2  and  C_10 
REMARK    3  A    between atoms: O_3  and  C_4 
REMARK       I    between atoms: C_10  and  N_11 
REMARK    4  A    between atoms: N_11  and  C_12 
REMARK    5  A    between atoms: N_13  and  C_14 
REMARK    6  A    between atoms: C_26  and  C_27 
ROOT
HETATM    1  C   UNL     1      26.875  43.256  50.716  1.00  0.00     0.152 A 
HETATM    2  N   UNL     1      27.859  42.749  51.551  1.00  0.00    -0.044 N 
HETATM    3  N   UNL     1      28.305  41.523  51.148  1.00  0.00    -0.150 NA
HETATM    4  C   UNL     1      27.591  41.260  50.044  1.00  0.00     0.099 A 
HETATM    5  C   UNL     1      26.695  42.308  49.734  1.00  0.00     0.086 A 
ENDROOT
BRANCH   1   6
HETATM    6  N   UNL     1      26.267  44.479  50.950  1.00  0.00    -0.309 N 
HETATM    7  C   UNL     1      26.528  45.624  50.220  1.00  0.00     0.252 C 
HETATM    8  O   UNL     1      27.334  45.725  49.299  1.00  0.00    -0.270 OA
HETATM    9  H   UNL     1      25.619  44.552  51.741  1.00  0.00     0.170 HD
BRANCH   7  10
HETATM   10  C   UNL     1      25.634  46.808  50.629  1.00  0.00     0.217 C 
HETATM   11  C   UNL     1      25.884  47.111  52.104  1.00  0.00     0.050 C 
BRANCH  10  12
HETATM   12  O   UNL     1      25.936  48.006  49.909  1.00  0.00    -0.337 OA
BRANCH  12  13
HETATM   13  C   UNL     1      24.898  48.599  49.244  1.00  0.00     0.070 A 
HETATM   14  C   UNL     1      25.239  49.737  48.508  1.00  0.00     0.037 A 
HETATM   15  C   UNL     1      24.269  50.428  47.782  1.00  0.00     0.003 A 
HETATM   16  C   UNL     1      22.953  49.971  47.774  1.00  0.00     0.000 A 
HETATM   17  C   UNL     1      22.613  48.823  48.487  1.00  0.00     0.003 A 
HETATM   18  C   UNL     1      23.583  48.134  49.221  1.00  0.00     0.037 A 
ENDBRANCH  12  13
ENDBRANCH  10  12
ENDBRANCH   7  10
ENDBRANCH   1   6
BRANCH   2  19
HETATM   19  C   UNL     1      28.391  43.338  52.713  1.00  0.00     0.732 A 
HETATM   20  N   UNL     1      27.823  44.327  53.327  1.00  0.00    -0.067 NA
HETATM   21  C   UNL     1      28.462  44.790  54.456  1.00  0.00     0.065 A 
HETATM   22  C   UNL     1      29.604  44.271  54.946  1.00  0.00     0.036 A 
HETATM   23  C   UNL     1      27.772  45.945  55.146  1.00  0.00     0.060 C 
HETATM   24  C   UNL     1      30.307  44.772  56.172  1.00  0.00     0.046 C 
HETATM   25  C   UNL     1      30.217  43.129  54.221  1.00  0.00     0.268 A 
HETATM   26  C   UNL     1      29.779  46.124  56.654  1.00  0.00     0.005 C 
HETATM   27  C   UNL     1      28.258  46.181  56.577  1.00  0.00     0.006 C 
HETATM   28  O   UNL     1      31.243  42.581  54.607  1.00  0.00    -0.267 OA
HETATM   29  N   UNL     1      29.552  42.735  53.103  1.00  0.00    -0.152 N 
HETATM   30  H   UNL     1      29.914  41.957  52.562  1.00  0.00     0.188 HD
ENDBRANCH   2  19
BRANCH   4  31
HETATM   31  C   UNL     1      27.762  39.981  49.277  1.00  0.00     0.035 A 
HETATM   32  S   UNL     1      26.552  39.270  48.301  1.00  0.00    -0.100 SA
HETATM   33  C   UNL     1      27.566  37.958  47.883  1.00  0.00     0.050 A 
HETATM   34  C   UNL     1      28.807  38.057  48.473  1.00  0.00     0.008 A 
HETATM   35  C   UNL     1      28.921  39.229  49.279  1.00  0.00     0.022 A 
ENDBRANCH   4  31
TORSDOF 6
ENDMDL
MODEL 6
REMARK VINA RESULT:      -9.6      1.426      1.707
REMARK  6 active torsions:
REMARK  status: ('A' for Active; 'I' for Inactive)
REMARK    1  A    between atoms: C_2  and  O_3 
REMARK    2  A    between atoms: C_2  and  C_10 
REMARK    3  A    between atoms: O_3  and  C_4 
REMARK       I    between atoms: C_10  and  N_11 
REMARK    4  A    between atoms: N_11  and  C_12 
REMARK    5  A    between atoms: N_13  and  C_14 
REMARK    6  A    between atoms: C_26  and  C_27 
ROOT
HETATM    1  C   UNL     1      26.103  45.505  51.067  1.00  0.00     0.152 A 
HETATM    2  N   UNL     1      25.684  44.847  49.921  1.00  0.00    -0.044 N 
HETATM    3  N   UNL     1      24.919  45.639  49.113  1.00  0.00    -0.150 NA
HETATM    4  C   UNL     1      24.862  46.811  49.763  1.00  0.00     0.099 A 
HETATM    5  C   UNL     1      25.585  46.777  50.976  1.00  0.00     0.086 A 
ENDROOT
BRANCH   1   6
HETATM    6  N   UNL     1      26.874  44.882  52.035  1.00  0.00    -0.309 N 
HETATM    7  C   UNL     1      26.355  44.270  53.161  1.00  0.00     0.252 C 
HETATM    8  O   UNL     1      25.167  44.215  53.470  1.00  0.00    -0.270 OA
HETATM    9  H   UNL     1      27.894  44.915  51.935  1.00  0.00     0.170 HD
BRANCH   7  10
HETATM   10  C   UNL     1      27.431  43.568  54.008  1.00  0.00     0.217 C 
HETATM   11  C   UNL     1      27.520  42.112  53.560  1.00  0.00     0.050 C 
BRANCH  10  12
HETATM   12  O   UNL     1      28.733  44.132  53.829  1.00  0.00    -0.337 OA
BRANCH  12  13
HETATM   13  C   UNL     1      29.502  44.266  54.952  1.00  0.00     0.070 A 
HETATM   14  C   UNL     1      29.152  45.332  55.784  1.00  0.00     0.037 A 
HETATM   15  C   UNL     1      29.858  45.571  56.964  1.00  0.00     0.003 A 
HETATM   16  C   UNL     1      30.909  44.730  57.325  1.00  0.00     0.000 A 
HETATM   17  C   UNL     1      31.246  43.651  56.509  1.00  0.00     0.003 A 
HETATM   18  C   UNL     1      30.543  43.416  55.324  1.00  0.00     0.037 A 
ENDBRANCH  12  13
ENDBRANCH  10  12
ENDBRANCH   7  10
ENDBRANCH   1   6
BRANCH   2  19
HETATM   19  C   UNL     1      25.941  43.514  49.549  1.00  0.00     0.732 A 
HETATM   20  N   UNL     1      26.941  42.832  50.011  1.00  0.00    -0.067 NA
HETATM   21  C   UNL     1      27.056  41.537  49.557  1.00  0.00     0.065 A 
HETATM   22  C   UNL     1      26.199  40.958  48.695  1.00  0.00     0.036 A 
HETATM   23  C   UNL     1      28.234  40.772  50.117  1.00  0.00     0.060 C 
HETATM   24  C   UNL     1      26.320  39.550  48.194  1.00  0.00     0.046 C 
HETATM   25  C   UNL     1      25.058  41.768  48.197  1.00  0.00     0.268 A 
HETATM   26  C   UNL     1      27.676  38.917  48.511  1.00  0.00     0.005 C 
HETATM   27  C   UNL     1      28.127  39.258  49.926  1.00  0.00     0.006 C 
HETATM   28  O   UNL     1      24.218  41.317  47.428  1.00  0.00    -0.267 OA
HETATM   29  N   UNL     1      25.014  43.044  48.664  1.00  0.00    -0.152 N 
HETATM   30  H   UNL     1      24.258  43.652  48.367  1.00  0.00     0.188 HD
ENDBRANCH   2  19
BRANCH   4  31
HETATM   31  C   UNL     1      24.094  47.980  49.218  1.00  0.00     0.035 A 
HETATM   32  S   UNL     1      24.805  49.446  48.699  1.00  0.00    -0.100 SA
HETATM   33  C   UNL     1      23.284  50.117  48.293  1.00  0.00     0.050 A 
HETATM   34  C   UNL     1      22.251  49.242  48.545  1.00  0.00     0.008 A 
HETATM   35  C   UNL     1      22.719  48.004  49.079  1.00  0.00     0.022 A 
ENDBRANCH   4  31
TORSDOF 6
ENDMDL
MODEL 7
REMARK VINA RESULT:      -9.5      2.347      6.930
REMARK  6 active torsions:
REMARK  status: ('A' for Active; 'I' for Inactive)
REMARK    1  A    between atoms: C_2  and  O_3 
REMARK    2  A    between atoms: C_2  and  C_10 
REMARK    3  A    between atoms: O_3  and  C_4 
REMARK       I    between atoms: C_10  and  N_11 
REMARK    4  A    between atoms: N_11  and  C_12 
REMARK    5  A    between atoms: N_13  and  C_14 
REMARK    6  A    between atoms: C_26  and  C_27 
ROOT
HETATM    1  C   UNL     1      26.423  45.500  50.909  1.00  0.00     0.152 A 
HETATM    2  N   UNL     1      26.154  46.442  51.889  1.00  0.00    -0.044 N 
HETATM    3  N   UNL     1      25.272  47.397  51.469  1.00  0.00    -0.150 NA
HETATM    4  C   UNL     1      24.985  47.045  50.208  1.00  0.00     0.099 A 
HETATM    5  C   UNL     1      25.671  45.872  49.818  1.00  0.00     0.086 A 
ENDROOT
BRANCH   1   6
HETATM    6  N   UNL     1      27.307  44.453  51.115  1.00  0.00    -0.309 N 
HETATM    7  C   UNL     1      26.920  43.138  51.299  1.00  0.00     0.252 C 
HETATM    8  O   UNL     1      25.763  42.725  51.329  1.00  0.00    -0.270 OA
HETATM    9  H   UNL     1      28.306  44.671  51.182  1.00  0.00     0.170 HD
BRANCH   7  10
HETATM   10  C   UNL     1      28.113  42.173  51.400  1.00  0.00     0.217 C 
HETATM   11  C   UNL     1      28.846  42.451  52.710  1.00  0.00     0.050 C 
BRANCH  10  12
HETATM   12  O   UNL     1      27.715  40.800  51.438  1.00  0.00    -0.337 OA
BRANCH  12  13
HETATM   13  C   UNL     1      28.387  39.944  50.609  1.00  0.00     0.070 A 
HETATM   14  C   UNL     1      29.229  39.035  51.254  1.00  0.00     0.037 A 
HETATM   15  C   UNL     1      29.965  38.106  50.518  1.00  0.00     0.003 A 
HETATM   16  C   UNL     1      29.847  38.071  49.130  1.00  0.00     0.000 A 
HETATM   17  C   UNL     1      28.990  38.961  48.484  1.00  0.00     0.003 A 
HETATM   18  C   UNL     1      28.258  39.896  49.221  1.00  0.00     0.037 A 
ENDBRANCH  12  13
ENDBRANCH  10  12
ENDBRANCH   7  10
ENDBRANCH   1   6
BRANCH   2  19
HETATM   19  C   UNL     1      26.688  46.511  53.190  1.00  0.00     0.732 A 
HETATM   20  N   UNL     1      27.663  45.760  53.593  1.00  0.00    -0.067 NA
HETATM   21  C   UNL     1      28.080  45.949  54.892  1.00  0.00     0.065 A 
HETATM   22  C   UNL     1      27.552  46.860  55.732  1.00  0.00     0.036 A 
HETATM   23  C   UNL     1      29.219  45.055  55.328  1.00  0.00     0.060 C 
HETATM   24  C   UNL     1      27.998  47.069  57.148  1.00  0.00     0.046 C 
HETATM   25  C   UNL     1      26.444  47.711  55.228  1.00  0.00     0.268 A 
HETATM   26  C   UNL     1      28.908  45.951  57.660  1.00  0.00     0.005 C 
HETATM   27  C   UNL     1      29.922  45.536  56.600  1.00  0.00     0.006 C 
HETATM   28  O   UNL     1      25.918  48.578  55.915  1.00  0.00    -0.267 OA
HETATM   29  N   UNL     1      26.062  47.459  53.948  1.00  0.00    -0.152 N 
HETATM   30  H   UNL     1      25.313  48.007  53.539  1.00  0.00     0.188 HD
ENDBRANCH   2  19
BRANCH   4  31
HETATM   31  C   UNL     1      24.045  47.849  49.357  1.00  0.00     0.035 A 
HETATM   32  S   UNL     1      24.410  49.385  48.700  1.00  0.00    -0.100 SA
HETATM   33  C   UNL     1      22.873  49.507  47.960  1.00  0.00     0.050 A 
HETATM   34  C   UNL     1      22.093  48.399  48.205  1.00  0.00     0.008 A 
HETATM   35  C   UNL     1      22.772  47.438  49.012  1.00  0.00     0.022 A 
ENDBRANCH   4  31
TORSDOF 6
ENDMDL
MODEL 8
REMARK VINA RESULT:      -9.1      3.275      7.751
REMARK  6 active torsions:
REMARK  status: ('A' for Active; 'I' for Inactive)
REMARK    1  A    between atoms: C_2  and  O_3 
REMARK    2  A    between atoms: C_2  and  C_10 
REMARK    3  A    between atoms: O_3  and  C_4 
REMARK       I    between atoms: C_10  and  N_11 
REMARK    4  A    between atoms: N_11  and  C_12 
REMARK    5  A    between atoms: N_13  and  C_14 
REMARK    6  A    between atoms: C_26  and  C_27 
ROOT
HETATM    1  C   UNL     1      27.032  42.678  52.364  1.00  0.00     0.152 A 
HETATM    2  N   UNL     1      28.152  41.902  52.106  1.00  0.00    -0.044 N 
HETATM    3  N   UNL     1      29.185  42.178  52.955  1.00  0.00    -0.150 NA
HETATM    4  C   UNL     1      28.703  43.139  53.757  1.00  0.00     0.099 A 
HETATM    5  C   UNL     1      27.370  43.477  53.431  1.00  0.00     0.086 A 
ENDROOT
BRANCH   1   6
HETATM    6  N   UNL     1      25.874  42.575  51.608  1.00  0.00    -0.309 N 
HETATM    7  C   UNL     1      25.534  43.450  50.593  1.00  0.00     0.252 C 
HETATM    8  O   UNL     1      26.180  44.433  50.240  1.00  0.00    -0.270 OA
HETATM    9  H   UNL     1      25.207  41.834  51.846  1.00  0.00     0.170 HD
BRANCH   7  10
HETATM   10  C   UNL     1      24.249  43.035  49.855  1.00  0.00     0.217 C 
HETATM   11  C   UNL     1      23.145  44.024  50.221  1.00  0.00     0.050 C 
BRANCH  10  12
HETATM   12  O   UNL     1      24.386  43.084  48.432  1.00  0.00    -0.337 OA
BRANCH  12  13
HETATM   13  C   UNL     1      23.435  42.425  47.703  1.00  0.00     0.070 A 
HETATM   14  C   UNL     1      23.244  41.085  48.050  1.00  0.00     0.037 A 
HETATM   15  C   UNL     1      22.297  40.308  47.383  1.00  0.00     0.003 A 
HETATM   16  C   UNL     1      21.522  40.875  46.373  1.00  0.00     0.000 A 
HETATM   17  C   UNL     1      21.692  42.217  46.039  1.00  0.00     0.003 A 
HETATM   18  C   UNL     1      22.646  42.995  46.703  1.00  0.00     0.037 A 
ENDBRANCH  12  13
ENDBRANCH  10  12
ENDBRANCH   7  10
ENDBRANCH   1   6
BRANCH   2  19
HETATM   19  C   UNL     1      28.316  40.932  51.100  1.00  0.00     0.732 A 
HETATM   20  N   UNL     1      27.847  41.071  49.901  1.00  0.00    -0.067 NA
HETATM   21  C   UNL     1      28.096  40.037  49.026  1.00  0.00     0.065 A 
HETATM   22  C   UNL     1      28.796  38.931  49.341  1.00  0.00     0.036 A 
HETATM   23  C   UNL     1      27.532  40.234  47.637  1.00  0.00     0.060 C 
HETATM   24  C   UNL     1      29.068  37.800  48.395  1.00  0.00     0.046 C 
HETATM   25  C   UNL     1      29.329  38.814  50.722  1.00  0.00     0.268 A 
HETATM   26  C   UNL     1      28.223  37.869  47.121  1.00  0.00     0.005 C 
HETATM   27  C   UNL     1      28.140  39.296  46.592  1.00  0.00     0.006 C 
HETATM   28  O   UNL     1      29.994  37.853  51.090  1.00  0.00    -0.267 OA
HETATM   29  N   UNL     1      29.029  39.855  51.543  1.00  0.00    -0.152 N 
HETATM   30  H   UNL     1      29.366  39.842  52.500  1.00  0.00     0.188 HD
ENDBRANCH   2  19
BRANCH   4  31
HETATM   31  C   UNL     1      29.535  43.751  54.847  1.00  0.00     0.035 A 
HETATM   32  S   UNL     1      29.238  45.283  55.544  1.00  0.00    -0.100 SA
HETATM   33  C   UNL     1      30.585  45.142  56.590  1.00  0.00     0.050 A 
HETATM   34  C   UNL     1      31.250  43.949  56.415  1.00  0.00     0.008 A 
HETATM   35  C   UNL     1      30.641  43.143  55.407  1.00  0.00     0.022 A 
ENDBRANCH   4  31
TORSDOF 6
ENDMDL
MODEL 9
REMARK VINA RESULT:      -8.9      5.694      9.112
REMARK  6 active torsions:
REMARK  status: ('A' for Active; 'I' for Inactive)
REMARK    1  A    between atoms: C_2  and  O_3 
REMARK    2  A    between atoms: C_2  and  C_10 
REMARK    3  A    between atoms: O_3  and  C_4 
REMARK       I    between atoms: C_10  and  N_11 
REMARK    4  A    between atoms: N_11  and  C_12 
REMARK    5  A    between atoms: N_13  and  C_14 
REMARK    6  A    between atoms: C_26  and  C_27 
ROOT
HETATM    1  C   UNL     1      20.574  48.042  47.775  1.00  0.00     0.152 A 
HETATM    2  N   UNL     1      21.381  48.847  48.564  1.00  0.00    -0.044 N 
HETATM    3  N   UNL     1      20.703  49.906  49.098  1.00  0.00    -0.150 NA
HETATM    4  C   UNL     1      19.453  49.760  48.636  1.00  0.00     0.099 A 
HETATM    5  C   UNL     1      19.324  48.615  47.817  1.00  0.00     0.086 A 
ENDROOT
BRANCH   1   6
HETATM    6  N   UNL     1      21.063  46.923  47.120  1.00  0.00    -0.309 N 
HETATM    7  C   UNL     1      21.102  45.658  47.676  1.00  0.00     0.252 C 
HETATM    8  O   UNL     1      20.741  45.357  48.811  1.00  0.00    -0.270 OA
HETATM    9  H   UNL     1      21.462  47.048  46.185  1.00  0.00     0.170 HD
BRANCH   7  10
HETATM   10  C   UNL     1      21.596  44.588  46.688  1.00  0.00     0.217 C 
HETATM   11  C   UNL     1      21.203  45.018  45.277  1.00  0.00     0.050 C 
BRANCH  10  12
HETATM   12  O   UNL     1      23.019  44.445  46.689  1.00  0.00    -0.337 OA
BRANCH  12  13
HETATM   13  C   UNL     1      23.540  43.505  47.534  1.00  0.00     0.070 A 
HETATM   14  C   UNL     1      24.337  44.011  48.564  1.00  0.00     0.037 A 
HETATM   15  C   UNL     1      24.920  43.151  49.496  1.00  0.00     0.003 A 
HETATM   16  C   UNL     1      24.694  41.780  49.411  1.00  0.00     0.000 A 
HETATM   17  C   UNL     1      23.881  41.272  48.398  1.00  0.00     0.003 A 
HETATM   18  C   UNL     1      23.302  42.132  47.461  1.00  0.00     0.037 A 
ENDBRANCH  12  13
ENDBRANCH  10  12
ENDBRANCH   7  10
ENDBRANCH   1   6
BRANCH   2  19
HETATM   19  C   UNL     1      22.755  48.693  48.832  1.00  0.00     0.732 A 
HETATM   20  N   UNL     1      23.668  49.439  48.295  1.00  0.00    -0.067 NA
HETATM   21  C   UNL     1      24.967  49.169  48.662  1.00  0.00     0.065 A 
HETATM   22  C   UNL     1      25.323  48.209  49.537  1.00  0.00     0.036 A 
HETATM   23  C   UNL     1      26.005  50.058  48.016  1.00  0.00     0.060 C 
HETATM   24  C   UNL     1      26.736  47.907  49.938  1.00  0.00     0.046 C 
HETATM   25  C   UNL     1      24.247  47.383  50.141  1.00  0.00     0.268 A 
HETATM   26  C   UNL     1      27.771  48.585  49.039  1.00  0.00     0.005 C 
HETATM   27  C   UNL     1      27.366  50.018  48.714  1.00  0.00     0.006 C 
HETATM   28  O   UNL     1      24.477  46.502  50.961  1.00  0.00    -0.267 OA
HETATM   29  N   UNL     1      22.989  47.682  49.720  1.00  0.00    -0.152 N 
HETATM   30  H   UNL     1      22.205  47.159  50.096  1.00  0.00     0.188 HD
ENDBRANCH   2  19
BRANCH   4  31
HETATM   31  C   UNL     1      18.365  50.736  48.978  1.00  0.00     0.035 A 
HETATM   32  S   UNL     1      16.726  50.553  48.526  1.00  0.00    -0.100 SA
HETATM   33  C   UNL     1      16.286  52.025  49.280  1.00  0.00     0.050 A 
HETATM   34  C   UNL     1      17.365  52.646  49.868  1.00  0.00     0.008 A 
HETATM   35  C   UNL     1      18.568  51.899  49.695  1.00  0.00     0.022 A 
ENDBRANCH   4  31
TORSDOF 6
ENDMDL
MODEL 10
REMARK VINA RESULT:      -8.9      4.276      9.377
REMARK  6 active torsions:
REMARK  status: ('A' for Active; 'I' for Inactive)
REMARK    1  A    between atoms: C_2  and  O_3 
REMARK    2  A    between atoms: C_2  and  C_10 
REMARK    3  A    between atoms: O_3  and  C_4 
REMARK       I    between atoms: C_10  and  N_11 
REMARK    4  A    between atoms: N_11  and  C_12 
REMARK    5  A    between atoms: N_13  and  C_14 
REMARK    6  A    between atoms: C_26  and  C_27 
ROOT
HETATM    1  C   UNL     1      24.612  46.840  50.720  1.00  0.00     0.152 A 
HETATM    2  N   UNL     1      24.434  45.553  50.237  1.00  0.00    -0.044 N 
HETATM    3  N   UNL     1      25.281  44.654  50.820  1.00  0.00    -0.150 NA
HETATM    4  C   UNL     1      25.998  45.390  51.681  1.00  0.00     0.099 A 
HETATM    5  C   UNL     1      25.615  46.750  51.659  1.00  0.00     0.086 A 
ENDROOT
BRANCH   1   6
HETATM    6  N   UNL     1      23.870  47.913  50.252  1.00  0.00    -0.309 N 
HETATM    7  C   UNL     1      24.353  48.862  49.371  1.00  0.00     0.252 C 
HETATM    8  O   UNL     1      25.491  48.904  48.909  1.00  0.00    -0.270 OA
HETATM    9  H   UNL     1      22.919  48.036  50.615  1.00  0.00     0.170 HD
BRANCH   7  10
HETATM   10  C   UNL     1      23.280  49.877  48.940  1.00  0.00     0.217 C 
HETATM   11  C   UNL     1      23.767  50.583  47.677  1.00  0.00     0.050 C 
BRANCH  10  12
HETATM   12  O   UNL     1      22.034  49.259  48.609  1.00  0.00    -0.337 OA
BRANCH  12  13
HETATM   13  C   UNL     1      20.952  50.088  48.490  1.00  0.00     0.070 A 
HETATM   14  C   UNL     1      20.664  50.852  49.623  1.00  0.00     0.037 A 
HETATM   15  C   UNL     1      19.588  51.740  49.624  1.00  0.00     0.003 A 
HETATM   16  C   UNL     1      18.804  51.881  48.481  1.00  0.00     0.000 A 
HETATM   17  C   UNL     1      19.102  51.138  47.340  1.00  0.00     0.003 A 
HETATM   18  C   UNL     1      20.176  50.243  47.341  1.00  0.00     0.037 A 
ENDBRANCH  12  13
ENDBRANCH  10  12
ENDBRANCH   7  10
ENDBRANCH   1   6
BRANCH   2  19
HETATM   19  C   UNL     1      23.530  45.119  49.249  1.00  0.00     0.732 A 
HETATM   20  N   UNL     1      22.940  45.929  48.428  1.00  0.00    -0.067 NA
HETATM   21  C   UNL     1      22.089  45.353  47.512  1.00  0.00     0.065 A 
HETATM   22  C   UNL     1      21.858  44.029  47.420  1.00  0.00     0.036 A 
HETATM   23  C   UNL     1      21.417  46.327  46.571  1.00  0.00     0.060 C 
HETATM   24  C   UNL     1      20.930  43.395  46.429  1.00  0.00     0.046 C 
HETATM   25  C   UNL     1      22.563  43.132  48.371  1.00  0.00     0.268 A 
HETATM   26  C   UNL     1      20.029  44.408  45.720  1.00  0.00     0.005 C 
HETATM   27  C   UNL     1      20.804  45.662  45.336  1.00  0.00     0.006 C 
HETATM   28  O   UNL     1      22.431  41.915  48.347  1.00  0.00    -0.267 OA
HETATM   29  N   UNL     1      23.371  43.763  49.265  1.00  0.00    -0.152 N 
HETATM   30  H   UNL     1      23.886  43.211  49.941  1.00  0.00     0.188 HD
ENDBRANCH   2  19
BRANCH   4  31
HETATM   31  C   UNL     1      27.075  44.784  52.535  1.00  0.00     0.035 A 
HETATM   32  S   UNL     1      28.138  43.551  52.016  1.00  0.00    -0.100 SA
HETATM   33  C   UNL     1      28.929  43.504  53.533  1.00  0.00     0.050 A 
HETATM   34  C   UNL     1      28.396  44.412  54.420  1.00  0.00     0.008 A 
HETATM   35  C   UNL     1      27.324  45.155  53.842  1.00  0.00     0.022 A 
ENDBRANCH   4  31
TORSDOF 6
ENDMDL
