MODEL 1
REMARK VINA RESULT:      -9.2      0.000      0.000
REMARK  11 active torsions:
REMARK  status: ('A' for Active; 'I' for Inactive)
REMARK    1  A    between atoms: C_2  and  O_3 
REMARK    2  A    between atoms: O_3  and  C_4 
REMARK    3  A    between atoms: C_7  and  N_8 
REMARK       I    between atoms: N_8  and  C_9 
REMARK    4  A    between atoms: C_9  and  C_10 
REMARK    5  A    between atoms: C_10  and  C_11 
REMARK    6  A    between atoms: N_12  and  C_13 
REMARK    7  A    between atoms: C_13  and  C_14 
REMARK    8  A    between atoms: C_14  and  C_15 
REMARK    9  A    between atoms: C_15  and  N_16 
REMARK   10  A    between atoms: C_20  and  C_21 
REMARK       I    between atoms: C_21  and  N_22 
REMARK   11  A    between atoms: N_28  and  C_29 
ROOT
HETATM    1  C   UNL     1      24.390  45.414  49.799  1.00  0.00     0.188 C 
HETATM    2  N   UNL     1      23.462  44.903  48.797  1.00  0.00    -0.344 N 
HETATM    3  C   UNL     1      22.766  45.958  48.175  1.00  0.00     0.184 C 
HETATM    4  S   UNL     1      21.997  45.798  46.696  1.00  0.00    -0.040 SA
HETATM    5  N   UNL     1      22.928  47.094  48.964  1.00  0.00    -0.257 N 
HETATM    6  C   UNL     1      23.881  46.844  49.934  1.00  0.00     0.254 C 
HETATM    7  O   UNL     1      24.358  47.613  50.762  1.00  0.00    -0.270 OA
ENDROOT
BRANCH   2   8
HETATM    8  C   UNL     1      23.509  43.491  48.395  1.00  0.00     0.128 C 
BRANCH   8   9
HETATM    9  C   UNL     1      23.909  42.556  49.551  1.00  0.00     0.048 C 
BRANCH   9  10
HETATM   10  C   UNL     1      24.470  41.214  49.069  1.00  0.00     0.236 C 
BRANCH  10  11
HETATM   11  N   UNL     1      25.979  41.136  49.259  1.00  0.00    -0.071 N 
HETATM   12  H   UNL     1      26.346  42.091  49.347  1.00  0.00     0.279 HD
HETATM   13  C   UNL     1      26.338  40.364  50.513  1.00  0.00     0.235 C 
HETATM   14  C   UNL     1      27.851  40.361  50.701  1.00  0.00     0.042 C 
HETATM   15  C   UNL     1      28.568  39.747  49.498  1.00  0.00     0.081 C 
HETATM   16  C   UNL     1      28.138  40.450  48.207  1.00  0.00     0.042 C 
HETATM   17  C   UNL     1      26.626  40.527  48.026  1.00  0.00     0.235 C 
BRANCH  15  18
HETATM   18  C   UNL     1      28.291  38.253  49.437  1.00  0.00     0.219 C 
HETATM   19  N   UNL     1      28.695  37.535  50.518  1.00  0.00    -0.370 N 
HETATM   20  H   UNL     1      29.422  37.858  51.145  1.00  0.00     0.159 HD
HETATM   21  H   UNL     1      28.573  36.528  50.465  1.00  0.00     0.159 HD
HETATM   22  O   UNL     1      27.650  37.732  48.533  1.00  0.00    -0.273 OA
ENDBRANCH  15  18
ENDBRANCH  10  11
ENDBRANCH   9  10
ENDBRANCH   8   9
ENDBRANCH   2   8
BRANCH   1  23
HETATM   23  C   UNL     1      25.827  45.458  49.296  1.00  0.00     0.138 C 
BRANCH  23  24
HETATM   24  C   UNL     1      26.723  44.492  50.048  1.00  0.00     0.224 C 
HETATM   25  N   UNL     1      26.726  44.694  51.410  1.00  0.00    -0.327 N 
HETATM   26  H   UNL     1      25.963  45.238  51.812  1.00  0.00     0.169 HD
HETATM   27  O   UNL     1      27.362  43.648  49.425  1.00  0.00    -0.273 OA
BRANCH  25  28
HETATM   28  C   UNL     1      27.643  44.190  52.353  1.00  0.00     0.034 A 
HETATM   29  C   UNL     1      28.836  43.551  52.021  1.00  0.00     0.032 A 
HETATM   30  C   UNL     1      29.729  43.165  53.029  1.00  0.00     0.039 A 
HETATM   31  C   UNL     1      29.444  43.410  54.374  1.00  0.00     0.068 A 
HETATM   32  C   UNL     1      28.241  44.024  54.709  1.00  0.00     0.039 A 
HETATM   33  C   UNL     1      27.350  44.415  53.704  1.00  0.00     0.032 A 
BRANCH  31  34
HETATM   34  O   UNL     1      30.413  43.010  55.252  1.00  0.00    -0.352 OA
BRANCH  34  35
HETATM   35  C   UNL     1      31.020  44.026  56.051  1.00  0.00     0.171 C 
HETATM   36  C   UNL     1      31.828  43.350  57.144  1.00  0.00     0.034 C 
ENDBRANCH  34  35
ENDBRANCH  31  34
ENDBRANCH  25  28
ENDBRANCH  23  24
ENDBRANCH   1  23
BRANCH   5  37
HETATM   37  C   UNL     1      22.233  48.341  48.865  1.00  0.00     0.045 A 
HETATM   38  C   UNL     1      20.880  48.453  49.234  1.00  0.00     0.032 A 
HETATM   39  C   UNL     1      20.182  49.661  49.098  1.00  0.00     0.026 A 
HETATM   40  C   UNL     1      20.824  50.781  48.587  1.00  0.00     0.034 A 
HETATM   41 CL   UNL     1      19.971  52.261  48.413  1.00  0.00    -0.084 Cl
HETATM   42  C   UNL     1      22.157  50.698  48.203  1.00  0.00     0.026 A 
HETATM   43  C   UNL     1      22.848  49.486  48.334  1.00  0.00     0.032 A 
ENDBRANCH   5  37
TORSDOF 11
ENDMDL
MODEL 2
REMARK VINA RESULT:      -8.7      3.432      8.270
REMARK  11 active torsions:
REMARK  status: ('A' for Active; 'I' for Inactive)
REMARK    1  A    between atoms: C_2  and  O_3 
REMARK    2  A    between atoms: O_3  and  C_4 
REMARK    3  A    between atoms: C_7  and  N_8 
REMARK       I    between atoms: N_8  and  C_9 
REMARK    4  A    between atoms: C_9  and  C_10 
REMARK    5  A    between atoms: C_10  and  C_11 
REMARK    6  A    between atoms: N_12  and  C_13 
REMARK    7  A    between atoms: C_13  and  C_14 
REMARK    8  A    between atoms: C_14  and  C_15 
REMARK    9  A    between atoms: C_15  and  N_16 
REMARK   10  A    between atoms: C_20  and  C_21 
REMARK       I    between atoms: C_21  and  N_22 
REMARK   11  A    between atoms: N_28  and  C_29 
ROOT
HETATM    1  C   UNL     1      25.037  45.355  49.457  1.00  0.00     0.188 C 
HETATM    2  N   UNL     1      24.017  44.471  48.905  1.00  0.00    -0.344 N 
HETATM    3  C   UNL     1      24.425  43.125  48.989  1.00  0.00     0.184 C 
HETATM    4  S   UNL     1      23.355  41.840  48.900  1.00  0.00    -0.040 SA
HETATM    5  N   UNL     1      25.796  43.113  49.232  1.00  0.00    -0.257 N 
HETATM    6  C   UNL     1      26.219  44.396  49.526  1.00  0.00     0.254 C 
HETATM    7  O   UNL     1      27.330  44.781  49.874  1.00  0.00    -0.270 OA
ENDROOT
BRANCH   2   8
HETATM    8  C   UNL     1      22.686  44.993  48.571  1.00  0.00     0.128 C 
BRANCH   8   9
HETATM    9  C   UNL     1      22.714  46.476  48.161  1.00  0.00     0.048 C 
BRANCH   9  10
HETATM   10  C   UNL     1      21.443  46.918  47.427  1.00  0.00     0.236 C 
BRANCH  10  11
HETATM   11  N   UNL     1      21.334  48.436  47.361  1.00  0.00    -0.071 N 
HETATM   12  H   UNL     1      21.535  48.735  46.399  1.00  0.00     0.279 HD
HETATM   13  C   UNL     1      19.940  48.906  47.730  1.00  0.00     0.235 C 
HETATM   14  C   UNL     1      19.853  50.421  47.592  1.00  0.00     0.042 C 
HETATM   15  C   UNL     1      20.883  51.128  48.474  1.00  0.00     0.081 C 
HETATM   16  C   UNL     1      22.288  50.592  48.186  1.00  0.00     0.042 C 
HETATM   17  C   UNL     1      22.389  49.071  48.250  1.00  0.00     0.235 C 
BRANCH  15  18
HETATM   18  C   UNL     1      20.513  50.959  49.940  1.00  0.00     0.219 C 
HETATM   19  N   UNL     1      21.553  50.973  50.815  1.00  0.00    -0.370 N 
HETATM   20  H   UNL     1      22.501  50.752  50.536  1.00  0.00     0.159 HD
HETATM   21  H   UNL     1      21.327  50.798  51.790  1.00  0.00     0.159 HD
HETATM   22  O   UNL     1      19.353  50.923  50.332  1.00  0.00    -0.273 OA
ENDBRANCH  15  18
ENDBRANCH  10  11
ENDBRANCH   9  10
ENDBRANCH   8   9
ENDBRANCH   2   8
BRANCH   1  23
HETATM   23  C   UNL     1      24.707  45.820  50.870  1.00  0.00     0.138 C 
BRANCH  23  24
HETATM   24  C   UNL     1      25.325  44.922  51.923  1.00  0.00     0.224 C 
HETATM   25  N   UNL     1      26.445  45.462  52.517  1.00  0.00    -0.327 N 
HETATM   26  H   UNL     1      26.594  46.466  52.425  1.00  0.00     0.169 HD
HETATM   27  O   UNL     1      24.823  43.826  52.156  1.00  0.00    -0.273 OA
BRANCH  25  28
HETATM   28  C   UNL     1      27.411  44.797  53.297  1.00  0.00     0.034 A 
HETATM   29  C   UNL     1      27.940  43.546  52.990  1.00  0.00     0.032 A 
HETATM   30  C   UNL     1      28.965  43.004  53.777  1.00  0.00     0.039 A 
HETATM   31  C   UNL     1      29.471  43.701  54.876  1.00  0.00     0.068 A 
HETATM   32  C   UNL     1      28.925  44.941  55.200  1.00  0.00     0.039 A 
HETATM   33  C   UNL     1      27.906  45.485  54.413  1.00  0.00     0.032 A 
BRANCH  31  34
HETATM   34  O   UNL     1      30.488  43.074  55.540  1.00  0.00    -0.352 OA
BRANCH  34  35
HETATM   35  C   UNL     1      31.505  43.906  56.099  1.00  0.00     0.171 C 
HETATM   36  C   UNL     1      31.551  43.659  57.596  1.00  0.00     0.034 C 
ENDBRANCH  34  35
ENDBRANCH  31  34
ENDBRANCH  25  28
ENDBRANCH  23  24
ENDBRANCH   1  23
BRANCH   5  37
HETATM   37  C   UNL     1      26.691  41.998  49.173  1.00  0.00     0.045 A 
HETATM   38  C   UNL     1      27.146  41.366  50.344  1.00  0.00     0.032 A 
HETATM   39  C   UNL     1      28.056  40.301  50.296  1.00  0.00     0.026 A 
HETATM   40  C   UNL     1      28.531  39.849  49.072  1.00  0.00     0.034 A 
HETATM   41 CL   UNL     1      29.651  38.549  49.007  1.00  0.00    -0.084 Cl
HETATM   42  C   UNL     1      28.109  40.461  47.897  1.00  0.00     0.026 A 
HETATM   43  C   UNL     1      27.204  41.529  47.953  1.00  0.00     0.032 A 
ENDBRANCH   5  37
TORSDOF 11
ENDMDL
MODEL 3
REMARK VINA RESULT:      -8.4      3.490      8.916
REMARK  11 active torsions:
REMARK  status: ('A' for Active; 'I' for Inactive)
REMARK    1  A    between atoms: C_2  and  O_3 
REMARK    2  A    between atoms: O_3  and  C_4 
REMARK    3  A    between atoms: C_7  and  N_8 
REMARK       I    between atoms: N_8  and  C_9 
REMARK    4  A    between atoms: C_9  and  C_10 
REMARK    5  A    between atoms: C_10  and  C_11 
REMARK    6  A    between atoms: N_12  and  C_13 
REMARK    7  A    between atoms: C_13  and  C_14 
REMARK    8  A    between atoms: C_14  and  C_15 
REMARK    9  A    between atoms: C_15  and  N_16 
REMARK   10  A    between atoms: C_20  and  C_21 
REMARK       I    between atoms: C_21  and  N_22 
REMARK   11  A    between atoms: N_28  and  C_29 
ROOT
HETATM    1  C   UNL     1      24.029  47.402  49.979  1.00  0.00     0.188 C 
HETATM    2  N   UNL     1      25.159  46.663  50.531  1.00  0.00    -0.344 N 
HETATM    3  C   UNL     1      25.321  45.430  49.868  1.00  0.00     0.184 C 
HETATM    4  S   UNL     1      26.750  44.558  49.901  1.00  0.00    -0.040 SA
HETATM    5  N   UNL     1      24.148  45.170  49.166  1.00  0.00    -0.257 N 
HETATM    6  C   UNL     1      23.346  46.297  49.182  1.00  0.00     0.254 C 
HETATM    7  O   UNL     1      22.279  46.492  48.610  1.00  0.00    -0.270 OA
ENDROOT
BRANCH   2   8
HETATM    8  C   UNL     1      26.083  47.314  51.468  1.00  0.00     0.128 C 
BRANCH   8   9
HETATM    9  C   UNL     1      25.705  47.075  52.941  1.00  0.00     0.048 C 
BRANCH   9  10
HETATM   10  C   UNL     1      26.920  47.048  53.874  1.00  0.00     0.236 C 
BRANCH  10  11
HETATM   11  N   UNL     1      27.144  45.661  54.463  1.00  0.00    -0.071 N 
HETATM   12  H   UNL     1      27.007  45.713  55.479  1.00  0.00     0.279 HD
HETATM   13  C   UNL     1      26.161  44.655  53.895  1.00  0.00     0.235 C 
HETATM   14  C   UNL     1      26.375  43.297  54.552  1.00  0.00     0.042 C 
HETATM   15  C   UNL     1      27.803  42.790  54.348  1.00  0.00     0.081 C 
HETATM   16  C   UNL     1      28.813  43.838  54.823  1.00  0.00     0.042 C 
HETATM   17  C   UNL     1      28.581  45.225  54.232  1.00  0.00     0.235 C 
BRANCH  15  18
HETATM   18  C   UNL     1      28.021  42.430  52.886  1.00  0.00     0.219 C 
HETATM   19  N   UNL     1      27.046  41.675  52.314  1.00  0.00    -0.370 N 
HETATM   20  H   UNL     1      26.419  41.095  52.858  1.00  0.00     0.159 HD
HETATM   21  H   UNL     1      27.208  41.375  51.357  1.00  0.00     0.159 HD
HETATM   22  O   UNL     1      28.950  42.875  52.223  1.00  0.00    -0.273 OA
ENDBRANCH  15  18
ENDBRANCH  10  11
ENDBRANCH   9  10
ENDBRANCH   8   9
ENDBRANCH   2   8
BRANCH   1  23
HETATM   23  C   UNL     1      24.462  48.498  49.013  1.00  0.00     0.138 C 
BRANCH  23  24
HETATM   24  C   UNL     1      23.296  49.358  48.568  1.00  0.00     0.224 C 
HETATM   25  N   UNL     1      22.304  49.474  49.518  1.00  0.00    -0.327 N 
HETATM   26  H   UNL     1      22.540  49.237  50.482  1.00  0.00     0.169 HD
HETATM   27  O   UNL     1      23.304  49.858  47.446  1.00  0.00    -0.273 OA
BRANCH  25  28
HETATM   28  C   UNL     1      20.987  49.937  49.335  1.00  0.00     0.034 A 
HETATM   29  C   UNL     1      19.851  49.144  49.482  1.00  0.00     0.032 A 
HETATM   30  C   UNL     1      18.577  49.715  49.370  1.00  0.00     0.039 A 
HETATM   31  C   UNL     1      18.421  51.078  49.109  1.00  0.00     0.068 A 
HETATM   32  C   UNL     1      19.555  51.867  48.936  1.00  0.00     0.039 A 
HETATM   33  C   UNL     1      20.829  51.300  49.053  1.00  0.00     0.032 A 
BRANCH  31  34
HETATM   34  O   UNL     1      17.126  51.512  49.054  1.00  0.00    -0.352 OA
BRANCH  34  35
HETATM   35  C   UNL     1      16.787  52.639  49.863  1.00  0.00     0.171 C 
HETATM   36  C   UNL     1      15.341  53.005  49.584  1.00  0.00     0.034 C 
ENDBRANCH  34  35
ENDBRANCH  31  34
ENDBRANCH  25  28
ENDBRANCH  23  24
ENDBRANCH   1  23
BRANCH   5  37
HETATM   37  C   UNL     1      23.754  43.950  48.531  1.00  0.00     0.045 A 
HETATM   38  C   UNL     1      23.558  42.772  49.273  1.00  0.00     0.032 A 
HETATM   39  C   UNL     1      23.215  41.563  48.652  1.00  0.00     0.026 A 
HETATM   40  C   UNL     1      23.063  41.509  47.273  1.00  0.00     0.034 A 
HETATM   41 CL   UNL     1      22.649  40.029  46.507  1.00  0.00    -0.084 Cl
HETATM   42  C   UNL     1      23.261  42.654  46.511  1.00  0.00     0.026 A 
HETATM   43  C   UNL     1      23.611  43.858  47.136  1.00  0.00     0.032 A 
ENDBRANCH   5  37
TORSDOF 11
ENDMDL
MODEL 4
REMARK VINA RESULT:      -8.4      3.592      8.609
REMARK  11 active torsions:
REMARK  status: ('A' for Active; 'I' for Inactive)
REMARK    1  A    between atoms: C_2  and  O_3 
REMARK    2  A    between atoms: O_3  and  C_4 
REMARK    3  A    between atoms: C_7  and  N_8 
REMARK       I    between atoms: N_8  and  C_9 
REMARK    4  A    between atoms: C_9  and  C_10 
REMARK    5  A    between atoms: C_10  and  C_11 
REMARK    6  A    between atoms: N_12  and  C_13 
REMARK    7  A    between atoms: C_13  and  C_14 
REMARK    8  A    between atoms: C_14  and  C_15 
REMARK    9  A    between atoms: C_15  and  N_16 
REMARK   10  A    between atoms: C_20  and  C_21 
REMARK       I    between atoms: C_21  and  N_22 
REMARK   11  A    between atoms: N_28  and  C_29 
ROOT
HETATM    1  C   UNL     1      25.219  44.587  50.704  1.00  0.00     0.188 C 
HETATM    2  N   UNL     1      24.489  44.538  49.442  1.00  0.00    -0.344 N 
HETATM    3  C   UNL     1      24.648  43.283  48.821  1.00  0.00     0.184 C 
HETATM    4  S   UNL     1      23.608  42.710  47.641  1.00  0.00    -0.040 SA
HETATM    5  N   UNL     1      25.726  42.645  49.429  1.00  0.00    -0.257 N 
HETATM    6  C   UNL     1      26.104  43.357  50.552  1.00  0.00     0.254 C 
HETATM    7  O   UNL     1      26.953  43.076  51.393  1.00  0.00    -0.270 OA
ENDROOT
BRANCH   2   8
HETATM    8  C   UNL     1      23.549  45.609  49.088  1.00  0.00     0.128 C 
BRANCH   8   9
HETATM    9  C   UNL     1      24.032  46.999  49.538  1.00  0.00     0.048 C 
BRANCH   9  10
HETATM   10  C   UNL     1      23.365  48.143  48.767  1.00  0.00     0.236 C 
BRANCH  10  11
HETATM   11  N   UNL     1      22.221  48.761  49.561  1.00  0.00    -0.071 N 
HETATM   12  H   UNL     1      22.258  48.398  50.521  1.00  0.00     0.279 HD
HETATM   13  C   UNL     1      22.338  50.272  49.612  1.00  0.00     0.235 C 
HETATM   14  C   UNL     1      21.214  50.848  50.465  1.00  0.00     0.042 C 
HETATM   15  C   UNL     1      19.838  50.458  49.923  1.00  0.00     0.081 C 
HETATM   16  C   UNL     1      19.738  48.938  49.768  1.00  0.00     0.042 C 
HETATM   17  C   UNL     1      20.889  48.326  48.975  1.00  0.00     0.235 C 
BRANCH  15  18
HETATM   18  C   UNL     1      19.581  51.170  48.603  1.00  0.00     0.219 C 
HETATM   19  N   UNL     1      18.879  50.462  47.680  1.00  0.00    -0.370 N 
HETATM   20  H   UNL     1      18.833  49.451  47.690  1.00  0.00     0.159 HD
HETATM   21  H   UNL     1      18.754  50.901  46.772  1.00  0.00     0.159 HD
HETATM   22  O   UNL     1      19.883  52.341  48.410  1.00  0.00    -0.273 OA
ENDBRANCH  15  18
ENDBRANCH  10  11
ENDBRANCH   9  10
ENDBRANCH   8   9
ENDBRANCH   2   8
BRANCH   1  23
HETATM   23  C   UNL     1      24.313  44.386  51.912  1.00  0.00     0.138 C 
BRANCH  23  24
HETATM   24  C   UNL     1      25.047  44.613  53.219  1.00  0.00     0.224 C 
HETATM   25  N   UNL     1      26.204  45.349  53.079  1.00  0.00    -0.327 N 
HETATM   26  H   UNL     1      26.319  45.895  52.225  1.00  0.00     0.169 HD
HETATM   27  O   UNL     1      24.595  44.140  54.258  1.00  0.00    -0.273 OA
BRANCH  25  28
HETATM   28  C   UNL     1      27.253  45.488  54.007  1.00  0.00     0.034 A 
HETATM   29  C   UNL     1      28.215  44.511  54.254  1.00  0.00     0.032 A 
HETATM   30  C   UNL     1      29.275  44.776  55.131  1.00  0.00     0.039 A 
HETATM   31  C   UNL     1      29.388  46.012  55.769  1.00  0.00     0.068 A 
HETATM   32  C   UNL     1      28.414  46.981  55.543  1.00  0.00     0.039 A 
HETATM   33  C   UNL     1      27.356  46.721  54.665  1.00  0.00     0.032 A 
BRANCH  31  34
HETATM   34  O   UNL     1      30.485  46.150  56.573  1.00  0.00    -0.352 OA
BRANCH  34  35
HETATM   35  C   UNL     1      30.321  45.819  57.952  1.00  0.00     0.171 C 
HETATM   36  C   UNL     1      31.219  44.637  58.266  1.00  0.00     0.034 C 
ENDBRANCH  34  35
ENDBRANCH  31  34
ENDBRANCH  25  28
ENDBRANCH  23  24
ENDBRANCH   1  23
BRANCH   5  37
HETATM   37  C   UNL     1      26.404  41.460  48.999  1.00  0.00     0.045 A 
HETATM   38  C   UNL     1      27.332  41.494  47.943  1.00  0.00     0.032 A 
HETATM   39  C   UNL     1      27.967  40.329  47.488  1.00  0.00     0.026 A 
HETATM   40  C   UNL     1      27.682  39.107  48.082  1.00  0.00     0.034 A 
HETATM   41 CL   UNL     1      28.452  37.677  47.524  1.00  0.00    -0.084 Cl
HETATM   42  C   UNL     1      26.761  39.040  49.120  1.00  0.00     0.026 A 
HETATM   43  C   UNL     1      26.124  40.206  49.565  1.00  0.00     0.032 A 
ENDBRANCH   5  37
TORSDOF 11
ENDMDL
MODEL 5
REMARK VINA RESULT:      -8.4      3.860      7.679
REMARK  11 active torsions:
REMARK  status: ('A' for Active; 'I' for Inactive)
REMARK    1  A    between atoms: C_2  and  O_3 
REMARK    2  A    between atoms: O_3  and  C_4 
REMARK    3  A    between atoms: C_7  and  N_8 
REMARK       I    between atoms: N_8  and  C_9 
REMARK    4  A    between atoms: C_9  and  C_10 
REMARK    5  A    between atoms: C_10  and  C_11 
REMARK    6  A    between atoms: N_12  and  C_13 
REMARK    7  A    between atoms: C_13  and  C_14 
REMARK    8  A    between atoms: C_14  and  C_15 
REMARK    9  A    between atoms: C_15  and  N_16 
REMARK   10  A    between atoms: C_20  and  C_21 
REMARK       I    between atoms: C_21  and  N_22 
REMARK   11  A    between atoms: N_28  and  C_29 
ROOT
HETATM    1  C   UNL     1      26.689  41.468  49.280  1.00  0.00     0.188 C 
HETATM    2  N   UNL     1      25.460  41.440  48.494  1.00  0.00    -0.344 N 
HETATM    3  C   UNL     1      25.631  40.667  47.328  1.00  0.00     0.184 C 
HETATM    4  S   UNL     1      24.348  40.033  46.458  1.00  0.00    -0.040 SA
HETATM    5  N   UNL     1      26.998  40.492  47.134  1.00  0.00    -0.257 N 
HETATM    6  C   UNL     1      27.679  40.933  48.253  1.00  0.00     0.254 C 
HETATM    7  O   UNL     1      28.879  40.872  48.500  1.00  0.00    -0.270 OA
ENDROOT
BRANCH   2   8
HETATM    8  C   UNL     1      24.209  41.964  49.057  1.00  0.00     0.128 C 
BRANCH   8   9
HETATM    9  C   UNL     1      24.134  43.501  49.013  1.00  0.00     0.048 C 
BRANCH   9  10
HETATM   10  C   UNL     1      23.415  44.099  50.227  1.00  0.00     0.236 C 
BRANCH  10  11
HETATM   11  N   UNL     1      24.064  45.402  50.676  1.00  0.00    -0.071 N 
HETATM   12  H   UNL     1      23.509  45.793  51.447  1.00  0.00     0.279 HD
HETATM   13  C   UNL     1      25.479  45.172  51.169  1.00  0.00     0.235 C 
HETATM   14  C   UNL     1      26.072  46.485  51.666  1.00  0.00     0.042 C 
HETATM   15  C   UNL     1      26.077  47.553  50.571  1.00  0.00     0.081 C 
HETATM   16  C   UNL     1      24.670  47.726  49.990  1.00  0.00     0.042 C 
HETATM   17  C   UNL     1      24.026  46.417  49.546  1.00  0.00     0.235 C 
BRANCH  15  18
HETATM   18  C   UNL     1      27.083  47.183  49.492  1.00  0.00     0.219 C 
HETATM   19  N   UNL     1      27.654  48.228  48.837  1.00  0.00    -0.370 N 
HETATM   20  H   UNL     1      27.221  49.142  48.789  1.00  0.00     0.159 HD
HETATM   21  H   UNL     1      28.281  47.996  48.072  1.00  0.00     0.159 HD
HETATM   22  O   UNL     1      27.447  46.032  49.290  1.00  0.00    -0.273 OA
ENDBRANCH  15  18
ENDBRANCH  10  11
ENDBRANCH   9  10
ENDBRANCH   8   9
ENDBRANCH   2   8
BRANCH   1  23
HETATM   23  C   UNL     1      26.650  40.507  50.462  1.00  0.00     0.138 C 
BRANCH  23  24
HETATM   24  C   UNL     1      27.659  40.877  51.531  1.00  0.00     0.224 C 
HETATM   25  N   UNL     1      27.296  41.980  52.272  1.00  0.00    -0.327 N 
HETATM   26  H   UNL     1      26.317  42.266  52.248  1.00  0.00     0.169 HD
HETATM   27  O   UNL     1      28.686  40.214  51.650  1.00  0.00    -0.273 OA
BRANCH  25  28
HETATM   28  C   UNL     1      28.111  42.754  53.120  1.00  0.00     0.034 A 
HETATM   29  C   UNL     1      27.645  43.802  53.910  1.00  0.00     0.032 A 
HETATM   30  C   UNL     1      28.516  44.457  54.792  1.00  0.00     0.039 A 
HETATM   31  C   UNL     1      29.855  44.075  54.895  1.00  0.00     0.068 A 
HETATM   32  C   UNL     1      30.328  43.044  54.087  1.00  0.00     0.039 A 
HETATM   33  C   UNL     1      29.460  42.386  53.210  1.00  0.00     0.032 A 
BRANCH  31  34
HETATM   34  O   UNL     1      30.586  44.774  55.814  1.00  0.00    -0.352 OA
BRANCH  34  35
HETATM   35  C   UNL     1      30.698  44.206  57.119  1.00  0.00     0.171 C 
HETATM   36  C   UNL     1      31.981  43.398  57.177  1.00  0.00     0.034 C 
ENDBRANCH  34  35
ENDBRANCH  31  34
ENDBRANCH  25  28
ENDBRANCH  23  24
ENDBRANCH   1  23
BRANCH   5  37
HETATM   37  C   UNL     1      27.664  39.975  45.977  1.00  0.00     0.045 A 
HETATM   38  C   UNL     1      28.073  40.822  44.932  1.00  0.00     0.032 A 
HETATM   39  C   UNL     1      28.686  40.317  43.777  1.00  0.00     0.026 A 
HETATM   40  C   UNL     1      28.898  38.951  43.645  1.00  0.00     0.034 A 
HETATM   41 CL   UNL     1      29.643  38.327  42.229  1.00  0.00    -0.084 Cl
HETATM   42  C   UNL     1      28.495  38.087  44.655  1.00  0.00     0.026 A 
HETATM   43  C   UNL     1      27.876  38.597  45.804  1.00  0.00     0.032 A 
ENDBRANCH   5  37
TORSDOF 11
ENDMDL
MODEL 6
REMARK VINA RESULT:      -8.4      4.423     10.637
REMARK  11 active torsions:
REMARK  status: ('A' for Active; 'I' for Inactive)
REMARK    1  A    between atoms: C_2  and  O_3 
REMARK    2  A    between atoms: O_3  and  C_4 
REMARK    3  A    between atoms: C_7  and  N_8 
REMARK       I    between atoms: N_8  and  C_9 
REMARK    4  A    between atoms: C_9  and  C_10 
REMARK    5  A    between atoms: C_10  and  C_11 
REMARK    6  A    between atoms: N_12  and  C_13 
REMARK    7  A    between atoms: C_13  and  C_14 
REMARK    8  A    between atoms: C_14  and  C_15 
REMARK    9  A    between atoms: C_15  and  N_16 
REMARK   10  A    between atoms: C_20  and  C_21 
REMARK       I    between atoms: C_21  and  N_22 
REMARK   11  A    between atoms: N_28  and  C_29 
ROOT
HETATM    1  C   UNL     1      23.721  45.292  50.284  1.00  0.00     0.188 C 
HETATM    2  N   UNL     1      24.312  46.591  49.981  1.00  0.00    -0.344 N 
HETATM    3  C   UNL     1      25.518  46.767  50.687  1.00  0.00     0.184 C 
HETATM    4  S   UNL     1      26.680  47.888  50.243  1.00  0.00    -0.040 SA
HETATM    5  N   UNL     1      25.558  45.814  51.700  1.00  0.00    -0.257 N 
HETATM    6  C   UNL     1      24.531  44.907  51.515  1.00  0.00     0.254 C 
HETATM    7  O   UNL     1      24.284  43.883  52.144  1.00  0.00    -0.270 OA
ENDROOT
BRANCH   2   8
HETATM    8  C   UNL     1      23.776  47.412  48.887  1.00  0.00     0.128 C 
BRANCH   8   9
HETATM    9  C   UNL     1      23.141  48.723  49.384  1.00  0.00     0.048 C 
BRANCH   9  10
HETATM   10  C   UNL     1      22.613  49.602  48.245  1.00  0.00     0.236 C 
BRANCH  10  11
HETATM   11  N   UNL     1      21.175  50.037  48.492  1.00  0.00    -0.071 N 
HETATM   12  H   UNL     1      20.937  50.775  47.818  1.00  0.00     0.279 HD
HETATM   13  C   UNL     1      20.209  48.883  48.303  1.00  0.00     0.235 C 
HETATM   14  C   UNL     1      18.779  49.371  48.498  1.00  0.00     0.042 C 
HETATM   15  C   UNL     1      18.576  49.988  49.883  1.00  0.00     0.081 C 
HETATM   16  C   UNL     1      19.611  51.089  50.131  1.00  0.00     0.042 C 
HETATM   17  C   UNL     1      21.049  50.647  49.878  1.00  0.00     0.235 C 
BRANCH  15  18
HETATM   18  C   UNL     1      18.650  48.904  50.948  1.00  0.00     0.219 C 
HETATM   19  N   UNL     1      18.796  47.634  50.486  1.00  0.00    -0.370 N 
HETATM   20  H   UNL     1      18.524  47.362  49.550  1.00  0.00     0.159 HD
HETATM   21  H   UNL     1      18.783  46.894  51.183  1.00  0.00     0.159 HD
HETATM   22  O   UNL     1      18.687  49.152  52.147  1.00  0.00    -0.273 OA
ENDBRANCH  15  18
ENDBRANCH  10  11
ENDBRANCH   9  10
ENDBRANCH   8   9
ENDBRANCH   2   8
BRANCH   1  23
HETATM   23  C   UNL     1      23.979  44.263  49.191  1.00  0.00     0.138 C 
BRANCH  23  24
HETATM   24  C   UNL     1      22.691  43.700  48.622  1.00  0.00     0.224 C 
HETATM   25  N   UNL     1      22.060  44.552  47.744  1.00  0.00    -0.327 N 
HETATM   26  H   UNL     1      22.608  45.314  47.344  1.00  0.00     0.169 HD
HETATM   27  O   UNL     1      22.309  42.587  48.974  1.00  0.00    -0.273 OA
BRANCH  25  28
HETATM   28  C   UNL     1      20.734  44.478  47.275  1.00  0.00     0.034 A 
HETATM   29  C   UNL     1      19.660  45.149  47.854  1.00  0.00     0.032 A 
HETATM   30  C   UNL     1      18.392  45.087  47.262  1.00  0.00     0.039 A 
HETATM   31  C   UNL     1      18.181  44.357  46.090  1.00  0.00     0.068 A 
HETATM   32  C   UNL     1      19.248  43.664  45.524  1.00  0.00     0.039 A 
HETATM   33  C   UNL     1      20.516  43.729  46.111  1.00  0.00     0.032 A 
BRANCH  31  34
HETATM   34  O   UNL     1      16.905  44.404  45.601  1.00  0.00    -0.352 OA
BRANCH  34  35
HETATM   35  C   UNL     1      16.727  45.000  44.316  1.00  0.00     0.171 C 
HETATM   36  C   UNL     1      16.017  43.998  43.423  1.00  0.00     0.034 C 
ENDBRANCH  34  35
ENDBRANCH  31  34
ENDBRANCH  25  28
ENDBRANCH  23  24
ENDBRANCH   1  23
BRANCH   5  37
HETATM   37  C   UNL     1      26.465  45.740  52.805  1.00  0.00     0.045 A 
HETATM   38  C   UNL     1      26.528  46.764  53.766  1.00  0.00     0.032 A 
HETATM   39  C   UNL     1      27.445  46.719  54.826  1.00  0.00     0.026 A 
HETATM   40  C   UNL     1      28.319  45.647  54.941  1.00  0.00     0.034 A 
HETATM   41 CL   UNL     1      29.449  45.590  56.234  1.00  0.00    -0.084 Cl
HETATM   42  C   UNL     1      28.289  44.625  54.001  1.00  0.00     0.026 A 
HETATM   43  C   UNL     1      27.376  44.679  52.939  1.00  0.00     0.032 A 
ENDBRANCH   5  37
TORSDOF 11
ENDMDL
MODEL 7
REMARK VINA RESULT:      -8.2      1.612      2.238
REMARK  11 active torsions:
REMARK  status: ('A' for Active; 'I' for Inactive)
REMARK    1  A    between atoms: C_2  and  O_3 
REMARK    2  A    between atoms: O_3  and  C_4 
REMARK    3  A    between atoms: C_7  and  N_8 
REMARK       I    between atoms: N_8  and  C_9 
REMARK    4  A    between atoms: C_9  and  C_10 
REMARK    5  A    between atoms: C_10  and  C_11 
REMARK    6  A    between atoms: N_12  and  C_13 
REMARK    7  A    between atoms: C_13  and  C_14 
REMARK    8  A    between atoms: C_14  and  C_15 
REMARK    9  A    between atoms: C_15  and  N_16 
REMARK   10  A    between atoms: C_20  and  C_21 
REMARK       I    between atoms: C_21  and  N_22 
REMARK   11  A    between atoms: N_28  and  C_29 
ROOT
HETATM    1  C   UNL     1      24.124  45.533  49.980  1.00  0.00     0.188 C 
HETATM    2  N   UNL     1      22.941  44.876  49.435  1.00  0.00    -0.344 N 
HETATM    3  C   UNL     1      22.128  45.801  48.749  1.00  0.00     0.184 C 
HETATM    4  S   UNL     1      20.976  45.343  47.624  1.00  0.00    -0.040 SA
HETATM    5  N   UNL     1      22.533  47.079  49.125  1.00  0.00    -0.257 N 
HETATM    6  C   UNL     1      23.711  46.993  49.844  1.00  0.00     0.254 C 
HETATM    7  O   UNL     1      24.419  47.897  50.274  1.00  0.00    -0.270 OA
ENDROOT
BRANCH   2   8
HETATM    8  C   UNL     1      22.838  43.412  49.440  1.00  0.00     0.128 C 
BRANCH   8   9
HETATM    9  C   UNL     1      23.277  42.780  48.107  1.00  0.00     0.048 C 
BRANCH   9  10
HETATM   10  C   UNL     1      22.837  41.319  47.963  1.00  0.00     0.236 C 
BRANCH  10  11
HETATM   11  N   UNL     1      24.032  40.375  47.918  1.00  0.00    -0.071 N 
HETATM   12  H   UNL     1      23.704  39.425  48.130  1.00  0.00     0.279 HD
HETATM   13  C   UNL     1      24.678  40.368  46.547  1.00  0.00     0.235 C 
HETATM   14  C   UNL     1      25.829  39.369  46.524  1.00  0.00     0.042 C 
HETATM   15  C   UNL     1      26.881  39.695  47.585  1.00  0.00     0.081 C 
HETATM   16  C   UNL     1      26.227  39.807  48.966  1.00  0.00     0.042 C 
HETATM   17  C   UNL     1      25.029  40.750  49.001  1.00  0.00     0.235 C 
BRANCH  15  18
HETATM   18  C   UNL     1      27.614  40.974  47.211  1.00  0.00     0.219 C 
HETATM   19  N   UNL     1      27.950  41.097  45.901  1.00  0.00    -0.370 N 
HETATM   20  H   UNL     1      28.046  40.298  45.286  1.00  0.00     0.159 HD
HETATM   21  H   UNL     1      28.495  41.917  45.647  1.00  0.00     0.159 HD
HETATM   22  O   UNL     1      27.799  41.890  48.003  1.00  0.00    -0.273 OA
ENDBRANCH  15  18
ENDBRANCH  10  11
ENDBRANCH   9  10
ENDBRANCH   8   9
ENDBRANCH   2   8
BRANCH   1  23
HETATM   23  C   UNL     1      25.366  45.299  49.130  1.00  0.00     0.138 C 
BRANCH  23  24
HETATM   24  C   UNL     1      26.619  45.169  49.975  1.00  0.00     0.224 C 
HETATM   25  N   UNL     1      26.402  44.548  51.186  1.00  0.00    -0.327 N 
HETATM   26  H   UNL     1      25.548  44.000  51.293  1.00  0.00     0.169 HD
HETATM   27  O   UNL     1      27.683  45.613  49.554  1.00  0.00    -0.273 OA
BRANCH  25  28
HETATM   28  C   UNL     1      27.253  44.528  52.307  1.00  0.00     0.034 A 
HETATM   29  C   UNL     1      27.063  45.306  53.447  1.00  0.00     0.032 A 
HETATM   30  C   UNL     1      27.912  45.151  54.551  1.00  0.00     0.039 A 
HETATM   31  C   UNL     1      28.956  44.224  54.531  1.00  0.00     0.068 A 
HETATM   32  C   UNL     1      29.163  43.464  53.383  1.00  0.00     0.039 A 
HETATM   33  C   UNL     1      28.314  43.613  52.281  1.00  0.00     0.032 A 
BRANCH  31  34
HETATM   34  O   UNL     1      29.688  44.152  55.683  1.00  0.00    -0.352 OA
BRANCH  34  35
HETATM   35  C   UNL     1      31.022  43.654  55.571  1.00  0.00     0.171 C 
HETATM   36  C   UNL     1      31.534  43.353  56.968  1.00  0.00     0.034 C 
ENDBRANCH  34  35
ENDBRANCH  31  34
ENDBRANCH  25  28
ENDBRANCH  23  24
ENDBRANCH   1  23
BRANCH   5  37
HETATM   37  C   UNL     1      21.871  48.322  48.870  1.00  0.00     0.045 A 
HETATM   38  C   UNL     1      22.486  49.334  48.112  1.00  0.00     0.032 A 
HETATM   39  C   UNL     1      21.861  50.570  47.895  1.00  0.00     0.026 A 
HETATM   40  C   UNL     1      20.607  50.818  48.437  1.00  0.00     0.034 A 
HETATM   41 CL   UNL     1      19.840  52.333  48.181  1.00  0.00    -0.084 Cl
HETATM   42  C   UNL     1      19.978  49.842  49.201  1.00  0.00     0.026 A 
HETATM   43  C   UNL     1      20.611  48.611  49.420  1.00  0.00     0.032 A 
ENDBRANCH   5  37
TORSDOF 11
ENDMDL
MODEL 8
REMARK VINA RESULT:      -8.1     12.958     15.923
REMARK  11 active torsions:
REMARK  status: ('A' for Active; 'I' for Inactive)
REMARK    1  A    between atoms: C_2  and  O_3 
REMARK    2  A    between atoms: O_3  and  C_4 
REMARK    3  A    between atoms: C_7  and  N_8 
REMARK       I    between atoms: N_8  and  C_9 
REMARK    4  A    between atoms: C_9  and  C_10 
REMARK    5  A    between atoms: C_10  and  C_11 
REMARK    6  A    between atoms: N_12  and  C_13 
REMARK    7  A    between atoms: C_13  and  C_14 
REMARK    8  A    between atoms: C_14  and  C_15 
REMARK    9  A    between atoms: C_15  and  N_16 
REMARK   10  A    between atoms: C_20  and  C_21 
REMARK       I    between atoms: C_21  and  N_22 
REMARK   11  A    between atoms: N_28  and  C_29 
ROOT
HETATM    1  C   UNL     1      34.188  51.400  41.940  1.00  0.00     0.188 C 
HETATM    2  N   UNL     1      35.162  51.681  40.892  1.00  0.00    -0.344 N 
HETATM    3  C   UNL     1      36.434  51.931  41.446  1.00  0.00     0.184 C 
HETATM    4  S   UNL     1      37.852  51.820  40.563  1.00  0.00    -0.040 SA
HETATM    5  N   UNL     1      36.261  52.181  42.805  1.00  0.00    -0.257 N 
HETATM    6  C   UNL     1      34.961  51.877  43.163  1.00  0.00     0.254 C 
HETATM    7  O   UNL     1      34.446  51.886  44.277  1.00  0.00    -0.270 OA
ENDROOT
BRANCH   2   8
HETATM    8  C   UNL     1      34.819  51.458  39.482  1.00  0.00     0.128 C 
BRANCH   8   9
HETATM    9  C   UNL     1      33.555  52.222  39.049  1.00  0.00     0.048 C 
BRANCH   9  10
HETATM   10  C   UNL     1      32.348  51.304  38.826  1.00  0.00     0.236 C 
BRANCH  10  11
HETATM   11  N   UNL     1      31.039  52.084  38.852  1.00  0.00    -0.071 N 
HETATM   12  H   UNL     1      31.064  52.788  38.104  1.00  0.00     0.279 HD
HETATM   13  C   UNL     1      29.850  51.173  38.618  1.00  0.00     0.235 C 
HETATM   14  C   UNL     1      28.568  51.997  38.589  1.00  0.00     0.042 C 
HETATM   15  C   UNL     1      28.369  52.776  39.890  1.00  0.00     0.081 C 
HETATM   16  C   UNL     1      29.606  53.625  40.196  1.00  0.00     0.042 C 
HETATM   17  C   UNL     1      30.912  52.839  40.164  1.00  0.00     0.235 C 
BRANCH  15  18
HETATM   18  C   UNL     1      28.058  51.814  41.027  1.00  0.00     0.219 C 
HETATM   19  N   UNL     1      26.904  51.109  40.903  1.00  0.00    -0.370 N 
HETATM   20  H   UNL     1      26.135  51.422  40.323  1.00  0.00     0.159 HD
HETATM   21  H   UNL     1      26.652  50.509  41.684  1.00  0.00     0.159 HD
HETATM   22  O   UNL     1      28.839  51.597  41.946  1.00  0.00    -0.273 OA
ENDBRANCH  15  18
ENDBRANCH  10  11
ENDBRANCH   9  10
ENDBRANCH   8   9
ENDBRANCH   2   8
BRANCH   1  23
HETATM   23  C   UNL     1      33.908  49.910  42.095  1.00  0.00     0.138 C 
BRANCH  23  24
HETATM   24  C   UNL     1      32.430  49.593  41.978  1.00  0.00     0.224 C 
HETATM   25  N   UNL     1      32.160  48.532  41.142  1.00  0.00    -0.327 N 
HETATM   26  H   UNL     1      32.927  47.901  40.913  1.00  0.00     0.169 HD
HETATM   27  O   UNL     1      31.614  50.274  42.594  1.00  0.00    -0.273 OA
BRANCH  25  28
HETATM   28  C   UNL     1      30.918  48.168  40.588  1.00  0.00     0.034 A 
HETATM   29  C   UNL     1      29.710  48.205  41.280  1.00  0.00     0.032 A 
HETATM   30  C   UNL     1      28.511  47.911  40.617  1.00  0.00     0.039 A 
HETATM   31  C   UNL     1      28.503  47.577  39.261  1.00  0.00     0.068 A 
HETATM   32  C   UNL     1      29.713  47.514  38.574  1.00  0.00     0.039 A 
HETATM   33  C   UNL     1      30.910  47.812  39.233  1.00  0.00     0.032 A 
BRANCH  31  34
HETATM   34  O   UNL     1      27.266  47.344  38.730  1.00  0.00    -0.352 OA
BRANCH  34  35
HETATM   35  C   UNL     1      26.496  48.487  38.356  1.00  0.00     0.171 C 
HETATM   36  C   UNL     1      25.153  48.405  39.057  1.00  0.00     0.034 C 
ENDBRANCH  34  35
ENDBRANCH  31  34
ENDBRANCH  25  28
ENDBRANCH  23  24
ENDBRANCH   1  23
BRANCH   5  37
HETATM   37  C   UNL     1      37.219  52.700  43.733  1.00  0.00     0.045 A 
HETATM   38  C   UNL     1      37.345  54.082  43.955  1.00  0.00     0.032 A 
HETATM   39  C   UNL     1      38.311  54.599  44.830  1.00  0.00     0.026 A 
HETATM   40  C   UNL     1      39.172  53.739  45.499  1.00  0.00     0.034 A 
HETATM   41 CL   UNL     1      40.361  54.367  46.568  1.00  0.00    -0.084 Cl
HETATM   42  C   UNL     1      39.079  52.368  45.292  1.00  0.00     0.026 A 
HETATM   43  C   UNL     1      38.117  51.858  44.411  1.00  0.00     0.032 A 
ENDBRANCH   5  37
TORSDOF 11
ENDMDL
MODEL 9
REMARK VINA RESULT:      -8.0      3.452      8.378
REMARK  11 active torsions:
REMARK  status: ('A' for Active; 'I' for Inactive)
REMARK    1  A    between atoms: C_2  and  O_3 
REMARK    2  A    between atoms: O_3  and  C_4 
REMARK    3  A    between atoms: C_7  and  N_8 
REMARK       I    between atoms: N_8  and  C_9 
REMARK    4  A    between atoms: C_9  and  C_10 
REMARK    5  A    between atoms: C_10  and  C_11 
REMARK    6  A    between atoms: N_12  and  C_13 
REMARK    7  A    between atoms: C_13  and  C_14 
REMARK    8  A    between atoms: C_14  and  C_15 
REMARK    9  A    between atoms: C_15  and  N_16 
REMARK   10  A    between atoms: C_20  and  C_21 
REMARK       I    between atoms: C_21  and  N_22 
REMARK   11  A    between atoms: N_28  and  C_29 
ROOT
HETATM    1  C   UNL     1      25.657  44.386  49.671  1.00  0.00     0.188 C 
HETATM    2  N   UNL     1      25.898  42.955  49.531  1.00  0.00    -0.344 N 
HETATM    3  C   UNL     1      26.539  42.442  50.676  1.00  0.00     0.184 C 
HETATM    4  S   UNL     1      26.543  40.813  51.068  1.00  0.00    -0.040 SA
HETATM    5  N   UNL     1      27.050  43.520  51.393  1.00  0.00    -0.257 N 
HETATM    6  C   UNL     1      26.559  44.697  50.859  1.00  0.00     0.254 C 
HETATM    7  O   UNL     1      26.709  45.847  51.260  1.00  0.00    -0.270 OA
ENDROOT
BRANCH   2   8
HETATM    8  C   UNL     1      25.289  42.206  48.424  1.00  0.00     0.128 C 
BRANCH   8   9
HETATM    9  C   UNL     1      26.331  41.489  47.546  1.00  0.00     0.048 C 
BRANCH   9  10
HETATM   10  C   UNL     1      25.702  40.494  46.564  1.00  0.00     0.236 C 
BRANCH  10  11
HETATM   11  N   UNL     1      26.351  39.120  46.668  1.00  0.00    -0.071 N 
HETATM   12  H   UNL     1      25.972  38.524  45.921  1.00  0.00     0.279 HD
HETATM   13  C   UNL     1      27.855  39.205  46.500  1.00  0.00     0.235 C 
HETATM   14  C   UNL     1      28.459  37.806  46.547  1.00  0.00     0.042 C 
HETATM   15  C   UNL     1      28.129  37.093  47.859  1.00  0.00     0.081 C 
HETATM   16  C   UNL     1      26.616  37.088  48.096  1.00  0.00     0.042 C 
HETATM   17  C   UNL     1      25.974  38.467  47.987  1.00  0.00     0.235 C 
BRANCH  15  18
HETATM   18  C   UNL     1      28.870  37.758  49.010  1.00  0.00     0.219 C 
HETATM   19  N   UNL     1      28.292  37.632  50.233  1.00  0.00    -0.370 N 
HETATM   20  H   UNL     1      27.304  37.442  50.351  1.00  0.00     0.159 HD
HETATM   21  H   UNL     1      28.742  38.122  51.000  1.00  0.00     0.159 HD
HETATM   22  O   UNL     1      29.970  38.280  48.879  1.00  0.00    -0.273 OA
ENDBRANCH  15  18
ENDBRANCH  10  11
ENDBRANCH   9  10
ENDBRANCH   8   9
ENDBRANCH   2   8
BRANCH   1  23
HETATM   23  C   UNL     1      24.218  44.703  50.059  1.00  0.00     0.138 C 
BRANCH  23  24
HETATM   24  C   UNL     1      23.526  45.566  49.022  1.00  0.00     0.224 C 
HETATM   25  N   UNL     1      23.344  46.870  49.425  1.00  0.00    -0.327 N 
HETATM   26  H   UNL     1      23.906  47.209  50.207  1.00  0.00     0.169 HD
HETATM   27  O   UNL     1      23.179  45.069  47.954  1.00  0.00    -0.273 OA
BRANCH  25  28
HETATM   28  C   UNL     1      22.498  47.839  48.852  1.00  0.00     0.034 A 
HETATM   29  C   UNL     1      21.106  47.777  48.879  1.00  0.00     0.032 A 
HETATM   30  C   UNL     1      20.347  48.834  48.361  1.00  0.00     0.039 A 
HETATM   31  C   UNL     1      20.963  49.961  47.814  1.00  0.00     0.068 A 
HETATM   32  C   UNL     1      22.354  50.013  47.763  1.00  0.00     0.039 A 
HETATM   33  C   UNL     1      23.114  48.961  48.283  1.00  0.00     0.032 A 
BRANCH  31  34
HETATM   34  O   UNL     1      20.108  50.932  47.373  1.00  0.00    -0.352 OA
BRANCH  34  35
HETATM   35  C   UNL     1      18.851  51.038  48.042  1.00  0.00     0.171 C 
HETATM   36  C   UNL     1      18.856  52.314  48.863  1.00  0.00     0.034 C 
ENDBRANCH  34  35
ENDBRANCH  31  34
ENDBRANCH  25  28
ENDBRANCH  23  24
ENDBRANCH   1  23
BRANCH   5  37
HETATM   37  C   UNL     1      27.963  43.492  52.495  1.00  0.00     0.045 A 
HETATM   38  C   UNL     1      27.633  44.076  53.731  1.00  0.00     0.032 A 
HETATM   39  C   UNL     1      28.540  44.090  54.800  1.00  0.00     0.026 A 
HETATM   40  C   UNL     1      29.797  43.520  54.650  1.00  0.00     0.034 A 
HETATM   41 CL   UNL     1      30.914  43.540  55.955  1.00  0.00    -0.084 Cl
HETATM   42  C   UNL     1      30.157  42.945  53.438  1.00  0.00     0.026 A 
HETATM   43  C   UNL     1      29.249  42.940  52.370  1.00  0.00     0.032 A 
ENDBRANCH   5  37
TORSDOF 11
ENDMDL
MODEL 10
REMARK VINA RESULT:      -8.0      4.457     11.276
REMARK  11 active torsions:
REMARK  status: ('A' for Active; 'I' for Inactive)
REMARK    1  A    between atoms: C_2  and  O_3 
REMARK    2  A    between atoms: O_3  and  C_4 
REMARK    3  A    between atoms: C_7  and  N_8 
REMARK       I    between atoms: N_8  and  C_9 
REMARK    4  A    between atoms: C_9  and  C_10 
REMARK    5  A    between atoms: C_10  and  C_11 
REMARK    6  A    between atoms: N_12  and  C_13 
REMARK    7  A    between atoms: C_13  and  C_14 
REMARK    8  A    between atoms: C_14  and  C_15 
REMARK    9  A    between atoms: C_15  and  N_16 
REMARK   10  A    between atoms: C_20  and  C_21 
REMARK       I    between atoms: C_21  and  N_22 
REMARK   11  A    between atoms: N_28  and  C_29 
ROOT
HETATM    1  C   UNL     1      23.456  45.629  49.680  1.00  0.00     0.188 C 
HETATM    2  N   UNL     1      24.227  46.863  49.584  1.00  0.00    -0.344 N 
HETATM    3  C   UNL     1      25.505  46.699  50.154  1.00  0.00     0.184 C 
HETATM    4  S   UNL     1      26.794  47.713  49.812  1.00  0.00    -0.040 SA
HETATM    5  N   UNL     1      25.477  45.545  50.931  1.00  0.00    -0.257 N 
HETATM    6  C   UNL     1      24.300  44.861  50.690  1.00  0.00     0.254 C 
HETATM    7  O   UNL     1      23.942  43.767  51.116  1.00  0.00    -0.270 OA
ENDROOT
BRANCH   2   8
HETATM    8  C   UNL     1      23.739  47.980  48.765  1.00  0.00     0.128 C 
BRANCH   8   9
HETATM    9  C   UNL     1      22.323  48.436  49.162  1.00  0.00     0.048 C 
BRANCH   9  10
HETATM   10  C   UNL     1      22.073  49.922  48.884  1.00  0.00     0.236 C 
BRANCH  10  11
HETATM   11  N   UNL     1      20.794  50.409  49.551  1.00  0.00    -0.071 N 
HETATM   12  H   UNL     1      21.028  50.757  50.489  1.00  0.00     0.279 HD
HETATM   13  C   UNL     1      20.155  51.537  48.764  1.00  0.00     0.235 C 
HETATM   14  C   UNL     1      18.915  52.037  49.494  1.00  0.00     0.042 C 
HETATM   15  C   UNL     1      17.894  50.918  49.706  1.00  0.00     0.081 C 
HETATM   16  C   UNL     1      18.550  49.727  50.411  1.00  0.00     0.042 C 
HETATM   17  C   UNL     1      19.833  49.248  49.739  1.00  0.00     0.235 C 
BRANCH  15  18
HETATM   18  C   UNL     1      17.288  50.511  48.372  1.00  0.00     0.219 C 
HETATM   19  N   UNL     1      16.573  49.355  48.379  1.00  0.00    -0.370 N 
HETATM   20  H   UNL     1      16.710  48.635  49.078  1.00  0.00     0.159 HD
HETATM   21  H   UNL     1      16.215  49.038  47.483  1.00  0.00     0.159 HD
HETATM   22  O   UNL     1      17.338  51.220  47.375  1.00  0.00    -0.273 OA
ENDBRANCH  15  18
ENDBRANCH  10  11
ENDBRANCH   9  10
ENDBRANCH   8   9
ENDBRANCH   2   8
BRANCH   1  23
HETATM   23  C   UNL     1      23.437  44.848  48.372  1.00  0.00     0.138 C 
BRANCH  23  24
HETATM   24  C   UNL     1      22.087  44.919  47.686  1.00  0.00     0.224 C 
HETATM   25  N   UNL     1      22.067  45.763  46.597  1.00  0.00    -0.327 N 
HETATM   26  H   UNL     1      22.962  46.029  46.186  1.00  0.00     0.169 HD
HETATM   27  O   UNL     1      21.146  44.265  48.130  1.00  0.00    -0.273 OA
BRANCH  25  28
HETATM   28  C   UNL     1      20.940  46.281  45.930  1.00  0.00     0.034 A 
HETATM   29  C   UNL     1      20.574  45.937  44.631  1.00  0.00     0.032 A 
HETATM   30  C   UNL     1      19.384  46.434  44.083  1.00  0.00     0.039 A 
HETATM   31  C   UNL     1      18.550  47.278  44.820  1.00  0.00     0.068 A 
HETATM   32  C   UNL     1      18.929  47.644  46.109  1.00  0.00     0.039 A 
HETATM   33  C   UNL     1      20.113  47.144  46.660  1.00  0.00     0.032 A 
BRANCH  31  34
HETATM   34  O   UNL     1      17.408  47.666  44.179  1.00  0.00    -0.352 OA
BRANCH  34  35
HETATM   35  C   UNL     1      16.169  47.276  44.771  1.00  0.00     0.171 C 
HETATM   36  C   UNL     1      15.818  45.888  44.267  1.00  0.00     0.034 C 
ENDBRANCH  34  35
ENDBRANCH  31  34
ENDBRANCH  25  28
ENDBRANCH  23  24
ENDBRANCH   1  23
BRANCH   5  37
HETATM   37  C   UNL     1      26.456  45.092  51.872  1.00  0.00     0.045 A 
HETATM   38  C   UNL     1      26.508  45.613  53.177  1.00  0.00     0.032 A 
HETATM   39  C   UNL     1      27.492  45.206  54.089  1.00  0.00     0.026 A 
HETATM   40  C   UNL     1      28.445  44.270  53.710  1.00  0.00     0.034 A 
HETATM   41 CL   UNL     1      29.656  43.773  54.822  1.00  0.00    -0.084 Cl
HETATM   42  C   UNL     1      28.427  43.746  52.424  1.00  0.00     0.026 A 
HETATM   43  C   UNL     1      27.445  44.162  51.514  1.00  0.00     0.032 A 
ENDBRANCH   5  37
TORSDOF 11
ENDMDL
