MODEL 1
REMARK VINA RESULT:      -9.0      0.000      0.000
REMARK  5 active torsions:
REMARK  status: ('A' for Active; 'I' for Inactive)
REMARK    1  A    between atoms: C_4  and  C_5 
REMARK    2  A    between atoms: C_5  and  N_6 
REMARK       I    between atoms: N_6  and  C_7 
REMARK    3  A    between atoms: C_7  and  C_8 
REMARK    4  A    between atoms: C_11  and  N_12 
REMARK       I    between atoms: N_12  and  C_13 
REMARK       I    between atoms: C_13  and  N_14 
REMARK    5  A    between atoms: N_14  and  C_15 
ROOT
HETATM    1  C   UNL     1      26.882  44.804  52.017  1.00  0.00     0.032 A 
HETATM    2  C   UNL     1      26.732  44.706  50.630  1.00  0.00     0.019 A 
HETATM    3  C   UNL     1      25.938  45.633  49.941  1.00  0.00     0.030 A 
HETATM    4  C   UNL     1      25.281  46.658  50.628  1.00  0.00     0.036 A 
HETATM    5  C   UNL     1      25.474  46.779  52.009  1.00  0.00     0.030 A 
HETATM    6  C   UNL     1      26.270  45.861  52.699  1.00  0.00     0.019 A 
ENDROOT
BRANCH   4   7
HETATM    7  N   UNL     1      24.423  47.595  50.016  1.00  0.00    -0.309 N 
HETATM    8  C   UNL     1      24.772  48.667  49.240  1.00  0.00     0.325 C 
HETATM    9  N   UNL     1      23.744  49.447  48.777  1.00  0.00    -0.306 N 
HETATM   10  O   UNL     1      25.911  48.945  48.871  1.00  0.00    -0.247 OA
HETATM   11  H   UNL     1      24.041  50.086  48.050  1.00  0.00     0.171 HD
HETATM   12  H   UNL     1      23.456  47.317  49.946  1.00  0.00     0.170 HD
BRANCH   9  13
HETATM   13  C   UNL     1      22.434  49.550  49.199  1.00  0.00     0.072 A 
HETATM   14  C   UNL     1      21.297  48.730  49.023  1.00  0.00     0.169 A 
HETATM   15  N   UNL     1      20.206  49.234  49.606  1.00  0.00    -0.185 NA
HETATM   16  N   UNL     1      20.652  50.353  50.197  1.00  0.00    -0.287 N 
HETATM   17  H   UNL     1      19.992  50.916  50.725  1.00  0.00     0.188 HD
HETATM   18  C   UNL     1      21.983  50.576  49.997  1.00  0.00     0.140 A 
ENDBRANCH   9  13
ENDBRANCH   4   7
BRANCH   1  19
HETATM   19  C   UNL     1      27.657  43.814  52.814  1.00  0.00     0.251 C 
HETATM   20  N   UNL     1      28.783  44.285  53.449  1.00  0.00    -0.353 N 
HETATM   21  H   UNL     1      29.054  45.254  53.377  1.00  0.00     0.163 HD
HETATM   22  O   UNL     1      27.316  42.637  52.831  1.00  0.00    -0.268 OA
BRANCH  20  23
HETATM   23  C   UNL     1      29.675  43.376  54.135  1.00  0.00     0.161 C 
BRANCH  23  24
HETATM   24  C   UNL     1      30.161  43.936  55.449  1.00  0.00    -0.041 A 
HETATM   25  C   UNL     1      29.636  45.140  55.941  1.00  0.00     0.009 A 
HETATM   26  C   UNL     1      30.052  45.645  57.175  1.00  0.00     0.001 A 
HETATM   27  C   UNL     1      30.995  44.952  57.932  1.00  0.00     0.000 A 
HETATM   28  C   UNL     1      31.516  43.749  57.461  1.00  0.00     0.001 A 
HETATM   29  C   UNL     1      31.094  43.238  56.232  1.00  0.00     0.009 A 
ENDBRANCH  23  24
ENDBRANCH  20  23
ENDBRANCH   1  19
TORSDOF 5
ENDMDL
MODEL 2
REMARK VINA RESULT:      -8.7      2.773     10.122
REMARK  5 active torsions:
REMARK  status: ('A' for Active; 'I' for Inactive)
REMARK    1  A    between atoms: C_4  and  C_5 
REMARK    2  A    between atoms: C_5  and  N_6 
REMARK       I    between atoms: N_6  and  C_7 
REMARK    3  A    between atoms: C_7  and  C_8 
REMARK    4  A    between atoms: C_11  and  N_12 
REMARK       I    between atoms: N_12  and  C_13 
REMARK       I    between atoms: C_13  and  N_14 
REMARK    5  A    between atoms: N_14  and  C_15 
ROOT
HETATM    1  C   UNL     1      24.578  48.453  49.108  1.00  0.00     0.032 A 
HETATM    2  C   UNL     1      25.933  48.434  49.453  1.00  0.00     0.019 A 
HETATM    3  C   UNL     1      26.479  47.315  50.096  1.00  0.00     0.030 A 
HETATM    4  C   UNL     1      25.680  46.211  50.408  1.00  0.00     0.036 A 
HETATM    5  C   UNL     1      24.336  46.217  50.016  1.00  0.00     0.030 A 
HETATM    6  C   UNL     1      23.789  47.328  49.369  1.00  0.00     0.019 A 
ENDROOT
BRANCH   4   7
HETATM    7  N   UNL     1      26.141  45.073  51.100  1.00  0.00    -0.309 N 
HETATM    8  C   UNL     1      25.505  44.386  52.098  1.00  0.00     0.325 C 
HETATM    9  N   UNL     1      26.179  43.317  52.630  1.00  0.00    -0.306 N 
HETATM   10  O   UNL     1      24.365  44.602  52.504  1.00  0.00    -0.247 OA
HETATM   11  H   UNL     1      25.583  42.732  53.204  1.00  0.00     0.171 HD
HETATM   12  H   UNL     1      26.902  44.577  50.662  1.00  0.00     0.170 HD
BRANCH   9  13
HETATM   13  C   UNL     1      27.516  42.980  52.577  1.00  0.00     0.072 A 
HETATM   14  C   UNL     1      28.695  43.650  52.971  1.00  0.00     0.169 A 
HETATM   15  N   UNL     1      29.798  42.941  52.714  1.00  0.00    -0.185 NA
HETATM   16  N   UNL     1      29.324  41.795  52.200  1.00  0.00    -0.287 N 
HETATM   17  H   UNL     1      29.989  41.076  51.932  1.00  0.00     0.188 HD
HETATM   18  C   UNL     1      27.963  41.764  52.114  1.00  0.00     0.140 A 
ENDBRANCH   9  13
ENDBRANCH   4   7
BRANCH   1  19
HETATM   19  C   UNL     1      23.923  49.635  48.484  1.00  0.00     0.251 C 
HETATM   20  N   UNL     1      22.797  50.116  49.111  1.00  0.00    -0.353 N 
HETATM   21  H   UNL     1      22.447  49.685  49.954  1.00  0.00     0.163 HD
HETATM   22  O   UNL     1      24.356  50.093  47.433  1.00  0.00    -0.268 OA
BRANCH  20  23
HETATM   23  C   UNL     1      22.014  51.173  48.510  1.00  0.00     0.161 C 
BRANCH  23  24
HETATM   24  C   UNL     1      20.594  51.191  49.017  1.00  0.00    -0.041 A 
HETATM   25  C   UNL     1      19.684  52.145  48.537  1.00  0.00     0.009 A 
HETATM   26  C   UNL     1      18.357  52.144  48.971  1.00  0.00     0.001 A 
HETATM   27  C   UNL     1      17.923  51.190  49.889  1.00  0.00     0.000 A 
HETATM   28  C   UNL     1      18.812  50.229  50.366  1.00  0.00     0.001 A 
HETATM   29  C   UNL     1      20.137  50.223  49.924  1.00  0.00     0.009 A 
ENDBRANCH  23  24
ENDBRANCH  20  23
ENDBRANCH   1  19
TORSDOF 5
ENDMDL
MODEL 3
REMARK VINA RESULT:      -8.6      1.787      2.570
REMARK  5 active torsions:
REMARK  status: ('A' for Active; 'I' for Inactive)
REMARK    1  A    between atoms: C_4  and  C_5 
REMARK    2  A    between atoms: C_5  and  N_6 
REMARK       I    between atoms: N_6  and  C_7 
REMARK    3  A    between atoms: C_7  and  C_8 
REMARK    4  A    between atoms: C_11  and  N_12 
REMARK       I    between atoms: N_12  and  C_13 
REMARK       I    between atoms: C_13  and  N_14 
REMARK    5  A    between atoms: N_14  and  C_15 
ROOT
HETATM    1  C   UNL     1      25.812  45.585  50.040  1.00  0.00     0.032 A 
HETATM    2  C   UNL     1      26.131  46.925  50.283  1.00  0.00     0.019 A 
HETATM    3  C   UNL     1      25.223  47.937  49.941  1.00  0.00     0.030 A 
HETATM    4  C   UNL     1      23.997  47.624  49.348  1.00  0.00     0.036 A 
HETATM    5  C   UNL     1      23.664  46.278  49.152  1.00  0.00     0.030 A 
HETATM    6  C   UNL     1      24.563  45.266  49.498  1.00  0.00     0.019 A 
ENDROOT
BRANCH   4   7
HETATM    7  N   UNL     1      23.056  48.586  48.927  1.00  0.00    -0.309 N 
HETATM    8  C   UNL     1      23.259  49.638  48.075  1.00  0.00     0.325 C 
HETATM    9  N   UNL     1      22.180  50.450  47.839  1.00  0.00    -0.306 N 
HETATM   10  O   UNL     1      24.296  49.872  47.458  1.00  0.00    -0.247 OA
HETATM   11  H   UNL     1      22.329  51.072  47.053  1.00  0.00     0.171 HD
HETATM   12  H   UNL     1      22.089  48.341  49.076  1.00  0.00     0.170 HD
BRANCH   9  13
HETATM   13  C   UNL     1      21.001  50.604  48.538  1.00  0.00     0.072 A 
HETATM   14  C   UNL     1      20.699  51.121  49.817  1.00  0.00     0.169 A 
HETATM   15  N   UNL     1      19.394  51.062  50.099  1.00  0.00    -0.185 NA
HETATM   16  N   UNL     1      18.852  50.553  48.982  1.00  0.00    -0.287 N 
HETATM   17  H   UNL     1      17.845  50.421  48.951  1.00  0.00     0.188 HD
HETATM   18  C   UNL     1      19.772  50.278  48.012  1.00  0.00     0.140 A 
ENDBRANCH   9  13
ENDBRANCH   4   7
BRANCH   1  19
HETATM   19  C   UNL     1      26.758  44.470  50.320  1.00  0.00     0.251 C 
HETATM   20  N   UNL     1      27.123  44.290  51.634  1.00  0.00    -0.353 N 
HETATM   21  H   UNL     1      26.756  44.884  52.362  1.00  0.00     0.163 HD
HETATM   22  O   UNL     1      27.214  43.806  49.396  1.00  0.00    -0.268 OA
BRANCH  20  23
HETATM   23  C   UNL     1      28.137  43.322  51.990  1.00  0.00     0.161 C 
BRANCH  23  24
HETATM   24  C   UNL     1      28.861  43.695  53.259  1.00  0.00    -0.041 A 
HETATM   25  C   UNL     1      28.372  44.725  54.076  1.00  0.00     0.009 A 
HETATM   26  C   UNL     1      29.014  45.050  55.272  1.00  0.00     0.001 A 
HETATM   27  C   UNL     1      30.152  44.349  55.668  1.00  0.00     0.000 A 
HETATM   28  C   UNL     1      30.643  43.316  54.873  1.00  0.00     0.001 A 
HETATM   29  C   UNL     1      29.995  42.983  53.681  1.00  0.00     0.009 A 
ENDBRANCH  23  24
ENDBRANCH  20  23
ENDBRANCH   1  19
TORSDOF 5
ENDMDL
MODEL 4
REMARK VINA RESULT:      -8.3      5.727      9.044
REMARK  5 active torsions:
REMARK  status: ('A' for Active; 'I' for Inactive)
REMARK    1  A    between atoms: C_4  and  C_5 
REMARK    2  A    between atoms: C_5  and  N_6 
REMARK       I    between atoms: N_6  and  C_7 
REMARK    3  A    between atoms: C_7  and  C_8 
REMARK    4  A    between atoms: C_11  and  N_12 
REMARK       I    between atoms: N_12  and  C_13 
REMARK       I    between atoms: C_13  and  N_14 
REMARK    5  A    between atoms: N_14  and  C_15 
ROOT
HETATM    1  C   UNL     1      20.696  49.569  48.809  1.00  0.00     0.032 A 
HETATM    2  C   UNL     1      20.771  50.900  48.388  1.00  0.00     0.019 A 
HETATM    3  C   UNL     1      19.674  51.756  48.560  1.00  0.00     0.030 A 
HETATM    4  C   UNL     1      18.494  51.291  49.145  1.00  0.00     0.036 A 
HETATM    5  C   UNL     1      18.442  49.972  49.609  1.00  0.00     0.030 A 
HETATM    6  C   UNL     1      19.535  49.117  49.446  1.00  0.00     0.019 A 
ENDROOT
BRANCH   4   7
HETATM    7  N   UNL     1      17.331  52.073  49.304  1.00  0.00    -0.309 N 
HETATM    8  C   UNL     1      16.472  52.503  48.329  1.00  0.00     0.325 C 
HETATM    9  N   UNL     1      15.418  53.276  48.740  1.00  0.00    -0.306 N 
HETATM   10  O   UNL     1      16.529  52.201  47.139  1.00  0.00    -0.247 OA
HETATM   11  H   UNL     1      14.714  53.385  48.020  1.00  0.00     0.171 HD
HETATM   12  H   UNL     1      16.965  52.122  50.243  1.00  0.00     0.170 HD
BRANCH   9  13
HETATM   13  C   UNL     1      15.219  53.975  49.913  1.00  0.00     0.072 A 
HETATM   14  C   UNL     1      15.501  55.302  50.304  1.00  0.00     0.169 A 
HETATM   15  N   UNL     1      15.144  55.552  51.567  1.00  0.00    -0.185 NA
HETATM   16  N   UNL     1      14.586  54.400  51.971  1.00  0.00    -0.287 N 
HETATM   17  H   UNL     1      14.219  54.348  52.917  1.00  0.00     0.188 HD
HETATM   18  C   UNL     1      14.592  53.431  51.011  1.00  0.00     0.140 A 
ENDBRANCH   9  13
ENDBRANCH   4   7
BRANCH   1  19
HETATM   19  C   UNL     1      21.800  48.594  48.596  1.00  0.00     0.251 C 
HETATM   20  N   UNL     1      22.644  48.380  49.661  1.00  0.00    -0.353 N 
HETATM   21  H   UNL     1      22.507  48.860  50.539  1.00  0.00     0.163 HD
HETATM   22  O   UNL     1      21.957  48.073  47.498  1.00  0.00    -0.268 OA
BRANCH  20  23
HETATM   23  C   UNL     1      23.823  47.556  49.513  1.00  0.00     0.161 C 
BRANCH  23  24
HETATM   24  C   UNL     1      25.065  48.375  49.266  1.00  0.00    -0.041 A 
HETATM   25  C   UNL     1      26.304  47.949  49.768  1.00  0.00     0.009 A 
HETATM   26  C   UNL     1      27.465  48.681  49.510  1.00  0.00     0.001 A 
HETATM   27  C   UNL     1      27.403  49.845  48.748  1.00  0.00     0.000 A 
HETATM   28  C   UNL     1      26.182  50.274  48.232  1.00  0.00     0.001 A 
HETATM   29  C   UNL     1      25.021  49.538  48.481  1.00  0.00     0.009 A 
ENDBRANCH  23  24
ENDBRANCH  20  23
ENDBRANCH   1  19
TORSDOF 5
ENDMDL
MODEL 5
REMARK VINA RESULT:      -8.0      2.005      2.543
REMARK  5 active torsions:
REMARK  status: ('A' for Active; 'I' for Inactive)
REMARK    1  A    between atoms: C_4  and  C_5 
REMARK    2  A    between atoms: C_5  and  N_6 
REMARK       I    between atoms: N_6  and  C_7 
REMARK    3  A    between atoms: C_7  and  C_8 
REMARK    4  A    between atoms: C_11  and  N_12 
REMARK       I    between atoms: N_12  and  C_13 
REMARK       I    between atoms: C_13  and  N_14 
REMARK    5  A    between atoms: N_14  and  C_15 
ROOT
HETATM    1  C   UNL     1      25.853  43.401  51.179  1.00  0.00     0.032 A 
HETATM    2  C   UNL     1      24.620  42.829  50.846  1.00  0.00     0.019 A 
HETATM    3  C   UNL     1      23.611  43.616  50.276  1.00  0.00     0.030 A 
HETATM    4  C   UNL     1      23.817  44.978  50.040  1.00  0.00     0.036 A 
HETATM    5  C   UNL     1      25.069  45.533  50.331  1.00  0.00     0.030 A 
HETATM    6  C   UNL     1      26.080  44.751  50.893  1.00  0.00     0.019 A 
ENDROOT
BRANCH   4   7
HETATM    7  N   UNL     1      22.835  45.846  49.521  1.00  0.00    -0.309 N 
HETATM    8  C   UNL     1      22.374  45.915  48.234  1.00  0.00     0.325 C 
HETATM    9  N   UNL     1      21.424  46.869  47.975  1.00  0.00    -0.306 N 
HETATM   10  O   UNL     1      22.687  45.156  47.319  1.00  0.00    -0.247 OA
HETATM   11  H   UNL     1      20.976  46.734  47.076  1.00  0.00     0.171 HD
HETATM   12  H   UNL     1      22.248  46.297  50.206  1.00  0.00     0.170 HD
BRANCH   9  13
HETATM   13  C   UNL     1      21.062  47.993  48.687  1.00  0.00     0.072 A 
HETATM   14  C   UNL     1      21.664  49.258  48.864  1.00  0.00     0.169 A 
HETATM   15  N   UNL     1      20.956  50.057  49.667  1.00  0.00    -0.185 NA
HETATM   16  N   UNL     1      19.873  49.323  49.967  1.00  0.00    -0.287 N 
HETATM   17  H   UNL     1      19.165  49.731  50.570  1.00  0.00     0.188 HD
HETATM   18  C   UNL     1      19.882  48.086  49.390  1.00  0.00     0.140 A 
ENDBRANCH   9  13
ENDBRANCH   4   7
BRANCH   1  19
HETATM   19  C   UNL     1      26.941  42.635  51.847  1.00  0.00     0.251 C 
HETATM   20  N   UNL     1      27.433  43.163  53.018  1.00  0.00    -0.353 N 
HETATM   21  H   UNL     1      27.062  44.021  53.399  1.00  0.00     0.163 HD
HETATM   22  O   UNL     1      27.392  41.624  51.321  1.00  0.00    -0.268 OA
BRANCH  20  23
HETATM   23  C   UNL     1      28.579  42.567  53.669  1.00  0.00     0.161 C 
BRANCH  23  24
HETATM   24  C   UNL     1      29.249  43.518  54.629  1.00  0.00    -0.041 A 
HETATM   25  C   UNL     1      30.464  43.170  55.237  1.00  0.00     0.009 A 
HETATM   26  C   UNL     1      31.110  44.060  56.096  1.00  0.00     0.001 A 
HETATM   27  C   UNL     1      30.552  45.310  56.357  1.00  0.00     0.000 A 
HETATM   28  C   UNL     1      29.352  45.675  55.752  1.00  0.00     0.001 A 
HETATM   29  C   UNL     1      28.709  44.789  54.884  1.00  0.00     0.009 A 
ENDBRANCH  23  24
ENDBRANCH  20  23
ENDBRANCH   1  19
TORSDOF 5
ENDMDL
MODEL 6
REMARK VINA RESULT:      -7.8      2.753     10.252
REMARK  5 active torsions:
REMARK  status: ('A' for Active; 'I' for Inactive)
REMARK    1  A    between atoms: C_4  and  C_5 
REMARK    2  A    between atoms: C_5  and  N_6 
REMARK       I    between atoms: N_6  and  C_7 
REMARK    3  A    between atoms: C_7  and  C_8 
REMARK    4  A    between atoms: C_11  and  N_12 
REMARK       I    between atoms: N_12  and  C_13 
REMARK       I    between atoms: C_13  and  N_14 
REMARK    5  A    between atoms: N_14  and  C_15 
ROOT
HETATM    1  C   UNL     1      23.274  46.055  49.143  1.00  0.00     0.032 A 
HETATM    2  C   UNL     1      24.138  46.820  49.932  1.00  0.00     0.019 A 
HETATM    3  C   UNL     1      25.033  46.191  50.807  1.00  0.00     0.030 A 
HETATM    4  C   UNL     1      25.070  44.798  50.910  1.00  0.00     0.036 A 
HETATM    5  C   UNL     1      24.237  44.037  50.082  1.00  0.00     0.030 A 
HETATM    6  C   UNL     1      23.347  44.659  49.203  1.00  0.00     0.019 A 
ENDROOT
BRANCH   4   7
HETATM    7  N   UNL     1      25.902  44.094  51.804  1.00  0.00    -0.309 N 
HETATM    8  C   UNL     1      25.723  43.915  53.149  1.00  0.00     0.325 C 
HETATM    9  N   UNL     1      26.694  43.204  53.806  1.00  0.00    -0.306 N 
HETATM   10  O   UNL     1      24.742  44.274  53.796  1.00  0.00    -0.247 OA
HETATM   11  H   UNL     1      26.407  42.927  54.737  1.00  0.00     0.171 HD
HETATM   12  H   UNL     1      26.565  43.465  51.377  1.00  0.00     0.170 HD
BRANCH   9  13
HETATM   13  C   UNL     1      27.988  42.897  53.437  1.00  0.00     0.072 A 
HETATM   14  C   UNL     1      29.218  43.575  53.580  1.00  0.00     0.169 A 
HETATM   15  N   UNL     1      30.242  42.899  53.052  1.00  0.00    -0.185 NA
HETATM   16  N   UNL     1      29.677  41.763  52.613  1.00  0.00    -0.287 N 
HETATM   17  H   UNL     1      30.271  41.067  52.172  1.00  0.00     0.188 HD
HETATM   18  C   UNL     1      28.332  41.708  52.837  1.00  0.00     0.140 A 
ENDBRANCH   9  13
ENDBRANCH   4   7
BRANCH   1  19
HETATM   19  C   UNL     1      22.256  46.662  48.243  1.00  0.00     0.251 C 
HETATM   20  N   UNL     1      21.221  47.335  48.851  1.00  0.00    -0.353 N 
HETATM   21  H   UNL     1      21.171  47.412  49.857  1.00  0.00     0.163 HD
HETATM   22  O   UNL     1      22.333  46.500  47.030  1.00  0.00    -0.268 OA
BRANCH  20  23
HETATM   23  C   UNL     1      20.114  47.843  48.073  1.00  0.00     0.161 C 
BRANCH  23  24
HETATM   24  C   UNL     1      19.981  49.342  48.178  1.00  0.00    -0.041 A 
HETATM   25  C   UNL     1      18.809  49.980  47.744  1.00  0.00     0.009 A 
HETATM   26  C   UNL     1      18.662  51.362  47.875  1.00  0.00     0.001 A 
HETATM   27  C   UNL     1      19.683  52.123  48.441  1.00  0.00     0.000 A 
HETATM   28  C   UNL     1      20.847  51.502  48.888  1.00  0.00     0.001 A 
HETATM   29  C   UNL     1      20.991  50.118  48.767  1.00  0.00     0.009 A 
ENDBRANCH  23  24
ENDBRANCH  20  23
ENDBRANCH   1  19
TORSDOF 5
ENDMDL
MODEL 7
REMARK VINA RESULT:      -7.8     12.959     13.924
REMARK  5 active torsions:
REMARK  status: ('A' for Active; 'I' for Inactive)
REMARK    1  A    between atoms: C_4  and  C_5 
REMARK    2  A    between atoms: C_5  and  N_6 
REMARK       I    between atoms: N_6  and  C_7 
REMARK    3  A    between atoms: C_7  and  C_8 
REMARK    4  A    between atoms: C_11  and  N_12 
REMARK       I    between atoms: N_12  and  C_13 
REMARK       I    between atoms: C_13  and  N_14 
REMARK    5  A    between atoms: N_14  and  C_15 
ROOT
HETATM    1  C   UNL     1      35.142  51.327  42.265  1.00  0.00     0.032 A 
HETATM    2  C   UNL     1      34.090  51.408  43.183  1.00  0.00     0.019 A 
HETATM    3  C   UNL     1      32.783  51.649  42.736  1.00  0.00     0.030 A 
HETATM    4  C   UNL     1      32.516  51.819  41.376  1.00  0.00     0.036 A 
HETATM    5  C   UNL     1      33.565  51.689  40.458  1.00  0.00     0.030 A 
HETATM    6  C   UNL     1      34.868  51.442  40.898  1.00  0.00     0.019 A 
ENDROOT
BRANCH   4   7
HETATM    7  N   UNL     1      31.240  52.118  40.853  1.00  0.00    -0.309 N 
HETATM    8  C   UNL     1      30.685  53.353  40.658  1.00  0.00     0.325 C 
HETATM    9  N   UNL     1      29.410  53.378  40.153  1.00  0.00    -0.306 N 
HETATM   10  O   UNL     1      31.252  54.430  40.830  1.00  0.00    -0.247 OA
HETATM   11  H   UNL     1      29.138  54.300  39.837  1.00  0.00     0.171 HD
HETATM   12  H   UNL     1      30.787  51.366  40.358  1.00  0.00     0.170 HD
BRANCH   9  13
HETATM   13  C   UNL     1      28.448  52.391  40.095  1.00  0.00     0.072 A 
HETATM   14  C   UNL     1      28.066  51.476  39.089  1.00  0.00     0.169 A 
HETATM   15  N   UNL     1      27.052  50.692  39.467  1.00  0.00    -0.185 NA
HETATM   16  N   UNL     1      26.816  51.070  40.733  1.00  0.00    -0.287 N 
HETATM   17  H   UNL     1      26.078  50.598  41.248  1.00  0.00     0.188 HD
HETATM   18  C   UNL     1      27.637  52.072  41.160  1.00  0.00     0.140 A 
ENDBRANCH   9  13
ENDBRANCH   4   7
BRANCH   1  19
HETATM   19  C   UNL     1      36.559  51.139  42.680  1.00  0.00     0.251 C 
HETATM   20  N   UNL     1      36.921  51.680  43.892  1.00  0.00    -0.353 N 
HETATM   21  H   UNL     1      36.249  52.171  44.464  1.00  0.00     0.163 HD
HETATM   22  O   UNL     1      37.349  50.579  41.929  1.00  0.00    -0.268 OA
BRANCH  20  23
HETATM   23  C   UNL     1      38.302  51.668  44.321  1.00  0.00     0.161 C 
BRANCH  23  24
HETATM   24  C   UNL     1      38.579  52.700  45.385  1.00  0.00    -0.041 A 
HETATM   25  C   UNL     1      37.791  53.857  45.469  1.00  0.00     0.009 A 
HETATM   26  C   UNL     1      38.015  54.799  46.475  1.00  0.00     0.001 A 
HETATM   27  C   UNL     1      39.029  54.596  47.409  1.00  0.00     0.000 A 
HETATM   28  C   UNL     1      39.813  53.446  47.345  1.00  0.00     0.001 A 
HETATM   29  C   UNL     1      39.582  52.498  46.345  1.00  0.00     0.009 A 
ENDBRANCH  23  24
ENDBRANCH  20  23
ENDBRANCH   1  19
TORSDOF 5
ENDMDL
MODEL 8
REMARK VINA RESULT:      -7.8     16.514     19.868
REMARK  5 active torsions:
REMARK  status: ('A' for Active; 'I' for Inactive)
REMARK    1  A    between atoms: C_4  and  C_5 
REMARK    2  A    between atoms: C_5  and  N_6 
REMARK       I    between atoms: N_6  and  C_7 
REMARK    3  A    between atoms: C_7  and  C_8 
REMARK    4  A    between atoms: C_11  and  N_12 
REMARK       I    between atoms: N_12  and  C_13 
REMARK       I    between atoms: C_13  and  N_14 
REMARK    5  A    between atoms: N_14  and  C_15 
ROOT
HETATM    1  C   UNL     1      37.618  44.129  63.872  1.00  0.00     0.032 A 
HETATM    2  C   UNL     1      38.637  43.975  62.927  1.00  0.00     0.019 A 
HETATM    3  C   UNL     1      39.401  42.800  62.901  1.00  0.00     0.030 A 
HETATM    4  C   UNL     1      39.161  41.774  63.819  1.00  0.00     0.036 A 
HETATM    5  C   UNL     1      38.108  41.914  64.730  1.00  0.00     0.030 A 
HETATM    6  C   UNL     1      37.340  43.081  64.756  1.00  0.00     0.019 A 
ENDROOT
BRANCH   4   7
HETATM    7  N   UNL     1      39.919  40.587  63.892  1.00  0.00    -0.309 N 
HETATM    8  C   UNL     1      39.925  39.543  63.008  1.00  0.00     0.325 C 
HETATM    9  N   UNL     1      40.740  38.485  63.318  1.00  0.00    -0.306 N 
HETATM   10  O   UNL     1      39.321  39.504  61.938  1.00  0.00    -0.247 OA
HETATM   11  H   UNL     1      40.862  37.850  62.538  1.00  0.00     0.171 HD
HETATM   12  H   UNL     1      40.703  40.612  64.526  1.00  0.00     0.170 HD
BRANCH   9  13
HETATM   13  C   UNL     1      41.325  38.121  64.514  1.00  0.00     0.072 A 
HETATM   14  C   UNL     1      42.583  38.396  65.093  1.00  0.00     0.169 A 
HETATM   15  N   UNL     1      42.736  37.815  66.287  1.00  0.00    -0.185 NA
HETATM   16  N   UNL     1      41.558  37.208  66.496  1.00  0.00    -0.287 N 
HETATM   17  H   UNL     1      41.425  36.697  67.363  1.00  0.00     0.188 HD
HETATM   18  C   UNL     1      40.674  37.377  65.470  1.00  0.00     0.140 A 
ENDBRANCH   9  13
ENDBRANCH   4   7
BRANCH   1  19
HETATM   19  C   UNL     1      36.816  45.377  63.994  1.00  0.00     0.251 C 
HETATM   20  N   UNL     1      37.500  46.563  63.857  1.00  0.00    -0.353 N 
HETATM   21  H   UNL     1      38.493  46.573  63.676  1.00  0.00     0.163 HD
HETATM   22  O   UNL     1      35.622  45.316  64.263  1.00  0.00    -0.268 OA
BRANCH  20  23
HETATM   23  C   UNL     1      36.838  47.827  64.092  1.00  0.00     0.161 C 
BRANCH  23  24
HETATM   24  C   UNL     1      37.661  48.752  64.952  1.00  0.00    -0.041 A 
HETATM   25  C   UNL     1      37.165  49.199  66.186  1.00  0.00     0.009 A 
HETATM   26  C   UNL     1      37.937  50.024  67.006  1.00  0.00     0.001 A 
HETATM   27  C   UNL     1      39.213  50.411  66.605  1.00  0.00     0.000 A 
HETATM   28  C   UNL     1      39.725  49.966  65.388  1.00  0.00     0.001 A 
HETATM   29  C   UNL     1      38.958  49.132  64.571  1.00  0.00     0.009 A 
ENDBRANCH  23  24
ENDBRANCH  20  23
ENDBRANCH   1  19
TORSDOF 5
ENDMDL
MODEL 9
REMARK VINA RESULT:      -7.7      8.427     14.023
REMARK  5 active torsions:
REMARK  status: ('A' for Active; 'I' for Inactive)
REMARK    1  A    between atoms: C_4  and  C_5 
REMARK    2  A    between atoms: C_5  and  N_6 
REMARK       I    between atoms: N_6  and  C_7 
REMARK    3  A    between atoms: C_7  and  C_8 
REMARK    4  A    between atoms: C_11  and  N_12 
REMARK       I    between atoms: N_12  and  C_13 
REMARK       I    between atoms: C_13  and  N_14 
REMARK    5  A    between atoms: N_14  and  C_15 
ROOT
HETATM    1  C   UNL     1      15.920  52.886  49.454  1.00  0.00     0.032 A 
HETATM    2  C   UNL     1      17.228  52.912  49.948  1.00  0.00     0.019 A 
HETATM    3  C   UNL     1      18.033  51.768  49.870  1.00  0.00     0.030 A 
HETATM    4  C   UNL     1      17.541  50.587  49.307  1.00  0.00     0.036 A 
HETATM    5  C   UNL     1      16.248  50.582  48.771  1.00  0.00     0.030 A 
HETATM    6  C   UNL     1      15.444  51.722  48.840  1.00  0.00     0.019 A 
ENDROOT
BRANCH   4   7
HETATM    7  N   UNL     1      18.268  49.381  49.241  1.00  0.00    -0.309 N 
HETATM    8  C   UNL     1      18.672  48.590  50.282  1.00  0.00     0.325 C 
HETATM    9  N   UNL     1      19.392  47.470  49.955  1.00  0.00    -0.306 N 
HETATM   10  O   UNL     1      18.389  48.761  51.466  1.00  0.00    -0.247 OA
HETATM   11  H   UNL     1      19.479  46.826  50.732  1.00  0.00     0.171 HD
HETATM   12  H   UNL     1      18.288  48.935  48.337  1.00  0.00     0.170 HD
BRANCH   9  13
HETATM   13  C   UNL     1      20.066  47.141  48.797  1.00  0.00     0.072 A 
HETATM   14  C   UNL     1      19.764  46.283  47.716  1.00  0.00     0.169 A 
HETATM   15  N   UNL     1      20.731  46.258  46.795  1.00  0.00    -0.185 NA
HETATM   16  N   UNL     1      21.632  47.137  47.259  1.00  0.00    -0.287 N 
HETATM   17  H   UNL     1      22.471  47.303  46.712  1.00  0.00     0.188 HD
HETATM   18  C   UNL     1      21.271  47.705  48.446  1.00  0.00     0.140 A 
ENDBRANCH   9  13
ENDBRANCH   4   7
BRANCH   1  19
HETATM   19  C   UNL     1      14.994  54.046  49.566  1.00  0.00     0.251 C 
HETATM   20  N   UNL     1      15.576  55.283  49.719  1.00  0.00    -0.353 N 
HETATM   21  H   UNL     1      16.580  55.387  49.745  1.00  0.00     0.163 HD
HETATM   22  O   UNL     1      13.782  53.865  49.578  1.00  0.00    -0.268 OA
BRANCH  20  23
HETATM   23  C   UNL     1      14.764  56.453  49.970  1.00  0.00     0.161 C 
BRANCH  23  24
HETATM   24  C   UNL     1      14.987  57.018  51.350  1.00  0.00    -0.041 A 
HETATM   25  C   UNL     1      15.226  56.161  52.435  1.00  0.00     0.009 A 
HETATM   26  C   UNL     1      15.473  56.677  53.708  1.00  0.00     0.001 A 
HETATM   27  C   UNL     1      15.486  58.055  53.913  1.00  0.00     0.000 A 
HETATM   28  C   UNL     1      15.262  58.919  52.844  1.00  0.00     0.001 A 
HETATM   29  C   UNL     1      15.025  58.404  51.567  1.00  0.00     0.009 A 
ENDBRANCH  23  24
ENDBRANCH  20  23
ENDBRANCH   1  19
TORSDOF 5
ENDMDL
MODEL 10
REMARK VINA RESULT:      -7.6      2.908      3.568
REMARK  5 active torsions:
REMARK  status: ('A' for Active; 'I' for Inactive)
REMARK    1  A    between atoms: C_4  and  C_5 
REMARK    2  A    between atoms: C_5  and  N_6 
REMARK       I    between atoms: N_6  and  C_7 
REMARK    3  A    between atoms: C_7  and  C_8 
REMARK    4  A    between atoms: C_11  and  N_12 
REMARK       I    between atoms: N_12  and  C_13 
REMARK       I    between atoms: C_13  and  N_14 
REMARK    5  A    between atoms: N_14  and  C_15 
ROOT
HETATM    1  C   UNL     1      26.671  46.469  53.443  1.00  0.00     0.032 A 
HETATM    2  C   UNL     1      26.217  47.429  52.533  1.00  0.00     0.019 A 
HETATM    3  C   UNL     1      25.311  47.070  51.526  1.00  0.00     0.030 A 
HETATM    4  C   UNL     1      24.855  45.754  51.413  1.00  0.00     0.036 A 
HETATM    5  C   UNL     1      25.275  44.809  52.357  1.00  0.00     0.030 A 
HETATM    6  C   UNL     1      26.173  45.163  53.366  1.00  0.00     0.019 A 
ENDROOT
BRANCH   4   7
HETATM    7  N   UNL     1      23.987  45.304  50.397  1.00  0.00    -0.309 N 
HETATM    8  C   UNL     1      24.144  44.214  49.585  1.00  0.00     0.325 C 
HETATM    9  N   UNL     1      23.162  44.000  48.652  1.00  0.00    -0.306 N 
HETATM   10  O   UNL     1      25.045  43.382  49.667  1.00  0.00    -0.247 OA
HETATM   11  H   UNL     1      23.222  43.080  48.232  1.00  0.00     0.171 HD
HETATM   12  H   UNL     1      23.051  45.678  50.428  1.00  0.00     0.170 HD
BRANCH   9  13
HETATM   13  C   UNL     1      22.195  44.849  48.154  1.00  0.00     0.072 A 
HETATM   14  C   UNL     1      22.177  45.764  47.079  1.00  0.00     0.169 A 
HETATM   15  N   UNL     1      21.007  46.399  46.965  1.00  0.00    -0.185 NA
HETATM   16  N   UNL     1      20.257  45.855  47.937  1.00  0.00    -0.287 N 
HETATM   17  H   UNL     1      19.299  46.176  48.044  1.00  0.00     0.188 HD
HETATM   18  C   UNL     1      20.919  44.910  48.664  1.00  0.00     0.140 A 
ENDBRANCH   9  13
ENDBRANCH   4   7
BRANCH   1  19
HETATM   19  C   UNL     1      27.682  46.770  54.493  1.00  0.00     0.251 C 
HETATM   20  N   UNL     1      27.707  45.927  55.581  1.00  0.00    -0.353 N 
HETATM   21  H   UNL     1      27.073  45.145  55.648  1.00  0.00     0.163 HD
HETATM   22  O   UNL     1      28.397  47.760  54.391  1.00  0.00    -0.268 OA
BRANCH  20  23
HETATM   23  C   UNL     1      28.559  46.213  56.714  1.00  0.00     0.161 C 
BRANCH  23  24
HETATM   24  C   UNL     1      29.709  45.244  56.823  1.00  0.00    -0.041 A 
HETATM   25  C   UNL     1      30.040  44.415  55.741  1.00  0.00     0.009 A 
HETATM   26  C   UNL     1      31.128  43.543  55.819  1.00  0.00     0.001 A 
HETATM   27  C   UNL     1      31.898  43.490  56.979  1.00  0.00     0.000 A 
HETATM   28  C   UNL     1      31.589  44.315  58.058  1.00  0.00     0.001 A 
HETATM   29  C   UNL     1      30.507  45.195  57.976  1.00  0.00     0.009 A 
ENDBRANCH  23  24
ENDBRANCH  20  23
ENDBRANCH   1  19
TORSDOF 5
ENDMDL
