MODEL 1
REMARK VINA RESULT:      -9.3      0.000      0.000
REMARK  3 active torsions:
REMARK  status: ('A' for Active; 'I' for Inactive)
REMARK    1  A    between atoms: C_6  and  C_7 
REMARK    2  A    between atoms: C_14  and  N_15 
REMARK    3  A    between atoms: N_15  and  C_16 
ROOT
HETATM    1  C   UNL     1      29.090  44.983  55.556  1.00  0.00     0.001 A 
HETATM    2  C   UNL     1      28.018  44.608  54.750  1.00  0.00     0.018 A 
HETATM    3  C   UNL     1      28.127  43.512  53.856  1.00  0.00     0.039 A 
HETATM    4  C   UNL     1      29.333  42.806  53.776  1.00  0.00     0.073 A 
HETATM    5  N   UNL     1      29.516  41.773  52.949  1.00  0.00    -0.228 NA
HETATM    6  C   UNL     1      28.487  41.417  52.164  1.00  0.00     0.164 A 
HETATM    7  N   UNL     1      27.292  42.026  52.159  1.00  0.00    -0.210 NA
HETATM    8  C   UNL     1      27.109  43.058  53.000  1.00  0.00     0.143 A 
HETATM    9  C   UNL     1      30.388  43.198  54.591  1.00  0.00     0.032 A 
HETATM   10  C   UNL     1      30.280  44.272  55.479  1.00  0.00     0.002 A 
ENDROOT
BRANCH   8  11
HETATM   11  N   UNL     1      25.836  43.691  53.041  1.00  0.00    -0.340 N 
HETATM   12  H   UNL     1      25.171  43.057  53.473  1.00  0.00     0.167 HD
BRANCH  11  13
HETATM   13  C   UNL     1      25.240  44.472  52.025  1.00  0.00     0.036 A 
HETATM   14  C   UNL     1      25.633  45.809  51.862  1.00  0.00     0.069 A 
HETATM   15  C   UNL     1      25.104  46.586  50.829  1.00  0.00     0.104 A 
HETATM   16  C   UNL     1      24.174  46.038  49.943  1.00  0.00     0.102 A 
HETATM   17  O   UNL     1      25.542  47.885  50.750  1.00  0.00    -0.346 OA
HETATM   18  O   UNL     1      23.592  46.749  48.926  1.00  0.00    -0.346 OA
HETATM   19  C   UNL     1      23.811  44.701  50.062  1.00  0.00     0.042 A 
HETATM   20  C   UNL     1      23.769  48.157  49.110  1.00  0.00     0.202 C 
HETATM   21  C   UNL     1      25.206  48.472  49.488  1.00  0.00     0.202 C 
HETATM   22  C   UNL     1      24.347  43.924  51.093  1.00  0.00     0.032 A 
ENDBRANCH  11  13
ENDBRANCH   8  11
BRANCH   6  23
HETATM   23  C   UNL     1      28.669  40.273  51.261  1.00  0.00     0.029 A 
HETATM   24  C   UNL     1      28.009  40.189  50.035  1.00  0.00     0.131 A 
HETATM   25  N   UNL     1      28.131  39.165  49.147  1.00  0.00    -0.272 NA
HETATM   26  C   UNL     1      28.961  38.162  49.494  1.00  0.00     0.116 A 
HETATM   27  C   UNL     1      29.669  38.131  50.680  1.00  0.00     0.020 A 
HETATM   28  C   UNL     1      29.518  39.196  51.568  1.00  0.00     0.018 A 
ENDBRANCH   6  23
TORSDOF 3
ENDMDL
MODEL 2
REMARK VINA RESULT:      -9.3      3.229      6.947
REMARK  3 active torsions:
REMARK  status: ('A' for Active; 'I' for Inactive)
REMARK    1  A    between atoms: C_6  and  C_7 
REMARK    2  A    between atoms: C_14  and  N_15 
REMARK    3  A    between atoms: N_15  and  C_16 
ROOT
HETATM    1  C   UNL     1      25.019  46.068  51.628  1.00  0.00     0.001 A 
HETATM    2  C   UNL     1      25.553  44.814  51.917  1.00  0.00     0.018 A 
HETATM    3  C   UNL     1      26.581  44.665  52.883  1.00  0.00     0.039 A 
HETATM    4  C   UNL     1      27.072  45.796  53.546  1.00  0.00     0.073 A 
HETATM    5  N   UNL     1      28.048  45.736  54.457  1.00  0.00    -0.228 NA
HETATM    6  C   UNL     1      28.570  44.530  54.728  1.00  0.00     0.164 A 
HETATM    7  N   UNL     1      28.176  43.386  54.150  1.00  0.00    -0.210 NA
HETATM    8  C   UNL     1      27.187  43.449  53.242  1.00  0.00     0.143 A 
HETATM    9  C   UNL     1      26.523  47.036  53.241  1.00  0.00     0.032 A 
HETATM   10  C   UNL     1      25.505  47.184  52.296  1.00  0.00     0.002 A 
ENDROOT
BRANCH   8  11
HETATM   11  N   UNL     1      26.724  42.242  52.649  1.00  0.00    -0.340 N 
HETATM   12  H   UNL     1      26.370  41.634  53.380  1.00  0.00     0.167 HD
BRANCH  11  13
HETATM   13  C   UNL     1      27.342  41.514  51.607  1.00  0.00     0.036 A 
HETATM   14  C   UNL     1      28.181  40.435  51.923  1.00  0.00     0.069 A 
HETATM   15  C   UNL     1      28.757  39.661  50.912  1.00  0.00     0.104 A 
HETATM   16  C   UNL     1      28.502  39.954  49.571  1.00  0.00     0.102 A 
HETATM   17  O   UNL     1      29.569  38.630  51.315  1.00  0.00    -0.346 OA
HETATM   18  O   UNL     1      29.056  39.257  48.529  1.00  0.00    -0.346 OA
HETATM   19  C   UNL     1      27.634  40.990  49.243  1.00  0.00     0.042 A 
HETATM   20  C   UNL     1      30.167  38.468  48.965  1.00  0.00     0.202 C 
HETATM   21  C   UNL     1      29.824  37.717  50.241  1.00  0.00     0.202 C 
HETATM   22  C   UNL     1      27.054  41.758  50.256  1.00  0.00     0.032 A 
ENDBRANCH  11  13
ENDBRANCH   8  11
BRANCH   6  23
HETATM   23  C   UNL     1      29.633  44.448  55.739  1.00  0.00     0.029 A 
HETATM   24  C   UNL     1      29.761  45.395  56.755  1.00  0.00     0.131 A 
HETATM   25  N   UNL     1      30.714  45.382  57.725  1.00  0.00    -0.272 NA
HETATM   26  C   UNL     1      31.595  44.363  57.690  1.00  0.00     0.116 A 
HETATM   27  C   UNL     1      31.572  43.364  56.735  1.00  0.00     0.020 A 
HETATM   28  C   UNL     1      30.582  43.411  55.754  1.00  0.00     0.018 A 
ENDBRANCH   6  23
TORSDOF 3
ENDMDL
MODEL 3
REMARK VINA RESULT:      -9.2      1.816      4.912
REMARK  3 active torsions:
REMARK  status: ('A' for Active; 'I' for Inactive)
REMARK    1  A    between atoms: C_6  and  C_7 
REMARK    2  A    between atoms: C_14  and  N_15 
REMARK    3  A    between atoms: N_15  and  C_16 
ROOT
HETATM    1  C   UNL     1      26.112  41.093  49.531  1.00  0.00     0.001 A 
HETATM    2  C   UNL     1      25.813  42.314  50.131  1.00  0.00     0.018 A 
HETATM    3  C   UNL     1      26.601  42.813  51.199  1.00  0.00     0.039 A 
HETATM    4  C   UNL     1      27.687  42.061  51.664  1.00  0.00     0.073 A 
HETATM    5  N   UNL     1      28.465  42.458  52.674  1.00  0.00    -0.228 NA
HETATM    6  C   UNL     1      28.172  43.629  53.260  1.00  0.00     0.164 A 
HETATM    7  N   UNL     1      27.156  44.425  52.896  1.00  0.00    -0.210 NA
HETATM    8  C   UNL     1      26.381  44.027  51.872  1.00  0.00     0.143 A 
HETATM    9  C   UNL     1      27.965  40.846  51.049  1.00  0.00     0.032 A 
HETATM   10  C   UNL     1      27.195  40.357  49.990  1.00  0.00     0.002 A 
ENDROOT
BRANCH   8  11
HETATM   11  N   UNL     1      25.324  44.876  51.442  1.00  0.00    -0.340 N 
HETATM   12  H   UNL     1      24.545  44.299  51.143  1.00  0.00     0.167 HD
BRANCH  11  13
HETATM   13  C   UNL     1      25.439  46.054  50.669  1.00  0.00     0.036 A 
HETATM   14  C   UNL     1      24.288  46.799  50.372  1.00  0.00     0.069 A 
HETATM   15  C   UNL     1      24.380  47.998  49.661  1.00  0.00     0.104 A 
HETATM   16  C   UNL     1      25.624  48.470  49.237  1.00  0.00     0.102 A 
HETATM   17  O   UNL     1      23.201  48.656  49.411  1.00  0.00    -0.346 OA
HETATM   18  O   UNL     1      25.785  49.621  48.511  1.00  0.00    -0.346 OA
HETATM   19  C   UNL     1      26.778  47.768  49.565  1.00  0.00     0.042 A 
HETATM   20  C   UNL     1      24.544  50.059  47.949  1.00  0.00     0.202 C 
HETATM   21  C   UNL     1      23.436  50.004  48.988  1.00  0.00     0.202 C 
HETATM   22  C   UNL     1      26.683  46.572  50.283  1.00  0.00     0.032 A 
ENDBRANCH  11  13
ENDBRANCH   8  11
BRANCH   6  23
HETATM   23  C   UNL     1      29.030  44.086  54.361  1.00  0.00     0.029 A 
HETATM   24  C   UNL     1      28.788  45.282  55.038  1.00  0.00     0.131 A 
HETATM   25  N   UNL     1      29.534  45.766  56.067  1.00  0.00    -0.272 NA
HETATM   26  C   UNL     1      30.585  45.017  56.455  1.00  0.00     0.116 A 
HETATM   27  C   UNL     1      30.926  43.815  55.864  1.00  0.00     0.020 A 
HETATM   28  C   UNL     1      30.140  43.350  54.809  1.00  0.00     0.018 A 
ENDBRANCH   6  23
TORSDOF 3
ENDMDL
MODEL 4
REMARK VINA RESULT:      -8.9      3.898      9.177
REMARK  3 active torsions:
REMARK  status: ('A' for Active; 'I' for Inactive)
REMARK    1  A    between atoms: C_6  and  C_7 
REMARK    2  A    between atoms: C_14  and  N_15 
REMARK    3  A    between atoms: N_15  and  C_16 
ROOT
HETATM    1  C   UNL     1      27.767  48.636  49.186  1.00  0.00     0.001 A 
HETATM    2  C   UNL     1      26.683  47.879  49.624  1.00  0.00     0.018 A 
HETATM    3  C   UNL     1      25.352  48.323  49.413  1.00  0.00     0.039 A 
HETATM    4  C   UNL     1      25.128  49.544  48.766  1.00  0.00     0.073 A 
HETATM    5  N   UNL     1      23.905  50.033  48.545  1.00  0.00    -0.228 NA
HETATM    6  C   UNL     1      22.860  49.311  48.975  1.00  0.00     0.164 A 
HETATM    7  N   UNL     1      22.962  48.133  49.607  1.00  0.00    -0.210 NA
HETATM    8  C   UNL     1      24.194  47.638  49.819  1.00  0.00     0.143 A 
HETATM    9  C   UNL     1      26.226  50.280  48.338  1.00  0.00     0.032 A 
HETATM   10  C   UNL     1      27.537  49.841  48.537  1.00  0.00     0.002 A 
ENDROOT
BRANCH   8  11
HETATM   11  N   UNL     1      24.324  46.369  50.449  1.00  0.00    -0.340 N 
HETATM   12  H   UNL     1      23.399  45.973  50.577  1.00  0.00     0.167 HD
BRANCH  11  13
HETATM   13  C   UNL     1      25.197  46.030  51.507  1.00  0.00     0.036 A 
HETATM   14  C   UNL     1      26.072  44.943  51.360  1.00  0.00     0.069 A 
HETATM   15  C   UNL     1      26.986  44.623  52.366  1.00  0.00     0.104 A 
HETATM   16  C   UNL     1      27.040  45.385  53.535  1.00  0.00     0.102 A 
HETATM   17  O   UNL     1      27.798  43.539  52.137  1.00  0.00    -0.346 OA
HETATM   18  O   UNL     1      27.891  45.111  54.575  1.00  0.00    -0.346 OA
HETATM   19  C   UNL     1      26.214  46.494  53.676  1.00  0.00     0.042 A 
HETATM   20  C   UNL     1      28.426  43.788  54.472  1.00  0.00     0.202 C 
HETATM   21  C   UNL     1      28.897  43.508  53.054  1.00  0.00     0.202 C 
HETATM   22  C   UNL     1      25.305  46.816  52.664  1.00  0.00     0.032 A 
ENDBRANCH  11  13
ENDBRANCH   8  11
BRANCH   6  23
HETATM   23  C   UNL     1      21.509  49.830  48.724  1.00  0.00     0.029 A 
HETATM   24  C   UNL     1      20.398  48.989  48.644  1.00  0.00     0.131 A 
HETATM   25  N   UNL     1      19.120  49.396  48.419  1.00  0.00    -0.272 NA
HETATM   26  C   UNL     1      18.927  50.722  48.267  1.00  0.00     0.116 A 
HETATM   27  C   UNL     1      19.946  51.654  48.325  1.00  0.00     0.020 A 
HETATM   28  C   UNL     1      21.245  51.200  48.555  1.00  0.00     0.018 A 
ENDBRANCH   6  23
TORSDOF 3
ENDMDL
MODEL 5
REMARK VINA RESULT:      -8.7      4.605      8.981
REMARK  3 active torsions:
REMARK  status: ('A' for Active; 'I' for Inactive)
REMARK    1  A    between atoms: C_6  and  C_7 
REMARK    2  A    between atoms: C_14  and  N_15 
REMARK    3  A    between atoms: N_15  and  C_16 
ROOT
HETATM    1  C   UNL     1      27.658  48.697  49.484  1.00  0.00     0.001 A 
HETATM    2  C   UNL     1      26.560  47.927  49.863  1.00  0.00     0.018 A 
HETATM    3  C   UNL     1      25.251  48.262  49.429  1.00  0.00     0.039 A 
HETATM    4  C   UNL     1      25.061  49.388  48.619  1.00  0.00     0.073 A 
HETATM    5  N   UNL     1      23.858  49.774  48.184  1.00  0.00    -0.228 NA
HETATM    6  C   UNL     1      22.799  49.040  48.556  1.00  0.00     0.164 A 
HETATM    7  N   UNL     1      22.868  47.947  49.330  1.00  0.00    -0.210 NA
HETATM    8  C   UNL     1      24.081  47.556  49.757  1.00  0.00     0.143 A 
HETATM    9  C   UNL     1      26.172  50.140  48.255  1.00  0.00     0.032 A 
HETATM   10  C   UNL     1      27.462  49.807  48.674  1.00  0.00     0.002 A 
ENDROOT
BRANCH   8  11
HETATM   11  N   UNL     1      24.183  46.375  50.543  1.00  0.00    -0.340 N 
HETATM   12  H   UNL     1      24.790  46.561  51.334  1.00  0.00     0.167 HD
BRANCH  11  13
HETATM   13  C   UNL     1      24.317  45.048  50.074  1.00  0.00     0.036 A 
HETATM   14  C   UNL     1      25.589  44.559  49.739  1.00  0.00     0.069 A 
HETATM   15  C   UNL     1      25.757  43.234  49.330  1.00  0.00     0.104 A 
HETATM   16  C   UNL     1      24.657  42.378  49.249  1.00  0.00     0.102 A 
HETATM   17  O   UNL     1      27.036  42.846  49.018  1.00  0.00    -0.346 OA
HETATM   18  O   UNL     1      24.744  41.077  48.828  1.00  0.00    -0.346 OA
HETATM   19  C   UNL     1      23.398  42.834  49.624  1.00  0.00     0.042 A 
HETATM   20  C   UNL     1      25.984  40.830  48.157  1.00  0.00     0.202 C 
HETATM   21  C   UNL     1      27.144  41.420  48.942  1.00  0.00     0.202 C 
HETATM   22  C   UNL     1      23.233  44.158  50.040  1.00  0.00     0.032 A 
ENDBRANCH  11  13
ENDBRANCH   8  11
BRANCH   6  23
HETATM   23  C   UNL     1      21.472  49.444  48.072  1.00  0.00     0.029 A 
HETATM   24  C   UNL     1      20.598  48.537  47.471  1.00  0.00     0.131 A 
HETATM   25  N   UNL     1      19.357  48.836  47.004  1.00  0.00    -0.272 NA
HETATM   26  C   UNL     1      18.952  50.114  47.142  1.00  0.00     0.116 A 
HETATM   27  C   UNL     1      19.726  51.103  47.719  1.00  0.00     0.020 A 
HETATM   28  C   UNL     1      20.995  50.761  48.185  1.00  0.00     0.018 A 
ENDBRANCH   6  23
TORSDOF 3
ENDMDL
MODEL 6
REMARK VINA RESULT:      -8.5      3.235      7.180
REMARK  3 active torsions:
REMARK  status: ('A' for Active; 'I' for Inactive)
REMARK    1  A    between atoms: C_6  and  C_7 
REMARK    2  A    between atoms: C_14  and  N_15 
REMARK    3  A    between atoms: N_15  and  C_16 
ROOT
HETATM    1  C   UNL     1      26.995  44.975  54.728  1.00  0.00     0.001 A 
HETATM    2  C   UNL     1      26.216  44.431  53.709  1.00  0.00     0.018 A 
HETATM    3  C   UNL     1      25.720  45.246  52.659  1.00  0.00     0.039 A 
HETATM    4  C   UNL     1      26.008  46.615  52.654  1.00  0.00     0.073 A 
HETATM    5  N   UNL     1      25.564  47.447  51.707  1.00  0.00    -0.228 NA
HETATM    6  C   UNL     1      24.804  46.927  50.731  1.00  0.00     0.164 A 
HETATM    7  N   UNL     1      24.467  45.632  50.642  1.00  0.00    -0.210 NA
HETATM    8  C   UNL     1      24.924  44.796  51.590  1.00  0.00     0.143 A 
HETATM    9  C   UNL     1      26.788  47.134  53.681  1.00  0.00     0.032 A 
HETATM   10  C   UNL     1      27.285  46.332  54.711  1.00  0.00     0.002 A 
ENDROOT
BRANCH   8  11
HETATM   11  N   UNL     1      24.613  43.412  51.492  1.00  0.00    -0.340 N 
HETATM   12  H   UNL     1      24.454  43.047  52.425  1.00  0.00     0.167 HD
BRANCH  11  13
HETATM   13  C   UNL     1      25.229  42.459  50.649  1.00  0.00     0.036 A 
HETATM   14  C   UNL     1      26.476  41.924  51.006  1.00  0.00     0.069 A 
HETATM   15  C   UNL     1      27.078  40.938  50.221  1.00  0.00     0.104 A 
HETATM   16  C   UNL     1      26.443  40.471  49.069  1.00  0.00     0.102 A 
HETATM   17  O   UNL     1      28.301  40.478  50.645  1.00  0.00    -0.346 OA
HETATM   18  O   UNL     1      26.989  39.527  48.237  1.00  0.00    -0.346 OA
HETATM   19  C   UNL     1      25.186  40.956  48.728  1.00  0.00     0.042 A 
HETATM   20  C   UNL     1      28.388  39.364  48.486  1.00  0.00     0.202 C 
HETATM   21  C   UNL     1      28.660  39.262  49.978  1.00  0.00     0.202 C 
HETATM   22  C   UNL     1      24.582  41.938  49.519  1.00  0.00     0.032 A 
ENDBRANCH  11  13
ENDBRANCH   8  11
BRANCH   6  23
HETATM   23  C   UNL     1      24.322  47.826  49.675  1.00  0.00     0.029 A 
HETATM   24  C   UNL     1      23.064  47.673  49.092  1.00  0.00     0.131 A 
HETATM   25  N   UNL     1      22.550  48.468  48.115  1.00  0.00    -0.272 NA
HETATM   26  C   UNL     1      23.330  49.481  47.689  1.00  0.00     0.116 A 
HETATM   27  C   UNL     1      24.594  49.735  48.188  1.00  0.00     0.020 A 
HETATM   28  C   UNL     1      25.089  48.898  49.188  1.00  0.00     0.018 A 
ENDBRANCH   6  23
TORSDOF 3
ENDMDL
MODEL 7
REMARK VINA RESULT:      -8.5      2.907      6.529
REMARK  3 active torsions:
REMARK  status: ('A' for Active; 'I' for Inactive)
REMARK    1  A    between atoms: C_6  and  C_7 
REMARK    2  A    between atoms: C_14  and  N_15 
REMARK    3  A    between atoms: N_15  and  C_16 
ROOT
HETATM    1  C   UNL     1      24.265  45.864  50.155  1.00  0.00     0.001 A 
HETATM    2  C   UNL     1      24.778  44.622  50.520  1.00  0.00     0.018 A 
HETATM    3  C   UNL     1      25.789  44.514  51.509  1.00  0.00     0.039 A 
HETATM    4  C   UNL     1      26.286  45.673  52.116  1.00  0.00     0.073 A 
HETATM    5  N   UNL     1      27.247  45.651  53.044  1.00  0.00    -0.228 NA
HETATM    6  C   UNL     1      27.749  44.457  53.390  1.00  0.00     0.164 A 
HETATM    7  N   UNL     1      27.349  43.287  52.870  1.00  0.00    -0.210 NA
HETATM    8  C   UNL     1      26.374  43.312  51.944  1.00  0.00     0.143 A 
HETATM    9  C   UNL     1      25.758  46.901  51.735  1.00  0.00     0.032 A 
HETATM   10  C   UNL     1      24.756  47.009  50.768  1.00  0.00     0.002 A 
ENDROOT
BRANCH   8  11
HETATM   11  N   UNL     1      25.904  42.080  51.410  1.00  0.00    -0.340 N 
HETATM   12  H   UNL     1      25.556  41.507  52.172  1.00  0.00     0.167 HD
BRANCH  11  13
HETATM   13  C   UNL     1      26.513  41.303  50.399  1.00  0.00     0.036 A 
HETATM   14  C   UNL     1      26.043  41.395  49.080  1.00  0.00     0.069 A 
HETATM   15  C   UNL     1      26.664  40.684  48.051  1.00  0.00     0.104 A 
HETATM   16  C   UNL     1      27.765  39.870  48.324  1.00  0.00     0.102 A 
HETATM   17  O   UNL     1      26.132  40.831  46.794  1.00  0.00    -0.346 OA
HETATM   18  O   UNL     1      28.405  39.122  47.370  1.00  0.00    -0.346 OA
HETATM   19  C   UNL     1      28.273  39.805  49.617  1.00  0.00     0.042 A 
HETATM   20  C   UNL     1      27.607  38.997  46.188  1.00  0.00     0.202 C 
HETATM   21  C   UNL     1      27.027  40.343  45.788  1.00  0.00     0.202 C 
HETATM   22  C   UNL     1      27.653  40.524  50.644  1.00  0.00     0.032 A 
ENDBRANCH  11  13
ENDBRANCH   8  11
BRANCH   6  23
HETATM   23  C   UNL     1      28.795  44.417  54.420  1.00  0.00     0.029 A 
HETATM   24  C   UNL     1      28.947  45.439  55.357  1.00  0.00     0.131 A 
HETATM   25  N   UNL     1      29.887  45.468  56.340  1.00  0.00    -0.272 NA
HETATM   26  C   UNL     1      30.729  44.418  56.402  1.00  0.00     0.116 A 
HETATM   27  C   UNL     1      30.678  43.346  55.531  1.00  0.00     0.020 A 
HETATM   28  C   UNL     1      29.703  43.350  54.534  1.00  0.00     0.018 A 
ENDBRANCH   6  23
TORSDOF 3
ENDMDL
MODEL 8
REMARK VINA RESULT:      -8.4      1.876      4.769
REMARK  3 active torsions:
REMARK  status: ('A' for Active; 'I' for Inactive)
REMARK    1  A    between atoms: C_6  and  C_7 
REMARK    2  A    between atoms: C_14  and  N_15 
REMARK    3  A    between atoms: N_15  and  C_16 
ROOT
HETATM    1  C   UNL     1      25.543  41.471  48.206  1.00  0.00     0.001 A 
HETATM    2  C   UNL     1      25.095  42.398  49.144  1.00  0.00     0.018 A 
HETATM    3  C   UNL     1      25.909  42.774  50.243  1.00  0.00     0.039 A 
HETATM    4  C   UNL     1      27.175  42.195  50.393  1.00  0.00     0.073 A 
HETATM    5  N   UNL     1      27.991  42.488  51.409  1.00  0.00    -0.228 NA
HETATM    6  C   UNL     1      27.557  43.374  52.319  1.00  0.00     0.164 A 
HETATM    7  N   UNL     1      26.364  43.984  52.272  1.00  0.00    -0.210 NA
HETATM    8  C   UNL     1      25.549  43.694  51.243  1.00  0.00     0.143 A 
HETATM    9  C   UNL     1      27.600  41.273  49.444  1.00  0.00     0.032 A 
HETATM   10  C   UNL     1      26.803  40.908  48.356  1.00  0.00     0.002 A 
ENDROOT
BRANCH   8  11
HETATM   11  N   UNL     1      24.296  44.362  51.152  1.00  0.00    -0.340 N 
HETATM   12  H   UNL     1      23.557  43.668  51.158  1.00  0.00     0.167 HD
BRANCH  11  13
HETATM   13  C   UNL     1      23.978  45.467  50.330  1.00  0.00     0.036 A 
HETATM   14  C   UNL     1      24.780  46.618  50.380  1.00  0.00     0.069 A 
HETATM   15  C   UNL     1      24.524  47.701  49.537  1.00  0.00     0.104 A 
HETATM   16  C   UNL     1      23.463  47.651  48.631  1.00  0.00     0.102 A 
HETATM   17  O   UNL     1      25.357  48.786  49.660  1.00  0.00    -0.346 OA
HETATM   18  O   UNL     1      23.136  48.687  47.795  1.00  0.00    -0.346 OA
HETATM   19  C   UNL     1      22.689  46.500  48.535  1.00  0.00     0.042 A 
HETATM   20  C   UNL     1      23.758  49.907  48.213  1.00  0.00     0.202 C 
HETATM   21  C   UNL     1      25.222  49.675  48.546  1.00  0.00     0.202 C 
HETATM   22  C   UNL     1      22.952  45.414  49.376  1.00  0.00     0.032 A 
ENDBRANCH  11  13
ENDBRANCH   8  11
BRANCH   6  23
HETATM   23  C   UNL     1      28.451  43.717  53.432  1.00  0.00     0.029 A 
HETATM   24  C   UNL     1      28.240  44.844  54.227  1.00  0.00     0.131 A 
HETATM   25  N   UNL     1      29.020  45.222  55.275  1.00  0.00    -0.272 NA
HETATM   26  C   UNL     1      30.076  44.433  55.557  1.00  0.00     0.116 A 
HETATM   27  C   UNL     1      30.389  43.291  54.843  1.00  0.00     0.020 A 
HETATM   28  C   UNL     1      29.568  42.935  53.773  1.00  0.00     0.018 A 
ENDBRANCH   6  23
TORSDOF 3
ENDMDL
MODEL 9
REMARK VINA RESULT:      -8.4     12.243     14.363
REMARK  3 active torsions:
REMARK  status: ('A' for Active; 'I' for Inactive)
REMARK    1  A    between atoms: C_6  and  C_7 
REMARK    2  A    between atoms: C_14  and  N_15 
REMARK    3  A    between atoms: N_15  and  C_16 
ROOT
HETATM    1  C   UNL     1      29.738  53.502  40.200  1.00  0.00     0.001 A 
HETATM    2  C   UNL     1      30.271  52.536  41.051  1.00  0.00     0.018 A 
HETATM    3  C   UNL     1      29.914  51.170  40.915  1.00  0.00     0.039 A 
HETATM    4  C   UNL     1      29.005  50.791  39.920  1.00  0.00     0.073 A 
HETATM    5  N   UNL     1      28.611  49.527  39.741  1.00  0.00    -0.228 NA
HETATM    6  C   UNL     1      29.115  48.596  40.566  1.00  0.00     0.164 A 
HETATM    7  N   UNL     1      29.988  48.851  41.552  1.00  0.00    -0.210 NA
HETATM    8  C   UNL     1      30.391  50.122  41.722  1.00  0.00     0.143 A 
HETATM    9  C   UNL     1      28.488  51.772  39.084  1.00  0.00     0.032 A 
HETATM   10  C   UNL     1      28.845  53.117  39.210  1.00  0.00     0.002 A 
ENDROOT
BRANCH   8  11
HETATM   11  N   UNL     1      31.349  50.408  42.734  1.00  0.00    -0.340 N 
HETATM   12  H   UNL     1      30.951  51.083  43.378  1.00  0.00     0.167 HD
BRANCH  11  13
HETATM   13  C   UNL     1      32.739  50.598  42.561  1.00  0.00     0.036 A 
HETATM   14  C   UNL     1      33.412  51.537  43.357  1.00  0.00     0.069 A 
HETATM   15  C   UNL     1      34.795  51.702  43.249  1.00  0.00     0.104 A 
HETATM   16  C   UNL     1      35.526  50.930  42.343  1.00  0.00     0.102 A 
HETATM   17  O   UNL     1      35.367  52.648  44.063  1.00  0.00    -0.346 OA
HETATM   18  O   UNL     1      36.879  51.059  42.163  1.00  0.00    -0.346 OA
HETATM   19  C   UNL     1      34.881  49.962  41.582  1.00  0.00     0.042 A 
HETATM   20  C   UNL     1      37.362  52.284  42.724  1.00  0.00     0.202 C 
HETATM   21  C   UNL     1      36.790  52.499  44.115  1.00  0.00     0.202 C 
HETATM   22  C   UNL     1      33.498  49.794  41.698  1.00  0.00     0.032 A 
ENDBRANCH  11  13
ENDBRANCH   8  11
BRANCH   6  23
HETATM   23  C   UNL     1      28.703  47.201  40.371  1.00  0.00     0.029 A 
HETATM   24  C   UNL     1      29.486  46.292  39.658  1.00  0.00     0.131 A 
HETATM   25  N   UNL     1      29.172  44.987  39.441  1.00  0.00    -0.272 NA
HETATM   26  C   UNL     1      28.009  44.551  39.965  1.00  0.00     0.116 A 
HETATM   27  C   UNL     1      27.148  45.354  40.689  1.00  0.00     0.020 A 
HETATM   28  C   UNL     1      27.502  46.688  40.890  1.00  0.00     0.018 A 
ENDBRANCH   6  23
TORSDOF 3
ENDMDL
MODEL 10
REMARK VINA RESULT:      -8.3      4.373      8.957
REMARK  3 active torsions:
REMARK  status: ('A' for Active; 'I' for Inactive)
REMARK    1  A    between atoms: C_6  and  C_7 
REMARK    2  A    between atoms: C_14  and  N_15 
REMARK    3  A    between atoms: N_15  and  C_16 
ROOT
HETATM    1  C   UNL     1      27.628  48.848  49.227  1.00  0.00     0.001 A 
HETATM    2  C   UNL     1      26.629  47.992  49.686  1.00  0.00     0.018 A 
HETATM    3  C   UNL     1      25.264  48.242  49.391  1.00  0.00     0.039 A 
HETATM    4  C   UNL     1      24.917  49.370  48.640  1.00  0.00     0.073 A 
HETATM    5  N   UNL     1      23.653  49.678  48.335  1.00  0.00    -0.228 NA
HETATM    6  C   UNL     1      22.689  48.860  48.785  1.00  0.00     0.164 A 
HETATM    7  N   UNL     1      22.911  47.757  49.514  1.00  0.00    -0.210 NA
HETATM    8  C   UNL     1      24.185  47.444  49.810  1.00  0.00     0.143 A 
HETATM    9  C   UNL     1      25.931  50.209  48.192  1.00  0.00     0.032 A 
HETATM   10  C   UNL     1      27.277  49.960  48.474  1.00  0.00     0.002 A 
ENDROOT
BRANCH   8  11
HETATM   11  N   UNL     1      24.446  46.256  50.546  1.00  0.00    -0.340 N 
HETATM   12  H   UNL     1      23.571  45.764  50.692  1.00  0.00     0.167 HD
BRANCH  11  13
HETATM   13  C   UNL     1      25.325  46.109  51.643  1.00  0.00     0.036 A 
HETATM   14  C   UNL     1      25.395  47.121  52.611  1.00  0.00     0.069 A 
HETATM   15  C   UNL     1      26.211  46.976  53.736  1.00  0.00     0.104 A 
HETATM   16  C   UNL     1      26.969  45.815  53.909  1.00  0.00     0.102 A 
HETATM   17  O   UNL     1      26.221  48.019  54.627  1.00  0.00    -0.346 OA
HETATM   18  O   UNL     1      27.813  45.617  54.971  1.00  0.00    -0.346 OA
HETATM   19  C   UNL     1      26.874  44.783  52.982  1.00  0.00     0.042 A 
HETATM   20  C   UNL     1      28.088  46.847  55.651  1.00  0.00     0.202 C 
HETATM   21  C   UNL     1      26.808  47.634  55.876  1.00  0.00     0.202 C 
HETATM   22  C   UNL     1      26.051  44.929  51.862  1.00  0.00     0.032 A 
ENDBRANCH  11  13
ENDBRANCH   8  11
BRANCH   6  23
HETATM   23  C   UNL     1      21.296  49.178  48.444  1.00  0.00     0.029 A 
HETATM   24  C   UNL     1      20.968  50.223  47.581  1.00  0.00     0.131 A 
HETATM   25  N   UNL     1      19.705  50.573  47.217  1.00  0.00    -0.272 NA
HETATM   26  C   UNL     1      18.702  49.838  47.738  1.00  0.00     0.116 A 
HETATM   27  C   UNL     1      18.900  48.779  48.603  1.00  0.00     0.020 A 
HETATM   28  C   UNL     1      20.209  48.450  48.957  1.00  0.00     0.018 A 
ENDBRANCH   6  23
TORSDOF 3
ENDMDL
