MODEL 1
REMARK VINA RESULT:     -10.2      0.000      0.000
REMARK  9 active torsions:
REMARK  status: ('A' for Active; 'I' for Inactive)
REMARK    1  A    between atoms: C_4  and  C_5 
REMARK    2  A    between atoms: N_10  and  C_11 
REMARK    3  A    between atoms: C_11  and  C_12 
REMARK    4  A    between atoms: C_12  and  C_13 
REMARK    5  A    between atoms: C_13  and  C_14 
REMARK    6  A    between atoms: C_14  and  C_15 
REMARK    7  A    between atoms: C_15  and  C_16 
REMARK       I    between atoms: C_16  and  N_17 
REMARK    8  A    between atoms: N_17  and  C_18 
REMARK    9  A    between atoms: C_26  and  C_27 
REMARK       I    between atoms: C_27  and  N_28 
ROOT
HETATM    1  C   UNL     1      25.016  45.433  51.160  1.00  0.00     0.103 C 
ENDROOT
BRANCH   1   2
HETATM    2  C   UNL     1      26.250  45.604  50.270  1.00  0.00     0.009 C 
BRANCH   2   3
HETATM    3  C   UNL     1      26.436  47.046  49.782  1.00  0.00     0.002 C 
BRANCH   3   4
HETATM    4  C   UNL     1      25.203  47.905  50.067  1.00  0.00     0.020 C 
BRANCH   4   5
HETATM    5  C   UNL     1      24.650  48.605  48.819  1.00  0.00     0.134 C 
BRANCH   5   6
HETATM    6  N   UNL     1      23.217  48.864  48.966  1.00  0.00    -0.298 N 
HETATM    7  C   UNL     1      22.221  47.933  48.753  1.00  0.00     0.148 C 
HETATM    8  S   UNL     1      20.646  48.702  48.908  1.00  0.00    -0.055 SA
HETATM    9  S   UNL     1      22.379  46.313  48.387  1.00  0.00    -0.052 SA
HETATM   10  C   UNL     1      21.326  50.264  49.099  1.00  0.00     0.076 C 
HETATM   11  C   UNL     1      20.719  51.459  49.098  1.00  0.00     0.036 C 
HETATM   12  C   UNL     1      22.805  50.162  49.218  1.00  0.00     0.266 C 
HETATM   13  O   UNL     1      23.534  51.113  49.465  1.00  0.00    -0.266 OA
BRANCH  11  14
HETATM   14  C   UNL     1      19.295  51.764  48.899  1.00  0.00    -0.035 A 
HETATM   15  C   UNL     1      18.764  51.676  47.605  1.00  0.00     0.011 A 
HETATM   16  C   UNL     1      17.401  51.882  47.378  1.00  0.00     0.001 A 
HETATM   17  C   UNL     1      16.553  52.173  48.444  1.00  0.00     0.000 A 
HETATM   18  C   UNL     1      17.065  52.248  49.737  1.00  0.00     0.001 A 
HETATM   19  C   UNL     1      18.426  52.032  49.965  1.00  0.00     0.011 A 
ENDBRANCH  11  14
ENDBRANCH   5   6
ENDBRANCH   4   5
ENDBRANCH   3   4
ENDBRANCH   2   3
ENDBRANCH   1   2
BRANCH   1  20
HETATM   20  C   UNL     1      24.746  43.998  51.571  1.00  0.00     0.222 C 
HETATM   21  N   UNL     1      25.455  43.373  52.554  1.00  0.00    -0.320 N 
HETATM   22  H   UNL     1      25.133  42.412  52.685  1.00  0.00     0.169 HD
HETATM   23  O   UNL     1      23.845  43.344  51.031  1.00  0.00    -0.273 OA
BRANCH  21  24
HETATM   24  C   UNL     1      26.498  43.747  53.386  1.00  0.00     0.093 A 
HETATM   25  S   UNL     1      26.428  45.117  54.377  1.00  0.00    -0.075 SA
HETATM   26  C   UNL     1      28.008  44.902  54.934  1.00  0.00    -0.008 A 
HETATM   27  C   UNL     1      28.605  43.764  54.425  1.00  0.00    -0.026 A 
HETATM   28  C   UNL     1      28.638  45.876  55.881  1.00  0.00     0.047 C 
HETATM   29  C   UNL     1      30.040  43.440  54.748  1.00  0.00     0.041 C 
HETATM   30  C   UNL     1      27.710  43.067  53.517  1.00  0.00     0.072 A 
HETATM   31  C   UNL     1      30.575  44.254  55.939  1.00  0.00     0.005 C 
HETATM   32  C   UNL     1      30.163  45.727  55.859  1.00  0.00     0.005 C 
BRANCH  30  33
HETATM   33  C   UNL     1      27.966  41.838  52.762  1.00  0.00     0.252 C 
HETATM   34  N   UNL     1      27.740  40.661  53.412  1.00  0.00    -0.366 N 
HETATM   35  H   UNL     1      27.126  40.637  54.213  1.00  0.00     0.159 HD
HETATM   36  H   UNL     1      27.761  39.836  52.825  1.00  0.00     0.159 HD
HETATM   37  O   UNL     1      28.285  41.833  51.577  1.00  0.00    -0.268 OA
ENDBRANCH  30  33
ENDBRANCH  21  24
ENDBRANCH   1  20
TORSDOF 9
ENDMDL
MODEL 2
REMARK VINA RESULT:     -10.0      1.313      2.030
REMARK  9 active torsions:
REMARK  status: ('A' for Active; 'I' for Inactive)
REMARK    1  A    between atoms: C_4  and  C_5 
REMARK    2  A    between atoms: N_10  and  C_11 
REMARK    3  A    between atoms: C_11  and  C_12 
REMARK    4  A    between atoms: C_12  and  C_13 
REMARK    5  A    between atoms: C_13  and  C_14 
REMARK    6  A    between atoms: C_14  and  C_15 
REMARK    7  A    between atoms: C_15  and  C_16 
REMARK       I    between atoms: C_16  and  N_17 
REMARK    8  A    between atoms: N_17  and  C_18 
REMARK    9  A    between atoms: C_26  and  C_27 
REMARK       I    between atoms: C_27  and  N_28 
ROOT
HETATM    1  C   UNL     1      26.682  44.280  50.535  1.00  0.00     0.103 C 
ENDROOT
BRANCH   1   2
HETATM    2  C   UNL     1      25.644  45.337  50.148  1.00  0.00     0.009 C 
BRANCH   2   3
HETATM    3  C   UNL     1      26.259  46.727  49.944  1.00  0.00     0.002 C 
BRANCH   3   4
HETATM    4  C   UNL     1      25.234  47.839  50.165  1.00  0.00     0.020 C 
BRANCH   4   5
HETATM    5  C   UNL     1      24.675  48.417  48.858  1.00  0.00     0.134 C 
BRANCH   5   6
HETATM    6  N   UNL     1      23.247  48.711  48.994  1.00  0.00    -0.298 N 
HETATM    7  C   UNL     1      22.231  47.803  48.778  1.00  0.00     0.148 C 
HETATM    8  S   UNL     1      20.674  48.610  48.919  1.00  0.00    -0.055 SA
HETATM    9  S   UNL     1      22.351  46.178  48.422  1.00  0.00    -0.052 SA
HETATM   10  C   UNL     1      21.390  50.157  49.107  1.00  0.00     0.076 C 
HETATM   11  C   UNL     1      20.811  51.366  49.096  1.00  0.00     0.036 C 
HETATM   12  C   UNL     1      22.865  50.020  49.237  1.00  0.00     0.266 C 
HETATM   13  O   UNL     1      23.615  50.954  49.484  1.00  0.00    -0.266 OA
BRANCH  11  14
HETATM   14  C   UNL     1      19.397  51.704  48.886  1.00  0.00    -0.035 A 
HETATM   15  C   UNL     1      18.861  51.580  47.596  1.00  0.00     0.011 A 
HETATM   16  C   UNL     1      17.505  51.816  47.363  1.00  0.00     0.001 A 
HETATM   17  C   UNL     1      16.667  52.175  48.416  1.00  0.00     0.000 A 
HETATM   18  C   UNL     1      17.184  52.286  49.705  1.00  0.00     0.001 A 
HETATM   19  C   UNL     1      18.538  52.040  49.941  1.00  0.00     0.011 A 
ENDBRANCH  11  14
ENDBRANCH   5   6
ENDBRANCH   4   5
ENDBRANCH   3   4
ENDBRANCH   2   3
ENDBRANCH   1   2
BRANCH   1  20
HETATM   20  C   UNL     1      26.112  43.116  51.325  1.00  0.00     0.222 C 
HETATM   21  N   UNL     1      26.575  42.773  52.561  1.00  0.00    -0.320 N 
HETATM   22  H   UNL     1      26.073  41.964  52.929  1.00  0.00     0.169 HD
HETATM   23  O   UNL     1      25.179  42.443  50.872  1.00  0.00    -0.273 OA
BRANCH  21  24
HETATM   24  C   UNL     1      27.563  43.267  53.398  1.00  0.00     0.093 A 
HETATM   25  S   UNL     1      29.044  42.480  53.624  1.00  0.00    -0.075 SA
HETATM   26  C   UNL     1      29.569  43.610  54.765  1.00  0.00    -0.008 A 
HETATM   27  C   UNL     1      28.661  44.633  54.962  1.00  0.00    -0.026 A 
HETATM   28  C   UNL     1      30.891  43.463  55.454  1.00  0.00     0.047 C 
HETATM   29  C   UNL     1      28.918  45.698  55.997  1.00  0.00     0.041 C 
HETATM   30  C   UNL     1      27.475  44.443  54.144  1.00  0.00     0.072 A 
HETATM   31  C   UNL     1      30.381  45.720  56.471  1.00  0.00     0.005 C 
HETATM   32  C   UNL     1      30.921  44.310  56.730  1.00  0.00     0.005 C 
BRANCH  30  33
HETATM   33  C   UNL     1      26.281  45.289  54.074  1.00  0.00     0.252 C 
HETATM   34  N   UNL     1      26.450  46.548  53.578  1.00  0.00    -0.366 N 
HETATM   35  H   UNL     1      27.246  46.756  52.993  1.00  0.00     0.159 HD
HETATM   36  H   UNL     1      25.593  47.050  53.383  1.00  0.00     0.159 HD
HETATM   37  O   UNL     1      25.157  44.887  54.358  1.00  0.00    -0.268 OA
ENDBRANCH  30  33
ENDBRANCH  21  24
ENDBRANCH   1  20
TORSDOF 9
ENDMDL
MODEL 3
REMARK VINA RESULT:      -9.2      3.539      9.883
REMARK  9 active torsions:
REMARK  status: ('A' for Active; 'I' for Inactive)
REMARK    1  A    between atoms: C_4  and  C_5 
REMARK    2  A    between atoms: N_10  and  C_11 
REMARK    3  A    between atoms: C_11  and  C_12 
REMARK    4  A    between atoms: C_12  and  C_13 
REMARK    5  A    between atoms: C_13  and  C_14 
REMARK    6  A    between atoms: C_14  and  C_15 
REMARK    7  A    between atoms: C_15  and  C_16 
REMARK       I    between atoms: C_16  and  N_17 
REMARK    8  A    between atoms: N_17  and  C_18 
REMARK    9  A    between atoms: C_26  and  C_27 
REMARK       I    between atoms: C_27  and  N_28 
ROOT
HETATM    1  C   UNL     1      23.550  43.540  48.566  1.00  0.00     0.103 C 
ENDROOT
BRANCH   1   2
HETATM    2  C   UNL     1      23.857  42.041  48.504  1.00  0.00     0.009 C 
BRANCH   2   3
HETATM    3  C   UNL     1      25.253  41.742  47.944  1.00  0.00     0.002 C 
BRANCH   3   4
HETATM    4  C   UNL     1      26.007  40.730  48.806  1.00  0.00     0.020 C 
BRANCH   4   5
HETATM    5  C   UNL     1      25.678  40.842  50.301  1.00  0.00     0.134 C 
BRANCH   5   6
HETATM    6  N   UNL     1      26.822  41.376  51.042  1.00  0.00    -0.298 N 
HETATM    7  C   UNL     1      28.051  40.758  51.149  1.00  0.00     0.148 C 
HETATM    8  S   UNL     1      29.085  41.675  52.237  1.00  0.00    -0.055 SA
HETATM    9  S   UNL     1      28.571  39.353  50.414  1.00  0.00    -0.052 SA
HETATM   10  C   UNL     1      27.833  42.771  52.650  1.00  0.00     0.076 C 
HETATM   11  C   UNL     1      27.806  43.704  53.612  1.00  0.00     0.036 C 
HETATM   12  C   UNL     1      26.641  42.524  51.795  1.00  0.00     0.266 C 
HETATM   13  O   UNL     1      25.640  43.227  51.806  1.00  0.00    -0.266 OA
BRANCH  11  14
HETATM   14  C   UNL     1      28.839  44.026  54.607  1.00  0.00    -0.035 A 
HETATM   15  C   UNL     1      29.823  43.067  54.887  1.00  0.00     0.011 A 
HETATM   16  C   UNL     1      30.868  43.356  55.767  1.00  0.00     0.001 A 
HETATM   17  C   UNL     1      30.944  44.608  56.374  1.00  0.00     0.000 A 
HETATM   18  C   UNL     1      29.981  45.575  56.091  1.00  0.00     0.001 A 
HETATM   19  C   UNL     1      28.942  45.289  55.204  1.00  0.00     0.011 A 
ENDBRANCH  11  14
ENDBRANCH   5   6
ENDBRANCH   4   5
ENDBRANCH   3   4
ENDBRANCH   2   3
ENDBRANCH   1   2
BRANCH   1  20
HETATM   20  C   UNL     1      23.165  44.034  49.947  1.00  0.00     0.222 C 
HETATM   21  N   UNL     1      23.582  45.237  50.437  1.00  0.00    -0.320 N 
HETATM   22  H   UNL     1      23.226  45.392  51.381  1.00  0.00     0.169 HD
HETATM   23  O   UNL     1      22.431  43.358  50.679  1.00  0.00    -0.273 OA
BRANCH  21  24
HETATM   24  C   UNL     1      24.373  46.263  49.945  1.00  0.00     0.093 A 
HETATM   25  S   UNL     1      26.061  46.246  50.056  1.00  0.00    -0.075 SA
HETATM   26  C   UNL     1      26.209  47.776  49.356  1.00  0.00    -0.008 A 
HETATM   27  C   UNL     1      24.992  48.312  48.977  1.00  0.00    -0.026 A 
HETATM   28  C   UNL     1      27.547  48.430  49.190  1.00  0.00     0.047 C 
HETATM   29  C   UNL     1      24.911  49.702  48.401  1.00  0.00     0.041 C 
HETATM   30  C   UNL     1      23.900  47.413  49.310  1.00  0.00     0.072 A 
HETATM   31  C   UNL     1      26.283  50.236  47.954  1.00  0.00     0.005 C 
HETATM   32  C   UNL     1      27.378  49.939  48.983  1.00  0.00     0.005 C 
BRANCH  30  33
HETATM   33  C   UNL     1      22.466  47.615  49.092  1.00  0.00     0.252 C 
HETATM   34  N   UNL     1      21.913  48.732  49.645  1.00  0.00    -0.366 N 
HETATM   35  H   UNL     1      22.499  49.519  49.882  1.00  0.00     0.159 HD
HETATM   36  H   UNL     1      20.969  48.938  49.343  1.00  0.00     0.159 HD
HETATM   37  O   UNL     1      21.786  46.881  48.382  1.00  0.00    -0.268 OA
ENDBRANCH  30  33
ENDBRANCH  21  24
ENDBRANCH   1  20
TORSDOF 9
ENDMDL
MODEL 4
REMARK VINA RESULT:      -8.9      2.210     11.039
REMARK  9 active torsions:
REMARK  status: ('A' for Active; 'I' for Inactive)
REMARK    1  A    between atoms: C_4  and  C_5 
REMARK    2  A    between atoms: N_10  and  C_11 
REMARK    3  A    between atoms: C_11  and  C_12 
REMARK    4  A    between atoms: C_12  and  C_13 
REMARK    5  A    between atoms: C_13  and  C_14 
REMARK    6  A    between atoms: C_14  and  C_15 
REMARK    7  A    between atoms: C_15  and  C_16 
REMARK       I    between atoms: C_16  and  N_17 
REMARK    8  A    between atoms: N_17  and  C_18 
REMARK    9  A    between atoms: C_26  and  C_27 
REMARK       I    between atoms: C_27  and  N_28 
ROOT
HETATM    1  C   UNL     1      22.499  45.825  48.203  1.00  0.00     0.103 C 
ENDROOT
BRANCH   1   2
HETATM    2  C   UNL     1      21.913  44.568  48.851  1.00  0.00     0.009 C 
BRANCH   2   3
HETATM    3  C   UNL     1      22.638  43.286  48.424  1.00  0.00     0.002 C 
BRANCH   3   4
HETATM    4  C   UNL     1      24.089  43.268  48.906  1.00  0.00     0.020 C 
BRANCH   4   5
HETATM    5  C   UNL     1      24.266  42.599  50.276  1.00  0.00     0.134 C 
BRANCH   5   6
HETATM    6  N   UNL     1      25.571  42.932  50.848  1.00  0.00    -0.298 N 
HETATM    7  C   UNL     1      26.775  42.414  50.419  1.00  0.00     0.148 C 
HETATM    8  S   UNL     1      28.071  42.977  51.468  1.00  0.00    -0.055 SA
HETATM    9  S   UNL     1      27.065  41.395  49.130  1.00  0.00    -0.052 SA
HETATM   10  C   UNL     1      26.987  43.760  52.540  1.00  0.00     0.076 C 
HETATM   11  C   UNL     1      27.226  44.297  53.745  1.00  0.00     0.036 C 
HETATM   12  C   UNL     1      25.610  43.731  51.979  1.00  0.00     0.266 C 
HETATM   13  O   UNL     1      24.657  44.305  52.487  1.00  0.00    -0.266 OA
BRANCH  11  14
HETATM   14  C   UNL     1      28.487  44.336  54.498  1.00  0.00    -0.035 A 
HETATM   15  C   UNL     1      28.778  45.474  55.262  1.00  0.00     0.011 A 
HETATM   16  C   UNL     1      29.927  45.526  56.055  1.00  0.00     0.001 A 
HETATM   17  C   UNL     1      30.795  44.437  56.096  1.00  0.00     0.000 A 
HETATM   18  C   UNL     1      30.509  43.293  55.354  1.00  0.00     0.001 A 
HETATM   19  C   UNL     1      29.355  43.238  54.570  1.00  0.00     0.011 A 
ENDBRANCH  11  14
ENDBRANCH   5   6
ENDBRANCH   4   5
ENDBRANCH   3   4
ENDBRANCH   2   3
ENDBRANCH   1   2
BRANCH   1  20
HETATM   20  C   UNL     1      23.138  46.786  49.189  1.00  0.00     0.222 C 
HETATM   21  N   UNL     1      22.650  48.040  49.410  1.00  0.00    -0.320 N 
HETATM   22  H   UNL     1      23.215  48.536  50.101  1.00  0.00     0.169 HD
HETATM   23  O   UNL     1      24.128  46.447  49.849  1.00  0.00    -0.273 OA
BRANCH  21  24
HETATM   24  C   UNL     1      21.587  48.771  48.903  1.00  0.00     0.093 A 
HETATM   25  S   UNL     1      20.430  48.099  47.868  1.00  0.00    -0.075 SA
HETATM   26  C   UNL     1      19.621  49.569  47.677  1.00  0.00    -0.008 A 
HETATM   27  C   UNL     1      20.175  50.587  48.430  1.00  0.00    -0.026 A 
HETATM   28  C   UNL     1      18.433  49.692  46.773  1.00  0.00     0.047 C 
HETATM   29  C   UNL     1      19.638  51.991  48.335  1.00  0.00     0.041 C 
HETATM   30  C   UNL     1      21.333  50.117  49.171  1.00  0.00     0.072 A 
HETATM   31  C   UNL     1      18.256  52.051  47.662  1.00  0.00     0.005 C 
HETATM   32  C   UNL     1      18.186  51.161  46.417  1.00  0.00     0.005 C 
BRANCH  30  33
HETATM   33  C   UNL     1      22.205  50.882  50.065  1.00  0.00     0.252 C 
HETATM   34  N   UNL     1      21.729  51.134  51.317  1.00  0.00    -0.366 N 
HETATM   35  H   UNL     1      20.999  50.555  51.705  1.00  0.00     0.159 HD
HETATM   36  H   UNL     1      22.407  51.513  51.966  1.00  0.00     0.159 HD
HETATM   37  O   UNL     1      23.346  51.218  49.763  1.00  0.00    -0.268 OA
ENDBRANCH  30  33
ENDBRANCH  21  24
ENDBRANCH   1  20
TORSDOF 9
ENDMDL
MODEL 5
REMARK VINA RESULT:      -8.9      3.172     11.452
REMARK  9 active torsions:
REMARK  status: ('A' for Active; 'I' for Inactive)
REMARK    1  A    between atoms: C_4  and  C_5 
REMARK    2  A    between atoms: N_10  and  C_11 
REMARK    3  A    between atoms: C_11  and  C_12 
REMARK    4  A    between atoms: C_12  and  C_13 
REMARK    5  A    between atoms: C_13  and  C_14 
REMARK    6  A    between atoms: C_14  and  C_15 
REMARK    7  A    between atoms: C_15  and  C_16 
REMARK       I    between atoms: C_16  and  N_17 
REMARK    8  A    between atoms: N_17  and  C_18 
REMARK    9  A    between atoms: C_26  and  C_27 
REMARK       I    between atoms: C_27  and  N_28 
ROOT
HETATM    1  C   UNL     1      20.744  45.483  47.476  1.00  0.00     0.103 C 
ENDROOT
BRANCH   1   2
HETATM    2  C   UNL     1      21.702  45.605  48.664  1.00  0.00     0.009 C 
BRANCH   2   3
HETATM    3  C   UNL     1      22.313  44.261  49.076  1.00  0.00     0.002 C 
BRANCH   3   4
HETATM    4  C   UNL     1      23.719  44.429  49.653  1.00  0.00     0.020 C 
BRANCH   4   5
HETATM    5  C   UNL     1      24.109  43.317  50.636  1.00  0.00     0.134 C 
BRANCH   5   6
HETATM    6  N   UNL     1      25.461  43.537  51.152  1.00  0.00    -0.298 N 
HETATM    7  C   UNL     1      26.613  43.035  50.583  1.00  0.00     0.148 C 
HETATM    8  S   UNL     1      27.996  43.425  51.599  1.00  0.00    -0.055 SA
HETATM    9  S   UNL     1      26.777  42.171  49.165  1.00  0.00    -0.052 SA
HETATM   10  C   UNL     1      27.015  44.107  52.829  1.00  0.00     0.076 C 
HETATM   11  C   UNL     1      27.353  44.486  54.070  1.00  0.00     0.036 C 
HETATM   12  C   UNL     1      25.605  44.190  52.364  1.00  0.00     0.266 C 
HETATM   13  O   UNL     1      24.711  44.729  53.001  1.00  0.00    -0.266 OA
BRANCH  11  14
HETATM   14  C   UNL     1      28.660  44.393  54.734  1.00  0.00    -0.035 A 
HETATM   15  C   UNL     1      29.102  45.478  55.503  1.00  0.00     0.011 A 
HETATM   16  C   UNL     1      30.302  45.406  56.214  1.00  0.00     0.001 A 
HETATM   17  C   UNL     1      31.071  44.245  56.168  1.00  0.00     0.000 A 
HETATM   18  C   UNL     1      30.636  43.154  55.420  1.00  0.00     0.001 A 
HETATM   19  C   UNL     1      29.431  43.223  54.717  1.00  0.00     0.011 A 
ENDBRANCH  11  14
ENDBRANCH   5   6
ENDBRANCH   4   5
ENDBRANCH   3   4
ENDBRANCH   2   3
ENDBRANCH   1   2
BRANCH   1  20
HETATM   20  C   UNL     1      19.301  45.233  47.870  1.00  0.00     0.222 C 
HETATM   21  N   UNL     1      18.467  46.235  48.271  1.00  0.00    -0.320 N 
HETATM   22  H   UNL     1      17.540  45.872  48.500  1.00  0.00     0.169 HD
HETATM   23  O   UNL     1      18.820  44.094  47.821  1.00  0.00    -0.273 OA
BRANCH  21  24
HETATM   24  C   UNL     1      18.607  47.603  48.441  1.00  0.00     0.093 A 
HETATM   25  S   UNL     1      19.044  48.298  49.921  1.00  0.00    -0.075 SA
HETATM   26  C   UNL     1      18.908  49.871  49.322  1.00  0.00    -0.008 A 
HETATM   27  C   UNL     1      18.580  49.906  47.979  1.00  0.00    -0.026 A 
HETATM   28  C   UNL     1      19.133  51.062  50.203  1.00  0.00     0.047 C 
HETATM   29  C   UNL     1      18.341  51.220  47.282  1.00  0.00     0.041 C 
HETATM   30  C   UNL     1      18.414  48.564  47.448  1.00  0.00     0.072 A 
HETATM   31  C   UNL     1      18.864  52.420  48.089  1.00  0.00     0.005 C 
HETATM   32  C   UNL     1      18.508  52.312  49.575  1.00  0.00     0.005 C 
BRANCH  30  33
HETATM   33  C   UNL     1      18.052  48.171  46.084  1.00  0.00     0.252 C 
HETATM   34  N   UNL     1      16.807  48.526  45.654  1.00  0.00    -0.366 N 
HETATM   35  H   UNL     1      16.316  49.285  46.104  1.00  0.00     0.159 HD
HETATM   36  H   UNL     1      16.642  48.396  44.664  1.00  0.00     0.159 HD
HETATM   37  O   UNL     1      18.835  47.627  45.312  1.00  0.00    -0.268 OA
ENDBRANCH  30  33
ENDBRANCH  21  24
ENDBRANCH   1  20
TORSDOF 9
ENDMDL
MODEL 6
REMARK VINA RESULT:      -8.7      2.036      2.727
REMARK  9 active torsions:
REMARK  status: ('A' for Active; 'I' for Inactive)
REMARK    1  A    between atoms: C_4  and  C_5 
REMARK    2  A    between atoms: N_10  and  C_11 
REMARK    3  A    between atoms: C_11  and  C_12 
REMARK    4  A    between atoms: C_12  and  C_13 
REMARK    5  A    between atoms: C_13  and  C_14 
REMARK    6  A    between atoms: C_14  and  C_15 
REMARK    7  A    between atoms: C_15  and  C_16 
REMARK       I    between atoms: C_16  and  N_17 
REMARK    8  A    between atoms: N_17  and  C_18 
REMARK    9  A    between atoms: C_26  and  C_27 
REMARK       I    between atoms: C_27  and  N_28 
ROOT
HETATM    1  C   UNL     1      26.912  43.198  50.447  1.00  0.00     0.103 C 
ENDROOT
BRANCH   1   2
HETATM    2  C   UNL     1      25.861  43.447  49.362  1.00  0.00     0.009 C 
BRANCH   2   3
HETATM    3  C   UNL     1      24.764  44.422  49.809  1.00  0.00     0.002 C 
BRANCH   3   4
HETATM    4  C   UNL     1      24.679  45.641  48.890  1.00  0.00     0.020 C 
BRANCH   4   5
HETATM    5  C   UNL     1      24.746  46.975  49.645  1.00  0.00     0.134 C 
BRANCH   5   6
HETATM    6  N   UNL     1      23.957  47.997  48.955  1.00  0.00    -0.298 N 
HETATM    7  C   UNL     1      24.454  49.200  48.496  1.00  0.00     0.148 C 
HETATM    8  S   UNL     1      23.139  50.179  47.855  1.00  0.00    -0.055 SA
HETATM    9  S   UNL     1      26.031  49.744  48.512  1.00  0.00    -0.052 SA
HETATM   10  C   UNL     1      21.942  49.052  48.341  1.00  0.00     0.076 C 
HETATM   11  C   UNL     1      20.608  49.185  48.352  1.00  0.00     0.036 C 
HETATM   12  C   UNL     1      22.588  47.815  48.854  1.00  0.00     0.266 C 
HETATM   13  O   UNL     1      21.971  46.808  49.172  1.00  0.00    -0.266 OA
BRANCH  11  14
HETATM   14  C   UNL     1      19.799  50.354  47.979  1.00  0.00    -0.035 A 
HETATM   15  C   UNL     1      19.060  50.306  46.789  1.00  0.00     0.011 A 
HETATM   16  C   UNL     1      18.218  51.361  46.431  1.00  0.00     0.001 A 
HETATM   17  C   UNL     1      18.102  52.474  47.261  1.00  0.00     0.000 A 
HETATM   18  C   UNL     1      18.819  52.527  48.454  1.00  0.00     0.001 A 
HETATM   19  C   UNL     1      19.653  51.467  48.817  1.00  0.00     0.011 A 
ENDBRANCH  11  14
ENDBRANCH   5   6
ENDBRANCH   4   5
ENDBRANCH   3   4
ENDBRANCH   2   3
ENDBRANCH   1   2
BRANCH   1  20
HETATM   20  C   UNL     1      26.635  41.980  51.306  1.00  0.00     0.222 C 
HETATM   21  N   UNL     1      27.108  41.858  52.579  1.00  0.00    -0.320 N 
HETATM   22  H   UNL     1      26.823  40.970  52.994  1.00  0.00     0.169 HD
HETATM   23  O   UNL     1      25.940  41.050  50.878  1.00  0.00    -0.273 OA
BRANCH  21  24
HETATM   24  C   UNL     1      27.884  42.655  53.406  1.00  0.00     0.093 A 
HETATM   25  S   UNL     1      29.511  42.323  53.729  1.00  0.00    -0.075 SA
HETATM   26  C   UNL     1      29.654  43.621  54.799  1.00  0.00    -0.008 A 
HETATM   27  C   UNL     1      28.493  44.364  54.898  1.00  0.00    -0.026 A 
HETATM   28  C   UNL     1      30.933  43.887  55.534  1.00  0.00     0.047 C 
HETATM   29  C   UNL     1      28.400  45.519  55.861  1.00  0.00     0.041 C 
HETATM   30  C   UNL     1      27.443  43.805  54.064  1.00  0.00     0.072 A 
HETATM   31  C   UNL     1      29.778  45.973  56.372  1.00  0.00     0.005 C 
HETATM   32  C   UNL     1      30.671  44.786  56.747  1.00  0.00     0.005 C 
BRANCH  30  33
HETATM   33  C   UNL     1      26.068  44.282  53.901  1.00  0.00     0.252 C 
HETATM   34  N   UNL     1      25.135  43.762  54.749  1.00  0.00    -0.366 N 
HETATM   35  H   UNL     1      25.423  43.354  55.626  1.00  0.00     0.159 HD
HETATM   36  H   UNL     1      24.235  44.225  54.731  1.00  0.00     0.159 HD
HETATM   37  O   UNL     1      25.754  45.167  53.111  1.00  0.00    -0.268 OA
ENDBRANCH  30  33
ENDBRANCH  21  24
ENDBRANCH   1  20
TORSDOF 9
ENDMDL
MODEL 7
REMARK VINA RESULT:      -8.6      2.073     11.084
REMARK  9 active torsions:
REMARK  status: ('A' for Active; 'I' for Inactive)
REMARK    1  A    between atoms: C_4  and  C_5 
REMARK    2  A    between atoms: N_10  and  C_11 
REMARK    3  A    between atoms: C_11  and  C_12 
REMARK    4  A    between atoms: C_12  and  C_13 
REMARK    5  A    between atoms: C_13  and  C_14 
REMARK    6  A    between atoms: C_14  and  C_15 
REMARK    7  A    between atoms: C_15  and  C_16 
REMARK       I    between atoms: C_16  and  N_17 
REMARK    8  A    between atoms: N_17  and  C_18 
REMARK    9  A    between atoms: C_26  and  C_27 
REMARK       I    between atoms: C_27  and  N_28 
ROOT
HETATM    1  C   UNL     1      21.438  45.297  48.541  1.00  0.00     0.103 C 
ENDROOT
BRANCH   1   2
HETATM    2  C   UNL     1      22.697  44.863  49.297  1.00  0.00     0.009 C 
BRANCH   2   3
HETATM    3  C   UNL     1      22.769  43.346  49.511  1.00  0.00     0.002 C 
BRANCH   3   4
HETATM    4  C   UNL     1      24.015  42.943  50.299  1.00  0.00     0.020 C 
BRANCH   4   5
HETATM    5  C   UNL     1      25.229  43.838  50.017  1.00  0.00     0.134 C 
BRANCH   5   6
HETATM    6  N   UNL     1      25.877  44.238  51.268  1.00  0.00    -0.298 N 
HETATM    7  C   UNL     1      25.865  45.515  51.788  1.00  0.00     0.148 C 
HETATM    8  S   UNL     1      26.876  45.579  53.227  1.00  0.00    -0.055 SA
HETATM    9  S   UNL     1      25.063  46.861  51.215  1.00  0.00    -0.052 SA
HETATM   10  C   UNL     1      27.416  43.964  53.030  1.00  0.00     0.076 C 
HETATM   11  C   UNL     1      28.394  43.312  53.676  1.00  0.00     0.036 C 
HETATM   12  C   UNL     1      26.664  43.309  51.927  1.00  0.00     0.266 C 
HETATM   13  O   UNL     1      26.775  42.125  51.639  1.00  0.00    -0.266 OA
BRANCH  11  14
HETATM   14  C   UNL     1      29.300  43.817  54.717  1.00  0.00    -0.035 A 
HETATM   15  C   UNL     1      28.969  45.009  55.375  1.00  0.00     0.011 A 
HETATM   16  C   UNL     1      29.759  45.487  56.423  1.00  0.00     0.001 A 
HETATM   17  C   UNL     1      30.887  44.776  56.827  1.00  0.00     0.000 A 
HETATM   18  C   UNL     1      31.217  43.581  56.192  1.00  0.00     0.001 A 
HETATM   19  C   UNL     1      30.422  43.098  55.151  1.00  0.00     0.011 A 
ENDBRANCH  11  14
ENDBRANCH   5   6
ENDBRANCH   4   5
ENDBRANCH   3   4
ENDBRANCH   2   3
ENDBRANCH   1   2
BRANCH   1  20
HETATM   20  C   UNL     1      21.711  45.856  47.158  1.00  0.00     0.222 C 
HETATM   21  N   UNL     1      21.248  47.073  46.756  1.00  0.00    -0.320 N 
HETATM   22  H   UNL     1      21.529  47.274  45.794  1.00  0.00     0.169 HD
HETATM   23  O   UNL     1      22.392  45.221  46.343  1.00  0.00    -0.273 OA
BRANCH  21  24
HETATM   24  C   UNL     1      20.489  48.068  47.352  1.00  0.00     0.093 A 
HETATM   25  S   UNL     1      18.806  48.144  47.201  1.00  0.00    -0.075 SA
HETATM   26  C   UNL     1      18.705  49.582  48.080  1.00  0.00    -0.008 A 
HETATM   27  C   UNL     1      19.932  50.010  48.550  1.00  0.00    -0.026 A 
HETATM   28  C   UNL     1      17.393  50.273  48.294  1.00  0.00     0.047 C 
HETATM   29  C   UNL     1      20.057  51.314  49.294  1.00  0.00     0.041 C 
HETATM   30  C   UNL     1      20.993  49.108  48.134  1.00  0.00     0.072 A 
HETATM   31  C   UNL     1      18.699  51.854  49.772  1.00  0.00     0.005 C 
HETATM   32  C   UNL     1      17.621  51.736  48.689  1.00  0.00     0.005 C 
BRANCH  30  33
HETATM   33  C   UNL     1      22.428  49.214  48.408  1.00  0.00     0.252 C 
HETATM   34  N   UNL     1      22.796  49.311  49.718  1.00  0.00    -0.366 N 
HETATM   35  H   UNL     1      22.170  48.991  50.442  1.00  0.00     0.159 HD
HETATM   36  H   UNL     1      23.788  49.214  49.892  1.00  0.00     0.159 HD
HETATM   37  O   UNL     1      23.286  49.136  47.534  1.00  0.00    -0.268 OA
ENDBRANCH  30  33
ENDBRANCH  21  24
ENDBRANCH   1  20
TORSDOF 9
ENDMDL
MODEL 8
REMARK VINA RESULT:      -8.5      3.258     11.085
REMARK  9 active torsions:
REMARK  status: ('A' for Active; 'I' for Inactive)
REMARK    1  A    between atoms: C_4  and  C_5 
REMARK    2  A    between atoms: N_10  and  C_11 
REMARK    3  A    between atoms: C_11  and  C_12 
REMARK    4  A    between atoms: C_12  and  C_13 
REMARK    5  A    between atoms: C_13  and  C_14 
REMARK    6  A    between atoms: C_14  and  C_15 
REMARK    7  A    between atoms: C_15  and  C_16 
REMARK       I    between atoms: C_16  and  N_17 
REMARK    8  A    between atoms: N_17  and  C_18 
REMARK    9  A    between atoms: C_26  and  C_27 
REMARK       I    between atoms: C_27  and  N_28 
ROOT
HETATM    1  C   UNL     1      19.996  45.721  46.501  1.00  0.00     0.103 C 
ENDROOT
BRANCH   1   2
HETATM    2  C   UNL     1      21.471  45.924  46.860  1.00  0.00     0.009 C 
BRANCH   2   3
HETATM    3  C   UNL     1      22.282  44.625  46.797  1.00  0.00     0.002 C 
BRANCH   3   4
HETATM    4  C   UNL     1      23.325  44.553  47.912  1.00  0.00     0.020 C 
BRANCH   4   5
HETATM    5  C   UNL     1      22.808  45.069  49.261  1.00  0.00     0.134 C 
BRANCH   5   6
HETATM    6  N   UNL     1      23.904  45.175  50.227  1.00  0.00    -0.298 N 
HETATM    7  C   UNL     1      24.680  46.299  50.418  1.00  0.00     0.148 C 
HETATM    8  S   UNL     1      25.961  45.947  51.572  1.00  0.00    -0.055 SA
HETATM    9  S   UNL     1      24.523  47.801  49.707  1.00  0.00    -0.052 SA
HETATM   10  C   UNL     1      25.544  44.286  51.666  1.00  0.00     0.076 C 
HETATM   11  C   UNL     1      26.210  43.277  52.244  1.00  0.00     0.036 C 
HETATM   12  C   UNL     1      24.281  44.039  50.922  1.00  0.00     0.266 C 
HETATM   13  O   UNL     1      23.700  42.962  50.910  1.00  0.00    -0.266 OA
BRANCH  11  14
HETATM   14  C   UNL     1      27.507  43.309  52.934  1.00  0.00    -0.035 A 
HETATM   15  C   UNL     1      28.644  42.864  52.247  1.00  0.00     0.011 A 
HETATM   16  C   UNL     1      29.909  42.947  52.834  1.00  0.00     0.001 A 
HETATM   17  C   UNL     1      30.051  43.480  54.112  1.00  0.00     0.000 A 
HETATM   18  C   UNL     1      28.931  43.942  54.800  1.00  0.00     0.001 A 
HETATM   19  C   UNL     1      27.668  43.868  54.209  1.00  0.00     0.011 A 
ENDBRANCH  11  14
ENDBRANCH   5   6
ENDBRANCH   4   5
ENDBRANCH   3   4
ENDBRANCH   2   3
ENDBRANCH   1   2
BRANCH   1  20
HETATM   20  C   UNL     1      19.127  45.310  47.675  1.00  0.00     0.222 C 
HETATM   21  N   UNL     1      18.571  46.217  48.527  1.00  0.00    -0.320 N 
HETATM   22  H   UNL     1      18.025  45.751  49.255  1.00  0.00     0.169 HD
HETATM   23  O   UNL     1      18.876  44.117  47.887  1.00  0.00    -0.273 OA
BRANCH  21  24
HETATM   24  C   UNL     1      18.594  47.600  48.623  1.00  0.00     0.093 A 
HETATM   25  S   UNL     1      19.537  48.419  49.764  1.00  0.00    -0.075 SA
HETATM   26  C   UNL     1      18.954  49.931  49.290  1.00  0.00    -0.008 A 
HETATM   27  C   UNL     1      18.073  49.855  48.226  1.00  0.00    -0.026 A 
HETATM   28  C   UNL     1      19.384  51.185  49.986  1.00  0.00     0.047 C 
HETATM   29  C   UNL     1      17.389  51.093  47.707  1.00  0.00     0.041 C 
HETATM   30  C   UNL     1      17.867  48.477  47.817  1.00  0.00     0.072 A 
HETATM   31  C   UNL     1      18.052  52.388  48.207  1.00  0.00     0.005 C 
HETATM   32  C   UNL     1      18.394  52.319  49.699  1.00  0.00     0.005 C 
BRANCH  30  33
HETATM   33  C   UNL     1      17.002  47.972  46.748  1.00  0.00     0.252 C 
HETATM   34  N   UNL     1      15.707  47.702  47.083  1.00  0.00    -0.366 N 
HETATM   35  H   UNL     1      15.297  48.135  47.897  1.00  0.00     0.159 HD
HETATM   36  H   UNL     1      15.092  47.518  46.302  1.00  0.00     0.159 HD
HETATM   37  O   UNL     1      17.367  47.868  45.581  1.00  0.00    -0.268 OA
ENDBRANCH  30  33
ENDBRANCH  21  24
ENDBRANCH   1  20
TORSDOF 9
ENDMDL
MODEL 9
REMARK VINA RESULT:      -8.3      2.669      3.562
REMARK  9 active torsions:
REMARK  status: ('A' for Active; 'I' for Inactive)
REMARK    1  A    between atoms: C_4  and  C_5 
REMARK    2  A    between atoms: N_10  and  C_11 
REMARK    3  A    between atoms: C_11  and  C_12 
REMARK    4  A    between atoms: C_12  and  C_13 
REMARK    5  A    between atoms: C_13  and  C_14 
REMARK    6  A    between atoms: C_14  and  C_15 
REMARK    7  A    between atoms: C_15  and  C_16 
REMARK       I    between atoms: C_16  and  N_17 
REMARK    8  A    between atoms: N_17  and  C_18 
REMARK    9  A    between atoms: C_26  and  C_27 
REMARK       I    between atoms: C_27  and  N_28 
ROOT
HETATM    1  C   UNL     1      24.952  41.423  49.170  1.00  0.00     0.103 C 
ENDROOT
BRANCH   1   2
HETATM    2  C   UNL     1      24.134  41.161  47.902  1.00  0.00     0.009 C 
BRANCH   2   3
HETATM    3  C   UNL     1      22.844  41.988  47.845  1.00  0.00     0.002 C 
BRANCH   3   4
HETATM    4  C   UNL     1      22.994  43.324  48.573  1.00  0.00     0.020 C 
BRANCH   4   5
HETATM    5  C   UNL     1      23.100  44.524  47.624  1.00  0.00     0.134 C 
BRANCH   5   6
HETATM    6  N   UNL     1      22.081  45.526  47.943  1.00  0.00    -0.298 N 
HETATM    7  C   UNL     1      20.795  45.530  47.443  1.00  0.00     0.148 C 
HETATM    8  S   UNL     1      19.955  46.981  47.976  1.00  0.00    -0.055 SA
HETATM    9  S   UNL     1      20.059  44.394  46.468  1.00  0.00    -0.052 SA
HETATM   10  C   UNL     1      21.357  47.629  48.720  1.00  0.00     0.076 C 
HETATM   11  C   UNL     1      21.562  48.857  49.219  1.00  0.00     0.036 C 
HETATM   12  C   UNL     1      22.451  46.622  48.704  1.00  0.00     0.266 C 
HETATM   13  O   UNL     1      23.530  46.782  49.258  1.00  0.00    -0.266 OA
BRANCH  11  14
HETATM   14  C   UNL     1      20.643  50.004  49.238  1.00  0.00    -0.035 A 
HETATM   15  C   UNL     1      20.787  50.994  48.256  1.00  0.00     0.011 A 
HETATM   16  C   UNL     1      19.891  52.063  48.187  1.00  0.00     0.001 A 
HETATM   17  C   UNL     1      18.838  52.152  49.095  1.00  0.00     0.000 A 
HETATM   18  C   UNL     1      18.675  51.165  50.065  1.00  0.00     0.001 A 
HETATM   19  C   UNL     1      19.565  50.091  50.128  1.00  0.00     0.011 A 
ENDBRANCH  11  14
ENDBRANCH   5   6
ENDBRANCH   4   5
ENDBRANCH   3   4
ENDBRANCH   2   3
ENDBRANCH   1   2
BRANCH   1  20
HETATM   20  C   UNL     1      26.447  41.517  48.931  1.00  0.00     0.222 C 
HETATM   21  N   UNL     1      27.243  42.392  49.610  1.00  0.00    -0.320 N 
HETATM   22  H   UNL     1      28.216  42.312  49.309  1.00  0.00     0.169 HD
HETATM   23  O   UNL     1      27.004  40.776  48.112  1.00  0.00    -0.273 OA
BRANCH  21  24
HETATM   24  C   UNL     1      27.020  43.349  50.587  1.00  0.00     0.093 A 
HETATM   25  S   UNL     1      26.234  44.813  50.267  1.00  0.00    -0.075 SA
HETATM   26  C   UNL     1      26.448  45.372  51.846  1.00  0.00    -0.008 A 
HETATM   27  C   UNL     1      27.071  44.447  52.663  1.00  0.00    -0.026 A 
HETATM   28  C   UNL     1      25.987  46.737  52.257  1.00  0.00     0.047 C 
HETATM   29  C   UNL     1      27.416  44.791  54.088  1.00  0.00     0.041 C 
HETATM   30  C   UNL     1      27.401  43.239  51.925  1.00  0.00     0.072 A 
HETATM   31  C   UNL     1      26.681  46.047  54.587  1.00  0.00     0.005 C 
HETATM   32  C   UNL     1      26.694  47.170  53.546  1.00  0.00     0.005 C 
BRANCH  30  33
HETATM   33  C   UNL     1      28.077  42.037  52.417  1.00  0.00     0.252 C 
HETATM   34  N   UNL     1      27.305  40.925  52.587  1.00  0.00    -0.366 N 
HETATM   35  H   UNL     1      26.429  40.841  52.093  1.00  0.00     0.159 HD
HETATM   36  H   UNL     1      27.817  40.071  52.764  1.00  0.00     0.159 HD
HETATM   37  O   UNL     1      29.289  41.974  52.595  1.00  0.00    -0.268 OA
ENDBRANCH  30  33
ENDBRANCH  21  24
ENDBRANCH   1  20
TORSDOF 9
ENDMDL
MODEL 10
REMARK VINA RESULT:      -8.2      2.915     11.864
REMARK  9 active torsions:
REMARK  status: ('A' for Active; 'I' for Inactive)
REMARK    1  A    between atoms: C_4  and  C_5 
REMARK    2  A    between atoms: N_10  and  C_11 
REMARK    3  A    between atoms: C_11  and  C_12 
REMARK    4  A    between atoms: C_12  and  C_13 
REMARK    5  A    between atoms: C_13  and  C_14 
REMARK    6  A    between atoms: C_14  and  C_15 
REMARK    7  A    between atoms: C_15  and  C_16 
REMARK       I    between atoms: C_16  and  N_17 
REMARK    8  A    between atoms: N_17  and  C_18 
REMARK    9  A    between atoms: C_26  and  C_27 
REMARK       I    between atoms: C_27  and  N_28 
ROOT
HETATM    1  C   UNL     1      22.252  47.639  48.604  1.00  0.00     0.103 C 
ENDROOT
BRANCH   1   2
HETATM    2  C   UNL     1      23.387  46.856  49.270  1.00  0.00     0.009 C 
BRANCH   2   3
HETATM    3  C   UNL     1      24.319  47.748  50.098  1.00  0.00     0.002 C 
BRANCH   3   4
HETATM    4  C   UNL     1      25.505  46.964  50.658  1.00  0.00     0.020 C 
BRANCH   4   5
HETATM    5  C   UNL     1      25.171  46.193  51.942  1.00  0.00     0.134 C 
BRANCH   5   6
HETATM    6  N   UNL     1      26.383  45.616  52.527  1.00  0.00    -0.298 N 
HETATM    7  C   UNL     1      26.838  44.335  52.295  1.00  0.00     0.148 C 
HETATM    8  S   UNL     1      28.246  44.014  53.300  1.00  0.00    -0.055 SA
HETATM    9  S   UNL     1      26.217  43.187  51.255  1.00  0.00    -0.052 SA
HETATM   10  C   UNL     1      28.118  45.515  54.118  1.00  0.00     0.076 C 
HETATM   11  C   UNL     1      28.771  45.945  55.207  1.00  0.00     0.036 C 
HETATM   12  C   UNL     1      27.069  46.353  53.479  1.00  0.00     0.266 C 
HETATM   13  O   UNL     1      26.838  47.511  53.795  1.00  0.00    -0.266 OA
BRANCH  11  14
HETATM   14  C   UNL     1      29.762  45.231  56.024  1.00  0.00    -0.035 A 
HETATM   15  C   UNL     1      30.014  45.689  57.325  1.00  0.00     0.011 A 
HETATM   16  C   UNL     1      30.889  44.998  58.166  1.00  0.00     0.001 A 
HETATM   17  C   UNL     1      31.520  43.840  57.717  1.00  0.00     0.000 A 
HETATM   18  C   UNL     1      31.266  43.366  56.432  1.00  0.00     0.001 A 
HETATM   19  C   UNL     1      30.383  44.051  55.595  1.00  0.00     0.011 A 
ENDBRANCH  11  14
ENDBRANCH   5   6
ENDBRANCH   4   5
ENDBRANCH   3   4
ENDBRANCH   2   3
ENDBRANCH   1   2
BRANCH   1  20
HETATM   20  C   UNL     1      21.104  46.772  48.121  1.00  0.00     0.222 C 
HETATM   21  N   UNL     1      19.826  47.237  48.024  1.00  0.00    -0.320 N 
HETATM   22  H   UNL     1      19.195  46.509  47.687  1.00  0.00     0.169 HD
HETATM   23  O   UNL     1      21.299  45.600  47.777  1.00  0.00    -0.273 OA
BRANCH  21  24
HETATM   24  C   UNL     1      19.213  48.452  48.287  1.00  0.00     0.093 A 
HETATM   25  S   UNL     1      19.951  49.666  49.207  1.00  0.00    -0.075 SA
HETATM   26  C   UNL     1      18.600  50.675  49.119  1.00  0.00    -0.008 A 
HETATM   27  C   UNL     1      17.581  50.141  48.351  1.00  0.00    -0.026 A 
HETATM   28  C   UNL     1      18.570  51.999  49.819  1.00  0.00     0.047 C 
HETATM   29  C   UNL     1      16.265  50.860  48.215  1.00  0.00     0.041 C 
HETATM   30  C   UNL     1      17.944  48.829  47.843  1.00  0.00     0.072 A 
HETATM   31  C   UNL     1      16.345  52.328  48.667  1.00  0.00     0.005 C 
HETATM   32  C   UNL     1      17.125  52.484  49.976  1.00  0.00     0.005 C 
BRANCH  30  33
HETATM   33  C   UNL     1      17.143  47.929  47.011  1.00  0.00     0.252 C 
HETATM   34  N   UNL     1      15.979  47.467  47.552  1.00  0.00    -0.366 N 
HETATM   35  H   UNL     1      15.543  47.969  48.311  1.00  0.00     0.159 HD
HETATM   36  H   UNL     1      15.365  46.989  46.905  1.00  0.00     0.159 HD
HETATM   37  O   UNL     1      17.430  47.654  45.850  1.00  0.00    -0.268 OA
ENDBRANCH  30  33
ENDBRANCH  21  24
ENDBRANCH   1  20
TORSDOF 9
ENDMDL
