MODEL 1
REMARK VINA RESULT:     -10.0      0.000      0.000
REMARK  6 active torsions:
REMARK  status: ('A' for Active; 'I' for Inactive)
REMARK    1  A    between atoms: O_2  and  C_3 
REMARK    2  A    between atoms: C_5  and  O_6 
REMARK    3  A    between atoms: C_8  and  N_9 
REMARK       I    between atoms: N_9  and  C_10 
REMARK    4  A    between atoms: C_10  and  C_11 
REMARK    5  A    between atoms: C_11  and  N_12 
REMARK    6  A    between atoms: C_17  and  C_18 
ROOT
HETATM    1  N   UNL     1      25.367  46.087  52.504  1.00  0.00    -0.326 N 
HETATM    2  C   UNL     1      25.110  44.757  52.821  1.00  0.00     0.255 C 
HETATM    3  O   UNL     1      24.694  44.309  53.872  1.00  0.00    -0.267 OA
HETATM    4  C   UNL     1      25.522  43.941  51.672  1.00  0.00     0.040 A 
HETATM    5  C   UNL     1      26.085  44.787  50.718  1.00  0.00    -0.015 A 
HETATM    6  C   UNL     1      26.091  46.188  51.245  1.00  0.00     0.158 C 
HETATM    7  C   UNL     1      25.479  42.568  51.521  1.00  0.00     0.017 A 
HETATM    8  C   UNL     1      26.017  42.032  50.349  1.00  0.00     0.001 A 
HETATM    9  C   UNL     1      26.579  42.874  49.370  1.00  0.00     0.001 A 
HETATM   10  C   UNL     1      26.621  44.260  49.552  1.00  0.00     0.011 A 
ENDROOT
BRANCH   1  11
HETATM   11  C   UNL     1      25.631  47.039  53.569  1.00  0.00     0.230 C 
BRANCH  11  12
HETATM   12  C   UNL     1      27.010  46.992  54.233  1.00  0.00     0.240 C 
HETATM   13  N   UNL     1      27.487  45.719  54.486  1.00  0.00    -0.323 N 
HETATM   14  H   UNL     1      26.940  44.941  54.127  1.00  0.00     0.169 HD
HETATM   15  O   UNL     1      27.497  48.040  54.660  1.00  0.00    -0.271 OA
BRANCH  13  16
HETATM   16  C   UNL     1      28.601  45.364  55.288  1.00  0.00     0.068 A 
HETATM   17  C   UNL     1      29.446  44.324  54.844  1.00  0.00     0.097 A 
HETATM   18  C   UNL     1      30.507  43.883  55.654  1.00  0.00     0.075 A 
HETATM   19  C   UNL     1      30.755  44.488  56.887  1.00  0.00     0.070 A 
HETATM   20  C   UNL     1      29.959  45.553  57.294  1.00  0.00     0.039 A 
HETATM   21  C   UNL     1      28.888  45.984  56.507  1.00  0.00     0.035 A 
BRANCH  17  22
HETATM   22  O   UNL     1      29.140  43.780  53.615  1.00  0.00    -0.354 OA
HETATM   23  C   UNL     1      30.094  42.878  53.064  1.00  0.00     0.210 C 
ENDBRANCH  17  22
BRANCH  19  24
HETATM   24  O   UNL     1      31.744  44.145  57.767  1.00  0.00    -0.356 OA
HETATM   25  C   UNL     1      32.518  42.996  57.451  1.00  0.00     0.210 C 
ENDBRANCH  19  24
ENDBRANCH  13  16
ENDBRANCH  11  12
ENDBRANCH   1  11
BRANCH   6  26
HETATM   26  C   UNL     1      25.346  47.065  50.299  1.00  0.00    -0.003 A 
HETATM   27  C   UNL     1      25.900  48.179  49.581  1.00  0.00     0.001 A 
HETATM   28  C   UNL     1      24.862  48.783  48.871  1.00  0.00     0.043 A 
HETATM   29  C   UNL     1      27.190  48.742  49.486  1.00  0.00     0.014 A 
HETATM   30  C   UNL     1      25.043  49.926  48.085  1.00  0.00     0.030 A 
HETATM   31  N   UNL     1      23.725  48.053  49.118  1.00  0.00    -0.365 N 
HETATM   32  C   UNL     1      26.330  50.466  48.014  1.00  0.00     0.002 A 
HETATM   33  C   UNL     1      27.391  49.881  48.700  1.00  0.00     0.001 A 
HETATM   34  H   UNL     1      22.814  48.267  48.736  1.00  0.00     0.165 HD
HETATM   35  C   UNL     1      23.999  47.022  49.971  1.00  0.00     0.099 A 
ENDBRANCH   6  26
TORSDOF 6
ENDMDL
MODEL 2
REMARK VINA RESULT:      -9.3      2.668      8.143
REMARK  6 active torsions:
REMARK  status: ('A' for Active; 'I' for Inactive)
REMARK    1  A    between atoms: O_2  and  C_3 
REMARK    2  A    between atoms: C_5  and  O_6 
REMARK    3  A    between atoms: C_8  and  N_9 
REMARK       I    between atoms: N_9  and  C_10 
REMARK    4  A    between atoms: C_10  and  C_11 
REMARK    5  A    between atoms: C_11  and  N_12 
REMARK    6  A    between atoms: C_17  and  C_18 
ROOT
HETATM    1  N   UNL     1      27.427  45.039  53.622  1.00  0.00    -0.326 N 
HETATM    2  C   UNL     1      27.689  45.587  54.873  1.00  0.00     0.255 C 
HETATM    3  O   UNL     1      27.083  46.477  55.439  1.00  0.00    -0.267 OA
HETATM    4  C   UNL     1      28.914  44.959  55.383  1.00  0.00     0.040 A 
HETATM    5  C   UNL     1      29.404  44.101  54.400  1.00  0.00    -0.015 A 
HETATM    6  C   UNL     1      28.522  44.180  53.193  1.00  0.00     0.158 C 
HETATM    7  C   UNL     1      29.579  45.189  56.573  1.00  0.00     0.017 A 
HETATM    8  C   UNL     1      30.782  44.511  56.780  1.00  0.00     0.001 A 
HETATM    9  C   UNL     1      31.284  43.632  55.801  1.00  0.00     0.001 A 
HETATM   10  C   UNL     1      30.599  43.425  54.599  1.00  0.00     0.011 A 
ENDROOT
BRANCH   1  11
HETATM   11  C   UNL     1      26.689  45.816  52.640  1.00  0.00     0.230 C 
BRANCH  11  12
HETATM   12  C   UNL     1      25.426  45.187  52.045  1.00  0.00     0.240 C 
HETATM   13  N   UNL     1      25.243  45.423  50.694  1.00  0.00    -0.323 N 
HETATM   14  H   UNL     1      25.997  45.896  50.202  1.00  0.00     0.169 HD
HETATM   15  O   UNL     1      24.591  44.704  52.809  1.00  0.00    -0.271 OA
BRANCH  13  16
HETATM   16  C   UNL     1      24.074  45.177  49.932  1.00  0.00     0.068 A 
HETATM   17  C   UNL     1      23.457  46.264  49.276  1.00  0.00     0.097 A 
HETATM   18  C   UNL     1      22.246  46.076  48.586  1.00  0.00     0.075 A 
HETATM   19  C   UNL     1      21.660  44.811  48.516  1.00  0.00     0.070 A 
HETATM   20  C   UNL     1      22.302  43.730  49.111  1.00  0.00     0.039 A 
HETATM   21  C   UNL     1      23.494  43.910  49.818  1.00  0.00     0.035 A 
BRANCH  17  22
HETATM   22  O   UNL     1      24.097  47.479  49.387  1.00  0.00    -0.354 OA
HETATM   23  C   UNL     1      23.290  48.640  49.223  1.00  0.00     0.210 C 
ENDBRANCH  17  22
BRANCH  19  24
HETATM   24  O   UNL     1      20.486  44.502  47.888  1.00  0.00    -0.356 OA
HETATM   25  C   UNL     1      19.320  45.189  48.326  1.00  0.00     0.210 C 
ENDBRANCH  19  24
ENDBRANCH  13  16
ENDBRANCH  11  12
ENDBRANCH   1  11
BRANCH   6  26
HETATM   26  C   UNL     1      28.006  42.818  52.879  1.00  0.00    -0.003 A 
HETATM   27  C   UNL     1      27.560  42.372  51.589  1.00  0.00     0.001 A 
HETATM   28  C   UNL     1      27.081  41.070  51.734  1.00  0.00     0.043 A 
HETATM   29  C   UNL     1      27.501  42.967  50.310  1.00  0.00     0.014 A 
HETATM   30  C   UNL     1      26.534  40.339  50.674  1.00  0.00     0.030 A 
HETATM   31  N   UNL     1      27.254  40.720  53.051  1.00  0.00    -0.365 N 
HETATM   32  C   UNL     1      26.483  40.954  49.421  1.00  0.00     0.002 A 
HETATM   33  C   UNL     1      26.963  42.248  49.238  1.00  0.00     0.001 A 
HETATM   34  H   UNL     1      26.989  39.828  53.445  1.00  0.00     0.165 HD
HETATM   35  C   UNL     1      27.807  41.756  53.749  1.00  0.00     0.099 A 
ENDBRANCH   6  26
TORSDOF 6
ENDMDL
MODEL 3
REMARK VINA RESULT:      -9.3      2.930      5.237
REMARK  6 active torsions:
REMARK  status: ('A' for Active; 'I' for Inactive)
REMARK    1  A    between atoms: O_2  and  C_3 
REMARK    2  A    between atoms: C_5  and  O_6 
REMARK    3  A    between atoms: C_8  and  N_9 
REMARK       I    between atoms: N_9  and  C_10 
REMARK    4  A    between atoms: C_10  and  C_11 
REMARK    5  A    between atoms: C_11  and  N_12 
REMARK    6  A    between atoms: C_17  and  C_18 
ROOT
HETATM    1  N   UNL     1      28.348  40.402  50.862  1.00  0.00    -0.326 N 
HETATM    2  C   UNL     1      28.652  39.199  50.233  1.00  0.00     0.255 C 
HETATM    3  O   UNL     1      29.139  38.201  50.729  1.00  0.00    -0.267 OA
HETATM    4  C   UNL     1      28.363  39.363  48.803  1.00  0.00     0.040 A 
HETATM    5  C   UNL     1      27.963  40.681  48.589  1.00  0.00    -0.015 A 
HETATM    6  C   UNL     1      28.020  41.429  49.884  1.00  0.00     0.158 C 
HETATM    7  C   UNL     1      28.521  38.453  47.774  1.00  0.00     0.017 A 
HETATM    8  C   UNL     1      28.249  38.894  46.478  1.00  0.00     0.001 A 
HETATM    9  C   UNL     1      27.833  40.219  46.246  1.00  0.00     0.001 A 
HETATM   10  C   UNL     1      27.692  41.125  47.302  1.00  0.00     0.011 A 
ENDROOT
BRANCH   1  11
HETATM   11  C   UNL     1      29.041  40.765  52.087  1.00  0.00     0.230 C 
BRANCH  11  12
HETATM   12  C   UNL     1      28.365  41.786  53.006  1.00  0.00     0.240 C 
HETATM   13  N   UNL     1      28.813  43.086  52.855  1.00  0.00    -0.323 N 
HETATM   14  H   UNL     1      29.464  43.265  52.095  1.00  0.00     0.169 HD
HETATM   15  O   UNL     1      27.643  41.376  53.915  1.00  0.00    -0.271 OA
BRANCH  13  16
HETATM   16  C   UNL     1      28.552  44.187  53.708  1.00  0.00     0.068 A 
HETATM   17  C   UNL     1      29.413  44.407  54.805  1.00  0.00     0.097 A 
HETATM   18  C   UNL     1      29.134  45.433  55.725  1.00  0.00     0.075 A 
HETATM   19  C   UNL     1      28.025  46.262  55.548  1.00  0.00     0.070 A 
HETATM   20  C   UNL     1      27.213  46.082  54.432  1.00  0.00     0.039 A 
HETATM   21  C   UNL     1      27.469  45.051  53.524  1.00  0.00     0.035 A 
BRANCH  17  22
HETATM   22  O   UNL     1      30.487  43.551  54.911  1.00  0.00    -0.354 OA
HETATM   23  C   UNL     1      31.032  43.373  56.214  1.00  0.00     0.210 C 
ENDBRANCH  17  22
BRANCH  19  24
HETATM   24  O   UNL     1      27.642  47.283  56.373  1.00  0.00    -0.356 OA
HETATM   25  C   UNL     1      26.634  48.159  55.887  1.00  0.00     0.210 C 
ENDBRANCH  19  24
ENDBRANCH  13  16
ENDBRANCH  11  12
ENDBRANCH   1  11
BRANCH   6  26
HETATM   26  C   UNL     1      26.674  41.997  50.175  1.00  0.00    -0.003 A 
HETATM   27  C   UNL     1      26.347  43.395  50.202  1.00  0.00     0.001 A 
HETATM   28  C   UNL     1      25.013  43.509  50.593  1.00  0.00     0.043 A 
HETATM   29  C   UNL     1      27.072  44.579  49.949  1.00  0.00     0.014 A 
HETATM   30  C   UNL     1      24.372  44.742  50.758  1.00  0.00     0.030 A 
HETATM   31  N   UNL     1      24.532  42.235  50.769  1.00  0.00    -0.365 N 
HETATM   32  C   UNL     1      25.116  45.898  50.506  1.00  0.00     0.002 A 
HETATM   33  C   UNL     1      26.445  45.820  50.102  1.00  0.00     0.001 A 
HETATM   34  H   UNL     1      23.590  42.015  51.059  1.00  0.00     0.165 HD
HETATM   35  C   UNL     1      25.515  41.319  50.522  1.00  0.00     0.099 A 
ENDBRANCH   6  26
TORSDOF 6
ENDMDL
MODEL 4
REMARK VINA RESULT:      -9.2      3.053      7.232
REMARK  6 active torsions:
REMARK  status: ('A' for Active; 'I' for Inactive)
REMARK    1  A    between atoms: O_2  and  C_3 
REMARK    2  A    between atoms: C_5  and  O_6 
REMARK    3  A    between atoms: C_8  and  N_9 
REMARK       I    between atoms: N_9  and  C_10 
REMARK    4  A    between atoms: C_10  and  C_11 
REMARK    5  A    between atoms: C_11  and  N_12 
REMARK    6  A    between atoms: C_17  and  C_18 
ROOT
HETATM    1  N   UNL     1      24.273  46.246  50.174  1.00  0.00    -0.326 N 
HETATM    2  C   UNL     1      23.846  47.338  49.425  1.00  0.00     0.255 C 
HETATM    3  O   UNL     1      22.744  47.530  48.948  1.00  0.00    -0.267 OA
HETATM    4  C   UNL     1      25.008  48.213  49.220  1.00  0.00     0.040 A 
HETATM    5  C   UNL     1      26.122  47.595  49.784  1.00  0.00    -0.015 A 
HETATM    6  C   UNL     1      25.719  46.267  50.342  1.00  0.00     0.158 C 
HETATM    7  C   UNL     1      25.085  49.405  48.525  1.00  0.00     0.017 A 
HETATM    8  C   UNL     1      26.343  50.001  48.409  1.00  0.00     0.001 A 
HETATM    9  C   UNL     1      27.477  49.396  48.982  1.00  0.00     0.001 A 
HETATM   10  C   UNL     1      27.374  48.182  49.671  1.00  0.00     0.011 A 
ENDROOT
BRANCH   1  11
HETATM   11  C   UNL     1      23.577  44.976  50.047  1.00  0.00     0.230 C 
BRANCH  11  12
HETATM   12  C   UNL     1      24.417  43.699  50.134  1.00  0.00     0.240 C 
HETATM   13  N   UNL     1      25.121  43.391  48.984  1.00  0.00    -0.323 N 
HETATM   14  H   UNL     1      25.102  44.076  48.233  1.00  0.00     0.169 HD
HETATM   15  O   UNL     1      24.265  42.956  51.104  1.00  0.00    -0.271 OA
BRANCH  13  16
HETATM   16  C   UNL     1      25.785  42.174  48.685  1.00  0.00     0.068 A 
HETATM   17  C   UNL     1      25.124  41.230  47.870  1.00  0.00     0.097 A 
HETATM   18  C   UNL     1      25.710  39.975  47.626  1.00  0.00     0.075 A 
HETATM   19  C   UNL     1      26.962  39.663  48.160  1.00  0.00     0.070 A 
HETATM   20  C   UNL     1      27.638  40.619  48.912  1.00  0.00     0.039 A 
HETATM   21  C   UNL     1      27.054  41.859  49.178  1.00  0.00     0.035 A 
BRANCH  17  22
HETATM   22  O   UNL     1      23.895  41.612  47.377  1.00  0.00    -0.354 OA
HETATM   23  C   UNL     1      22.758  40.953  47.923  1.00  0.00     0.210 C 
ENDBRANCH  17  22
BRANCH  19  24
HETATM   24  O   UNL     1      27.631  38.481  48.005  1.00  0.00    -0.356 OA
HETATM   25  C   UNL     1      28.904  38.375  48.629  1.00  0.00     0.210 C 
ENDBRANCH  19  24
ENDBRANCH  13  16
ENDBRANCH  11  12
ENDBRANCH   1  11
BRANCH   6  26
HETATM   26  C   UNL     1      26.062  46.226  51.792  1.00  0.00    -0.003 A 
HETATM   27  C   UNL     1      26.902  45.247  52.423  1.00  0.00     0.001 A 
HETATM   28  C   UNL     1      26.904  45.511  53.792  1.00  0.00     0.043 A 
HETATM   29  C   UNL     1      27.648  44.144  51.954  1.00  0.00     0.014 A 
HETATM   30  C   UNL     1      27.599  44.723  54.717  1.00  0.00     0.030 A 
HETATM   31  N   UNL     1      26.123  46.622  53.991  1.00  0.00    -0.365 N 
HETATM   32  C   UNL     1      28.324  43.635  54.226  1.00  0.00     0.002 A 
HETATM   33  C   UNL     1      28.354  43.350  52.864  1.00  0.00     0.001 A 
HETATM   34  H   UNL     1      25.939  47.039  54.893  1.00  0.00     0.165 HD
HETATM   35  C   UNL     1      25.611  47.062  52.803  1.00  0.00     0.099 A 
ENDBRANCH   6  26
TORSDOF 6
ENDMDL
MODEL 5
REMARK VINA RESULT:      -9.0     11.971     13.432
REMARK  6 active torsions:
REMARK  status: ('A' for Active; 'I' for Inactive)
REMARK    1  A    between atoms: O_2  and  C_3 
REMARK    2  A    between atoms: C_5  and  O_6 
REMARK    3  A    between atoms: C_8  and  N_9 
REMARK       I    between atoms: N_9  and  C_10 
REMARK    4  A    between atoms: C_10  and  C_11 
REMARK    5  A    between atoms: C_11  and  N_12 
REMARK    6  A    between atoms: C_17  and  C_18 
ROOT
HETATM    1  N   UNL     1      29.230  47.237  39.302  1.00  0.00    -0.326 N 
HETATM    2  C   UNL     1      28.785  45.920  39.241  1.00  0.00     0.255 C 
HETATM    3  O   UNL     1      29.438  44.905  39.393  1.00  0.00    -0.267 OA
HETATM    4  C   UNL     1      27.367  45.950  38.860  1.00  0.00     0.040 A 
HETATM    5  C   UNL     1      27.007  47.276  38.628  1.00  0.00    -0.015 A 
HETATM    6  C   UNL     1      28.207  48.151  38.815  1.00  0.00     0.158 C 
HETATM    7  C   UNL     1      26.500  44.893  38.656  1.00  0.00     0.017 A 
HETATM    8  C   UNL     1      25.211  45.195  38.211  1.00  0.00     0.001 A 
HETATM    9  C   UNL     1      24.828  46.530  37.984  1.00  0.00     0.001 A 
HETATM   10  C   UNL     1      25.728  47.582  38.186  1.00  0.00     0.011 A 
ENDROOT
BRANCH   1  11
HETATM   11  C   UNL     1      30.634  47.530  39.068  1.00  0.00     0.230 C 
BRANCH  11  12
HETATM   12  C   UNL     1      31.460  48.024  40.258  1.00  0.00     0.240 C 
HETATM   13  N   UNL     1      31.224  49.338  40.621  1.00  0.00    -0.323 N 
HETATM   14  H   UNL     1      30.466  49.820  40.144  1.00  0.00     0.169 HD
HETATM   15  O   UNL     1      32.382  47.320  40.671  1.00  0.00    -0.271 OA
BRANCH  13  16
HETATM   16  C   UNL     1      31.988  50.132  41.512  1.00  0.00     0.068 A 
HETATM   17  C   UNL     1      33.064  50.883  40.991  1.00  0.00     0.097 A 
HETATM   18  C   UNL     1      33.901  51.610  41.855  1.00  0.00     0.075 A 
HETATM   19  C   UNL     1      33.659  51.623  43.230  1.00  0.00     0.070 A 
HETATM   20  C   UNL     1      32.563  50.931  43.734  1.00  0.00     0.039 A 
HETATM   21  C   UNL     1      31.738  50.188  42.886  1.00  0.00     0.035 A 
BRANCH  17  22
HETATM   22  O   UNL     1      33.235  50.825  39.625  1.00  0.00    -0.354 OA
HETATM   23  C   UNL     1      32.770  51.943  38.877  1.00  0.00     0.210 C 
ENDBRANCH  17  22
BRANCH  19  24
HETATM   24  O   UNL     1      34.402  52.279  44.172  1.00  0.00    -0.356 OA
HETATM   25  C   UNL     1      35.799  52.385  43.931  1.00  0.00     0.210 C 
ENDBRANCH  19  24
ENDBRANCH  13  16
ENDBRANCH  11  12
ENDBRANCH   1  11
BRANCH   6  26
HETATM   26  C   UNL     1      27.903  49.174  39.855  1.00  0.00    -0.003 A 
HETATM   27  C   UNL     1      28.247  50.566  39.782  1.00  0.00     0.001 A 
HETATM   28  C   UNL     1      27.863  51.161  40.983  1.00  0.00     0.043 A 
HETATM   29  C   UNL     1      28.871  51.374  38.806  1.00  0.00     0.014 A 
HETATM   30  C   UNL     1      28.082  52.514  41.267  1.00  0.00     0.030 A 
HETATM   31  N   UNL     1      27.280  50.182  41.751  1.00  0.00    -0.365 N 
HETATM   32  C   UNL     1      28.707  53.288  40.286  1.00  0.00     0.002 A 
HETATM   33  C   UNL     1      29.092  52.730  39.070  1.00  0.00     0.001 A 
HETATM   34  H   UNL     1      26.912  50.328  42.680  1.00  0.00     0.165 HD
HETATM   35  C   UNL     1      27.297  48.987  41.089  1.00  0.00     0.099 A 
ENDBRANCH   6  26
TORSDOF 6
ENDMDL
MODEL 6
REMARK VINA RESULT:      -9.0      3.636      7.374
REMARK  6 active torsions:
REMARK  status: ('A' for Active; 'I' for Inactive)
REMARK    1  A    between atoms: O_2  and  C_3 
REMARK    2  A    between atoms: C_5  and  O_6 
REMARK    3  A    between atoms: C_8  and  N_9 
REMARK       I    between atoms: N_9  and  C_10 
REMARK    4  A    between atoms: C_10  and  C_11 
REMARK    5  A    between atoms: C_11  and  N_12 
REMARK    6  A    between atoms: C_17  and  C_18 
ROOT
HETATM    1  N   UNL     1      27.847  42.981  52.928  1.00  0.00    -0.326 N 
HETATM    2  C   UNL     1      28.720  43.647  53.783  1.00  0.00     0.255 C 
HETATM    3  O   UNL     1      29.764  43.234  54.251  1.00  0.00    -0.267 OA
HETATM    4  C   UNL     1      28.113  44.942  54.113  1.00  0.00     0.040 A 
HETATM    5  C   UNL     1      26.857  44.999  53.512  1.00  0.00    -0.015 A 
HETATM    6  C   UNL     1      26.594  43.710  52.799  1.00  0.00     0.158 C 
HETATM    7  C   UNL     1      28.593  45.942  54.938  1.00  0.00     0.017 A 
HETATM    8  C   UNL     1      27.771  47.051  55.150  1.00  0.00     0.001 A 
HETATM    9  C   UNL     1      26.505  47.129  54.541  1.00  0.00     0.001 A 
HETATM   10  C   UNL     1      26.036  46.098  53.720  1.00  0.00     0.011 A 
ENDROOT
BRANCH   1  11
HETATM   11  C   UNL     1      27.846  41.528  52.896  1.00  0.00     0.230 C 
BRANCH  11  12
HETATM   12  C   UNL     1      27.398  40.851  51.598  1.00  0.00     0.240 C 
HETATM   13  N   UNL     1      28.361  40.805  50.607  1.00  0.00    -0.323 N 
HETATM   14  H   UNL     1      29.293  41.126  50.853  1.00  0.00     0.169 HD
HETATM   15  O   UNL     1      26.205  40.580  51.454  1.00  0.00    -0.271 OA
BRANCH  13  16
HETATM   16  C   UNL     1      28.173  40.461  49.244  1.00  0.00     0.068 A 
HETATM   17  C   UNL     1      28.474  39.144  48.836  1.00  0.00     0.097 A 
HETATM   18  C   UNL     1      28.388  38.790  47.477  1.00  0.00     0.075 A 
HETATM   19  C   UNL     1      27.976  39.726  46.527  1.00  0.00     0.070 A 
HETATM   20  C   UNL     1      27.621  41.005  46.941  1.00  0.00     0.039 A 
HETATM   21  C   UNL     1      27.725  41.373  48.285  1.00  0.00     0.035 A 
BRANCH  17  22
HETATM   22  O   UNL     1      28.868  38.277  49.831  1.00  0.00    -0.354 OA
HETATM   23  C   UNL     1      30.241  37.900  49.839  1.00  0.00     0.210 C 
ENDBRANCH  17  22
BRANCH  19  24
HETATM   24  O   UNL     1      27.861  39.510  45.181  1.00  0.00    -0.356 OA
HETATM   25  C   UNL     1      28.057  40.632  44.330  1.00  0.00     0.210 C 
ENDBRANCH  19  24
ENDBRANCH  13  16
ENDBRANCH  11  12
ENDBRANCH   1  11
BRANCH   6  26
HETATM   26  C   UNL     1      26.319  43.997  51.363  1.00  0.00    -0.003 A 
HETATM   27  C   UNL     1      25.109  43.667  50.663  1.00  0.00     0.001 A 
HETATM   28  C   UNL     1      25.282  44.026  49.327  1.00  0.00     0.043 A 
HETATM   29  C   UNL     1      23.886  43.073  51.042  1.00  0.00     0.014 A 
HETATM   30  C   UNL     1      24.305  43.811  48.349  1.00  0.00     0.030 A 
HETATM   31  N   UNL     1      26.533  44.582  49.216  1.00  0.00    -0.365 N 
HETATM   32  C   UNL     1      23.106  43.217  48.751  1.00  0.00     0.002 A 
HETATM   33  C   UNL     1      22.895  42.858  50.079  1.00  0.00     0.001 A 
HETATM   34  H   UNL     1      26.931  44.929  48.354  1.00  0.00     0.165 HD
HETATM   35  C   UNL     1      27.166  44.571  50.427  1.00  0.00     0.099 A 
ENDBRANCH   6  26
TORSDOF 6
ENDMDL
MODEL 7
REMARK VINA RESULT:      -9.0      3.848      7.830
REMARK  6 active torsions:
REMARK  status: ('A' for Active; 'I' for Inactive)
REMARK    1  A    between atoms: O_2  and  C_3 
REMARK    2  A    between atoms: C_5  and  O_6 
REMARK    3  A    between atoms: C_8  and  N_9 
REMARK       I    between atoms: N_9  and  C_10 
REMARK    4  A    between atoms: C_10  and  C_11 
REMARK    5  A    between atoms: C_11  and  N_12 
REMARK    6  A    between atoms: C_17  and  C_18 
ROOT
HETATM    1  N   UNL     1      25.849  43.249  51.561  1.00  0.00    -0.326 N 
HETATM    2  C   UNL     1      24.625  43.605  51.003  1.00  0.00     0.255 C 
HETATM    3  O   UNL     1      23.661  42.891  50.803  1.00  0.00    -0.267 OA
HETATM    4  C   UNL     1      24.718  45.013  50.596  1.00  0.00     0.040 A 
HETATM    5  C   UNL     1      26.016  45.453  50.849  1.00  0.00    -0.015 A 
HETATM    6  C   UNL     1      26.823  44.318  51.397  1.00  0.00     0.158 C 
HETATM    7  C   UNL     1      23.766  45.805  49.981  1.00  0.00     0.017 A 
HETATM    8  C   UNL     1      24.143  47.100  49.621  1.00  0.00     0.001 A 
HETATM    9  C   UNL     1      25.446  47.564  49.880  1.00  0.00     0.001 A 
HETATM   10  C   UNL     1      26.396  46.739  50.493  1.00  0.00     0.011 A 
ENDROOT
BRANCH   1  11
HETATM   11  C   UNL     1      26.281  41.862  51.514  1.00  0.00     0.230 C 
BRANCH  11  12
HETATM   12  C   UNL     1      26.702  41.300  50.153  1.00  0.00     0.240 C 
HETATM   13  N   UNL     1      26.720  39.918  50.079  1.00  0.00    -0.323 N 
HETATM   14  H   UNL     1      26.363  39.408  50.882  1.00  0.00     0.169 HD
HETATM   15  O   UNL     1      27.167  42.070  49.313  1.00  0.00    -0.271 OA
BRANCH  13  16
HETATM   16  C   UNL     1      27.281  39.122  49.049  1.00  0.00     0.068 A 
HETATM   17  C   UNL     1      28.566  38.573  49.248  1.00  0.00     0.097 A 
HETATM   18  C   UNL     1      29.193  37.855  48.214  1.00  0.00     0.075 A 
HETATM   19  C   UNL     1      28.542  37.652  46.996  1.00  0.00     0.070 A 
HETATM   20  C   UNL     1      27.251  38.142  46.826  1.00  0.00     0.039 A 
HETATM   21  C   UNL     1      26.628  38.875  47.838  1.00  0.00     0.035 A 
BRANCH  17  22
HETATM   22  O   UNL     1      29.142  38.813  50.476  1.00  0.00    -0.354 OA
HETATM   23  C   UNL     1      29.958  37.774  51.009  1.00  0.00     0.210 C 
ENDBRANCH  17  22
BRANCH  19  24
HETATM   24  O   UNL     1      29.046  36.983  45.915  1.00  0.00    -0.356 OA
HETATM   25  C   UNL     1      28.828  37.568  44.638  1.00  0.00     0.210 C 
ENDBRANCH  19  24
ENDBRANCH  13  16
ENDBRANCH  11  12
ENDBRANCH   1  11
BRANCH   6  26
HETATM   26  C   UNL     1      27.375  44.711  52.724  1.00  0.00    -0.003 A 
HETATM   27  C   UNL     1      28.542  44.148  53.342  1.00  0.00     0.001 A 
HETATM   28  C   UNL     1      28.672  44.725  54.605  1.00  0.00     0.043 A 
HETATM   29  C   UNL     1      29.492  43.180  52.949  1.00  0.00     0.014 A 
HETATM   30  C   UNL     1      29.690  44.376  55.500  1.00  0.00     0.030 A 
HETATM   31  N   UNL     1      27.646  45.627  54.745  1.00  0.00    -0.365 N 
HETATM   32  C   UNL     1      30.613  43.412  55.086  1.00  0.00     0.002 A 
HETATM   33  C   UNL     1      30.521  42.825  53.828  1.00  0.00     0.001 A 
HETATM   34  H   UNL     1      27.488  46.190  55.569  1.00  0.00     0.165 HD
HETATM   35  C   UNL     1      26.861  45.630  53.627  1.00  0.00     0.099 A 
ENDBRANCH   6  26
TORSDOF 6
ENDMDL
MODEL 8
REMARK VINA RESULT:      -8.9      2.210      4.319
REMARK  6 active torsions:
REMARK  status: ('A' for Active; 'I' for Inactive)
REMARK    1  A    between atoms: O_2  and  C_3 
REMARK    2  A    between atoms: C_5  and  O_6 
REMARK    3  A    between atoms: C_8  and  N_9 
REMARK       I    between atoms: N_9  and  C_10 
REMARK    4  A    between atoms: C_10  and  C_11 
REMARK    5  A    between atoms: C_11  and  N_12 
REMARK    6  A    between atoms: C_17  and  C_18 
ROOT
HETATM    1  N   UNL     1      24.815  45.923  50.273  1.00  0.00    -0.326 N 
HETATM    2  C   UNL     1      26.189  45.896  50.060  1.00  0.00     0.255 C 
HETATM    3  O   UNL     1      26.964  44.991  50.303  1.00  0.00    -0.267 OA
HETATM    4  C   UNL     1      26.584  47.219  49.560  1.00  0.00     0.040 A 
HETATM    5  C   UNL     1      25.455  48.036  49.553  1.00  0.00    -0.015 A 
HETATM    6  C   UNL     1      24.289  47.268  50.092  1.00  0.00     0.158 C 
HETATM    7  C   UNL     1      27.843  47.681  49.223  1.00  0.00     0.017 A 
HETATM    8  C   UNL     1      27.958  49.021  48.851  1.00  0.00     0.001 A 
HETATM    9  C   UNL     1      26.825  49.857  48.827  1.00  0.00     0.001 A 
HETATM   10  C   UNL     1      25.563  49.369  49.184  1.00  0.00     0.011 A 
ENDROOT
BRANCH   1  11
HETATM   11  C   UNL     1      24.228  45.045  51.272  1.00  0.00     0.230 C 
BRANCH  11  12
HETATM   12  C   UNL     1      25.002  44.842  52.577  1.00  0.00     0.240 C 
HETATM   13  N   UNL     1      25.994  45.777  52.813  1.00  0.00    -0.323 N 
HETATM   14  H   UNL     1      26.055  46.558  52.165  1.00  0.00     0.169 HD
HETATM   15  O   UNL     1      24.835  43.797  53.207  1.00  0.00    -0.271 OA
BRANCH  13  16
HETATM   16  C   UNL     1      27.013  45.716  53.797  1.00  0.00     0.068 A 
HETATM   17  C   UNL     1      27.047  46.716  54.792  1.00  0.00     0.097 A 
HETATM   18  C   UNL     1      28.094  46.742  55.730  1.00  0.00     0.075 A 
HETATM   19  C   UNL     1      29.091  45.765  55.706  1.00  0.00     0.070 A 
HETATM   20  C   UNL     1      29.020  44.745  54.762  1.00  0.00     0.039 A 
HETATM   21  C   UNL     1      27.996  44.723  53.812  1.00  0.00     0.035 A 
BRANCH  17  22
HETATM   22  O   UNL     1      26.028  47.643  54.754  1.00  0.00    -0.354 OA
HETATM   23  C   UNL     1      26.090  48.696  55.709  1.00  0.00     0.210 C 
ENDBRANCH  17  22
BRANCH  19  24
HETATM   24  O   UNL     1      30.162  45.686  56.552  1.00  0.00    -0.356 OA
HETATM   25  C   UNL     1      30.877  44.457  56.572  1.00  0.00     0.210 C 
ENDBRANCH  19  24
ENDBRANCH  13  16
ENDBRANCH  11  12
ENDBRANCH   1  11
BRANCH   6  26
HETATM   26  C   UNL     1      23.202  47.256  49.073  1.00  0.00    -0.003 A 
HETATM   27  C   UNL     1      22.289  48.334  48.814  1.00  0.00     0.001 A 
HETATM   28  C   UNL     1      21.381  47.896  47.850  1.00  0.00     0.043 A 
HETATM   29  C   UNL     1      22.140  49.640  49.329  1.00  0.00     0.014 A 
HETATM   30  C   UNL     1      20.325  48.688  47.386  1.00  0.00     0.030 A 
HETATM   31  N   UNL     1      21.739  46.615  47.508  1.00  0.00    -0.365 N 
HETATM   32  C   UNL     1      20.197  49.974  47.917  1.00  0.00     0.002 A 
HETATM   33  C   UNL     1      21.093  50.447  48.871  1.00  0.00     0.001 A 
HETATM   34  H   UNL     1      21.250  46.046  46.832  1.00  0.00     0.165 HD
HETATM   35  C   UNL     1      22.828  46.218  48.232  1.00  0.00     0.099 A 
ENDBRANCH   6  26
TORSDOF 6
ENDMDL
MODEL 9
REMARK VINA RESULT:      -8.9      2.482      3.312
REMARK  6 active torsions:
REMARK  status: ('A' for Active; 'I' for Inactive)
REMARK    1  A    between atoms: O_2  and  C_3 
REMARK    2  A    between atoms: C_5  and  O_6 
REMARK    3  A    between atoms: C_8  and  N_9 
REMARK       I    between atoms: N_9  and  C_10 
REMARK    4  A    between atoms: C_10  and  C_11 
REMARK    5  A    between atoms: C_11  and  N_12 
REMARK    6  A    between atoms: C_17  and  C_18 
ROOT
HETATM    1  N   UNL     1      23.996  45.178  50.400  1.00  0.00    -0.326 N 
HETATM    2  C   UNL     1      23.843  43.800  50.516  1.00  0.00     0.255 C 
HETATM    3  O   UNL     1      24.045  43.108  51.495  1.00  0.00    -0.267 OA
HETATM    4  C   UNL     1      23.470  43.284  49.193  1.00  0.00     0.040 A 
HETATM    5  C   UNL     1      23.478  44.348  48.293  1.00  0.00    -0.015 A 
HETATM    6  C   UNL     1      23.902  45.593  49.007  1.00  0.00     0.158 C 
HETATM    7  C   UNL     1      23.227  41.979  48.806  1.00  0.00     0.017 A 
HETATM    8  C   UNL     1      22.970  41.747  47.453  1.00  0.00     0.001 A 
HETATM    9  C   UNL     1      22.964  42.812  46.533  1.00  0.00     0.001 A 
HETATM   10  C   UNL     1      23.224  44.123  46.948  1.00  0.00     0.011 A 
ENDROOT
BRANCH   1  11
HETATM   11  C   UNL     1      24.893  45.877  51.304  1.00  0.00     0.230 C 
BRANCH  11  12
HETATM   12  C   UNL     1      26.208  45.184  51.672  1.00  0.00     0.240 C 
HETATM   13  N   UNL     1      26.322  44.831  53.005  1.00  0.00    -0.323 N 
HETATM   14  H   UNL     1      25.502  44.967  53.591  1.00  0.00     0.169 HD
HETATM   15  O   UNL     1      27.118  45.163  50.843  1.00  0.00    -0.271 OA
BRANCH  13  16
HETATM   16  C   UNL     1      27.491  44.398  53.680  1.00  0.00     0.068 A 
HETATM   17  C   UNL     1      28.017  45.214  54.705  1.00  0.00     0.097 A 
HETATM   18  C   UNL     1      29.225  44.864  55.335  1.00  0.00     0.075 A 
HETATM   19  C   UNL     1      29.897  43.695  54.976  1.00  0.00     0.070 A 
HETATM   20  C   UNL     1      29.345  42.862  54.009  1.00  0.00     0.039 A 
HETATM   21  C   UNL     1      28.157  43.212  53.362  1.00  0.00     0.035 A 
BRANCH  17  22
HETATM   22  O   UNL     1      27.295  46.348  55.006  1.00  0.00    -0.354 OA
HETATM   23  C   UNL     1      27.949  47.594  54.789  1.00  0.00     0.210 C 
ENDBRANCH  17  22
BRANCH  19  24
HETATM   24  O   UNL     1      31.079  43.251  55.504  1.00  0.00    -0.356 OA
HETATM   25  C   UNL     1      31.429  43.735  56.794  1.00  0.00     0.210 C 
ENDBRANCH  19  24
ENDBRANCH  13  16
ENDBRANCH  11  12
ENDBRANCH   1  11
BRANCH   6  26
HETATM   26  C   UNL     1      22.838  46.625  48.856  1.00  0.00    -0.003 A 
HETATM   27  C   UNL     1      23.057  48.040  48.755  1.00  0.00     0.001 A 
HETATM   28  C   UNL     1      21.808  48.659  48.710  1.00  0.00     0.043 A 
HETATM   29  C   UNL     1      24.208  48.856  48.719  1.00  0.00     0.014 A 
HETATM   30  C   UNL     1      21.649  50.048  48.646  1.00  0.00     0.030 A 
HETATM   31  N   UNL     1      20.861  47.665  48.750  1.00  0.00    -0.365 N 
HETATM   32  C   UNL     1      22.806  50.832  48.617  1.00  0.00     0.002 A 
HETATM   33  C   UNL     1      24.068  50.246  48.648  1.00  0.00     0.001 A 
HETATM   34  H   UNL     1      19.864  47.824  48.737  1.00  0.00     0.165 HD
HETATM   35  C   UNL     1      21.463  46.441  48.838  1.00  0.00     0.099 A 
ENDBRANCH   6  26
TORSDOF 6
ENDMDL
MODEL 10
REMARK VINA RESULT:      -8.9      4.071      8.586
REMARK  6 active torsions:
REMARK  status: ('A' for Active; 'I' for Inactive)
REMARK    1  A    between atoms: O_2  and  C_3 
REMARK    2  A    between atoms: C_5  and  O_6 
REMARK    3  A    between atoms: C_8  and  N_9 
REMARK       I    between atoms: N_9  and  C_10 
REMARK    4  A    between atoms: C_10  and  C_11 
REMARK    5  A    between atoms: C_11  and  N_12 
REMARK    6  A    between atoms: C_17  and  C_18 
ROOT
HETATM    1  N   UNL     1      25.254  45.133  49.790  1.00  0.00    -0.326 N 
HETATM    2  C   UNL     1      25.981  44.282  50.616  1.00  0.00     0.255 C 
HETATM    3  O   UNL     1      26.326  43.138  50.388  1.00  0.00    -0.267 OA
HETATM    4  C   UNL     1      26.195  44.980  51.890  1.00  0.00     0.040 A 
HETATM    5  C   UNL     1      25.532  46.204  51.833  1.00  0.00    -0.015 A 
HETATM    6  C   UNL     1      24.825  46.319  50.518  1.00  0.00     0.158 C 
HETATM    7  C   UNL     1      26.847  44.535  53.025  1.00  0.00     0.017 A 
HETATM    8  C   UNL     1      26.837  45.372  54.142  1.00  0.00     0.001 A 
HETATM    9  C   UNL     1      26.181  46.617  54.097  1.00  0.00     0.001 A 
HETATM   10  C   UNL     1      25.518  47.039  52.940  1.00  0.00     0.011 A 
ENDROOT
BRANCH   1  11
HETATM   11  C   UNL     1      24.401  44.572  48.756  1.00  0.00     0.230 C 
BRANCH  11  12
HETATM   12  C   UNL     1      22.891  44.568  49.010  1.00  0.00     0.240 C 
HETATM   13  N   UNL     1      22.151  45.315  48.111  1.00  0.00    -0.323 N 
HETATM   14  H   UNL     1      22.649  45.710  47.318  1.00  0.00     0.169 HD
HETATM   15  O   UNL     1      22.470  44.087  50.063  1.00  0.00    -0.271 OA
BRANCH  13  16
HETATM   16  C   UNL     1      20.788  45.687  48.223  1.00  0.00     0.068 A 
HETATM   17  C   UNL     1      19.810  44.844  47.651  1.00  0.00     0.097 A 
HETATM   18  C   UNL     1      18.457  45.225  47.662  1.00  0.00     0.075 A 
HETATM   19  C   UNL     1      18.063  46.422  48.265  1.00  0.00     0.070 A 
HETATM   20  C   UNL     1      19.021  47.220  48.881  1.00  0.00     0.039 A 
HETATM   21  C   UNL     1      20.370  46.861  48.856  1.00  0.00     0.035 A 
BRANCH  17  22
HETATM   22  O   UNL     1      20.276  43.680  47.080  1.00  0.00    -0.354 OA
HETATM   23  C   UNL     1      19.694  43.306  45.836  1.00  0.00     0.210 C 
ENDBRANCH  17  22
BRANCH  19  24
HETATM   24  O   UNL     1      16.786  46.906  48.332  1.00  0.00    -0.356 OA
HETATM   25  C   UNL     1      16.342  47.705  47.243  1.00  0.00     0.210 C 
ENDBRANCH  19  24
ENDBRANCH  13  16
ENDBRANCH  11  12
ENDBRANCH   1  11
BRANCH   6  26
HETATM   26  C   UNL     1      25.302  47.545  49.818  1.00  0.00    -0.003 A 
HETATM   27  C   UNL     1      24.461  48.561  49.250  1.00  0.00     0.001 A 
HETATM   28  C   UNL     1      25.287  49.489  48.618  1.00  0.00     0.043 A 
HETATM   29  C   UNL     1      23.065  48.766  49.198  1.00  0.00     0.014 A 
HETATM   30  C   UNL     1      24.793  50.601  47.926  1.00  0.00     0.030 A 
HETATM   31  N   UNL     1      26.583  49.078  48.815  1.00  0.00    -0.365 N 
HETATM   32  C   UNL     1      23.407  50.776  47.886  1.00  0.00     0.002 A 
HETATM   33  C   UNL     1      22.554  49.875  48.517  1.00  0.00     0.001 A 
HETATM   34  H   UNL     1      27.397  49.561  48.459  1.00  0.00     0.165 HD
HETATM   35  C   UNL     1      26.607  47.915  49.531  1.00  0.00     0.099 A 
ENDBRANCH   6  26
TORSDOF 6
ENDMDL
