MODEL 1
REMARK VINA RESULT:      -9.4      0.000      0.000
REMARK  5 active torsions:
REMARK  status: ('A' for Active; 'I' for Inactive)
REMARK    1  A    between atoms: C_4  and  C_5 
REMARK       I    between atoms: C_5  and  N_6 
REMARK    2  A    between atoms: C_9  and  C_10 
REMARK    3  A    between atoms: C_10  and  C_11 
REMARK    4  A    between atoms: N_20  and  C_21 
REMARK    5  A    between atoms: C_21  and  C_22 
ROOT
HETATM    1  C   UNL     1      25.682  44.182  50.954  1.00  0.00     0.148 A 
HETATM    2  N   UNL     1      24.778  44.470  52.062  1.00  0.00    -0.320 N 
HETATM    3  C   UNL     1      25.267  44.075  53.282  1.00  0.00     0.326 A 
HETATM    4  O   UNL     1      24.707  44.298  54.342  1.00  0.00    -0.247 OA
HETATM    5  N   UNL     1      26.417  43.389  53.084  1.00  0.00    -0.263 N 
HETATM    6  C   UNL     1      26.728  43.360  51.757  1.00  0.00     0.262 A 
HETATM    7  O   UNL     1      27.690  42.768  51.284  1.00  0.00    -0.270 OA
HETATM    8  H   UNL     1      23.997  45.113  52.034  1.00  0.00     0.166 HD
ENDROOT
BRANCH   1   9
HETATM    9  C   UNL     1      24.926  43.370  49.846  1.00  0.00     0.031 C 
HETATM   10  C   UNL     1      23.554  42.787  50.240  1.00  0.00     0.028 C 
HETATM   11  C   UNL     1      22.360  43.719  50.057  1.00  0.00     0.126 C 
HETATM   12  N   UNL     1      22.351  44.431  48.776  1.00  0.00    -0.350 N 
HETATM   13  C   UNL     1      21.120  44.991  48.409  1.00  0.00     0.251 C 
HETATM   14  C   UNL     1      23.622  45.016  48.351  1.00  0.00     0.126 C 
HETATM   15  O   UNL     1      20.114  44.872  49.113  1.00  0.00    -0.271 OA
HETATM   16  C   UNL     1      24.796  44.057  48.474  1.00  0.00     0.028 C 
BRANCH  13  17
HETATM   17  C   UNL     1      21.020  45.726  47.043  1.00  0.00     0.279 C 
HETATM   18  N   UNL     1      20.399  47.145  47.100  1.00  0.00    -0.062 N 
HETATM   19  C   UNL     1      21.189  48.081  47.975  1.00  0.00     0.270 C 
HETATM   20  H   UNL     1      20.464  47.526  46.148  1.00  0.00     0.280 HD
HETATM   21  C   UNL     1      18.932  47.154  47.464  1.00  0.00     0.235 C 
HETATM   22  C   UNL     1      18.156  46.295  46.478  1.00  0.00     0.028 C 
HETATM   23  C   UNL     1      18.718  44.884  46.377  1.00  0.00     0.004 C 
HETATM   24  C   UNL     1      20.207  44.900  46.039  1.00  0.00     0.043 C 
ENDBRANCH  13  17
ENDBRANCH   1   9
BRANCH   1  25
HETATM   25  C   UNL     1      26.223  45.506  50.417  1.00  0.00    -0.003 A 
HETATM   26  C   UNL     1      27.354  45.594  49.605  1.00  0.00     0.126 A 
HETATM   27  N   UNL     1      27.842  46.748  49.094  1.00  0.00    -0.272 NA
HETATM   28  C   UNL     1      27.190  47.886  49.405  1.00  0.00     0.116 A 
HETATM   29  C   UNL     1      26.058  47.923  50.195  1.00  0.00     0.020 A 
HETATM   30  C   UNL     1      25.570  46.720  50.699  1.00  0.00     0.013 A 
ENDBRANCH   1  25
BRANCH   5  31
HETATM   31  C   UNL     1      27.215  42.800  54.134  1.00  0.00     0.175 C 
BRANCH  31  32
HETATM   32  C   UNL     1      28.237  43.771  54.676  1.00  0.00    -0.040 A 
HETATM   33  C   UNL     1      29.549  43.347  54.938  1.00  0.00     0.012 A 
HETATM   34  C   UNL     1      30.491  44.241  55.449  1.00  0.00     0.043 A 
HETATM   35  C   UNL     1      30.119  45.555  55.709  1.00  0.00     0.116 A 
HETATM   36  F   UNL     1      31.024  46.413  56.198  1.00  0.00    -0.206 F 
HETATM   37  C   UNL     1      28.821  45.992  55.473  1.00  0.00     0.043 A 
HETATM   38  C   UNL     1      27.879  45.100  54.959  1.00  0.00     0.012 A 
ENDBRANCH  31  32
ENDBRANCH   5  31
TORSDOF 5
ENDMDL
MODEL 2
REMARK VINA RESULT:      -9.0      1.875      3.398
REMARK  5 active torsions:
REMARK  status: ('A' for Active; 'I' for Inactive)
REMARK    1  A    between atoms: C_4  and  C_5 
REMARK       I    between atoms: C_5  and  N_6 
REMARK    2  A    between atoms: C_9  and  C_10 
REMARK    3  A    between atoms: C_10  and  C_11 
REMARK    4  A    between atoms: N_20  and  C_21 
REMARK    5  A    between atoms: C_21  and  C_22 
ROOT
HETATM    1  C   UNL     1      25.771  43.236  50.297  1.00  0.00     0.148 A 
HETATM    2  N   UNL     1      26.442  44.199  49.429  1.00  0.00    -0.320 N 
HETATM    3  C   UNL     1      26.456  45.473  49.937  1.00  0.00     0.326 A 
HETATM    4  O   UNL     1      27.037  46.407  49.411  1.00  0.00    -0.247 OA
HETATM    5  N   UNL     1      25.701  45.498  51.061  1.00  0.00    -0.263 N 
HETATM    6  C   UNL     1      25.223  44.252  51.337  1.00  0.00     0.262 A 
HETATM    7  O   UNL     1      24.473  43.988  52.269  1.00  0.00    -0.270 OA
HETATM    8  H   UNL     1      27.069  43.970  48.668  1.00  0.00     0.166 HD
ENDROOT
BRANCH   1   9
HETATM    9  C   UNL     1      24.667  42.471  49.489  1.00  0.00     0.031 C 
HETATM   10  C   UNL     1      23.282  42.357  50.157  1.00  0.00     0.028 C 
HETATM   11  C   UNL     1      22.332  43.526  49.918  1.00  0.00     0.126 C 
HETATM   12  N   UNL     1      22.276  43.973  48.523  1.00  0.00    -0.350 N 
HETATM   13  C   UNL     1      21.171  44.766  48.190  1.00  0.00     0.251 C 
HETATM   14  C   UNL     1      23.559  44.110  47.835  1.00  0.00     0.126 C 
HETATM   15  O   UNL     1      20.299  45.049  49.016  1.00  0.00    -0.271 OA
HETATM   16  C   UNL     1      24.475  42.910  48.024  1.00  0.00     0.028 C 
BRANCH  13  17
HETATM   17  C   UNL     1      21.019  45.244  46.718  1.00  0.00     0.279 C 
HETATM   18  N   UNL     1      20.300  46.604  46.535  1.00  0.00    -0.062 N 
HETATM   19  C   UNL     1      21.021  47.731  47.226  1.00  0.00     0.270 C 
HETATM   20  H   UNL     1      20.338  46.817  45.531  1.00  0.00     0.280 HD
HETATM   21  C   UNL     1      18.836  46.574  46.910  1.00  0.00     0.235 C 
HETATM   22  C   UNL     1      18.122  45.505  46.098  1.00  0.00     0.028 C 
HETATM   23  C   UNL     1      18.782  44.140  46.236  1.00  0.00     0.004 C 
HETATM   24  C   UNL     1      20.267  44.201  45.883  1.00  0.00     0.043 C 
ENDBRANCH  13  17
ENDBRANCH   1   9
BRANCH   1  25
HETATM   25  C   UNL     1      26.822  42.283  50.864  1.00  0.00    -0.003 A 
HETATM   26  C   UNL     1      27.364  41.226  50.133  1.00  0.00     0.126 A 
HETATM   27  N   UNL     1      28.314  40.382  50.598  1.00  0.00    -0.272 NA
HETATM   28  C   UNL     1      28.752  40.577  51.858  1.00  0.00     0.116 A 
HETATM   29  C   UNL     1      28.294  41.592  52.674  1.00  0.00     0.020 A 
HETATM   30  C   UNL     1      27.324  42.454  52.167  1.00  0.00     0.013 A 
ENDBRANCH   1  25
BRANCH   5  31
HETATM   31  C   UNL     1      25.464  46.673  51.867  1.00  0.00     0.175 C 
BRANCH  31  32
HETATM   32  C   UNL     1      26.265  46.649  53.147  1.00  0.00    -0.040 A 
HETATM   33  C   UNL     1      26.073  47.639  54.122  1.00  0.00     0.012 A 
HETATM   34  C   UNL     1      26.821  47.622  55.301  1.00  0.00     0.043 A 
HETATM   35  C   UNL     1      27.768  46.624  55.499  1.00  0.00     0.116 A 
HETATM   36  F   UNL     1      28.483  46.608  56.630  1.00  0.00    -0.206 F 
HETATM   37  C   UNL     1      27.985  45.643  54.538  1.00  0.00     0.043 A 
HETATM   38  C   UNL     1      27.236  45.656  53.361  1.00  0.00     0.012 A 
ENDBRANCH  31  32
ENDBRANCH   5  31
TORSDOF 5
ENDMDL
MODEL 3
REMARK VINA RESULT:      -9.0      4.150      7.344
REMARK  5 active torsions:
REMARK  status: ('A' for Active; 'I' for Inactive)
REMARK    1  A    between atoms: C_4  and  C_5 
REMARK       I    between atoms: C_5  and  N_6 
REMARK    2  A    between atoms: C_9  and  C_10 
REMARK    3  A    between atoms: C_10  and  C_11 
REMARK    4  A    between atoms: N_20  and  C_21 
REMARK    5  A    between atoms: C_21  and  C_22 
ROOT
HETATM    1  C   UNL     1      26.992  43.760  51.777  1.00  0.00     0.148 A 
HETATM    2  N   UNL     1      27.572  44.198  50.511  1.00  0.00    -0.320 N 
HETATM    3  C   UNL     1      27.179  45.458  50.137  1.00  0.00     0.326 A 
HETATM    4  O   UNL     1      27.612  46.042  49.159  1.00  0.00    -0.247 OA
HETATM    5  N   UNL     1      26.233  45.890  51.004  1.00  0.00    -0.263 N 
HETATM    6  C   UNL     1      26.022  44.958  51.977  1.00  0.00     0.262 A 
HETATM    7  O   UNL     1      25.188  45.062  52.867  1.00  0.00    -0.270 OA
HETATM    8  H   UNL     1      28.373  43.780  50.053  1.00  0.00     0.166 HD
ENDROOT
BRANCH   1   9
HETATM    9  C   UNL     1      26.286  42.374  51.588  1.00  0.00     0.031 C 
HETATM   10  C   UNL     1      25.007  42.367  50.727  1.00  0.00     0.028 C 
HETATM   11  C   UNL     1      25.220  42.212  49.224  1.00  0.00     0.126 C 
HETATM   12  N   UNL     1      26.177  41.162  48.864  1.00  0.00    -0.350 N 
HETATM   13  C   UNL     1      26.125  40.733  47.531  1.00  0.00     0.251 C 
HETATM   14  C   UNL     1      27.416  41.122  49.639  1.00  0.00     0.126 C 
HETATM   15  O   UNL     1      25.312  41.199  46.728  1.00  0.00    -0.271 OA
HETATM   16  C   UNL     1      27.190  41.210  51.141  1.00  0.00     0.028 C 
BRANCH  13  17
HETATM   17  C   UNL     1      27.081  39.593  47.083  1.00  0.00     0.279 C 
HETATM   18  N   UNL     1      27.407  39.560  45.568  1.00  0.00    -0.062 N 
HETATM   19  C   UNL     1      28.081  40.823  45.101  1.00  0.00     0.270 C 
HETATM   20  H   UNL     1      28.094  38.808  45.438  1.00  0.00     0.280 HD
HETATM   21  C   UNL     1      26.223  39.211  44.697  1.00  0.00     0.235 C 
HETATM   22  C   UNL     1      25.651  37.869  45.125  1.00  0.00     0.028 C 
HETATM   23  C   UNL     1      25.308  37.836  46.609  1.00  0.00     0.004 C 
HETATM   24  C   UNL     1      26.510  38.222  47.467  1.00  0.00     0.043 C 
ENDBRANCH  13  17
ENDBRANCH   1   9
BRANCH   1  25
HETATM   25  C   UNL     1      28.107  43.693  52.819  1.00  0.00    -0.003 A 
HETATM   26  C   UNL     1      27.998  44.261  54.088  1.00  0.00     0.126 A 
HETATM   27  N   UNL     1      28.957  44.196  55.040  1.00  0.00    -0.272 NA
HETATM   28  C   UNL     1      30.096  43.545  54.729  1.00  0.00     0.116 A 
HETATM   29  C   UNL     1      30.315  42.939  53.508  1.00  0.00     0.020 A 
HETATM   30  C   UNL     1      29.308  43.011  52.548  1.00  0.00     0.013 A 
ENDBRANCH   1  25
BRANCH   5  31
HETATM   31  C   UNL     1      25.567  47.169  50.925  1.00  0.00     0.175 C 
BRANCH  31  32
HETATM   32  C   UNL     1      24.436  47.154  49.926  1.00  0.00    -0.040 A 
HETATM   33  C   UNL     1      23.914  48.357  49.426  1.00  0.00     0.012 A 
HETATM   34  C   UNL     1      22.861  48.343  48.510  1.00  0.00     0.043 A 
HETATM   35  C   UNL     1      22.321  47.128  48.103  1.00  0.00     0.116 A 
HETATM   36  F   UNL     1      21.312  47.116  47.223  1.00  0.00    -0.206 F 
HETATM   37  C   UNL     1      22.812  45.926  48.598  1.00  0.00     0.043 A 
HETATM   38  C   UNL     1      23.867  45.937  49.511  1.00  0.00     0.012 A 
ENDBRANCH  31  32
ENDBRANCH   5  31
TORSDOF 5
ENDMDL
MODEL 4
REMARK VINA RESULT:      -8.9      6.763     10.330
REMARK  5 active torsions:
REMARK  status: ('A' for Active; 'I' for Inactive)
REMARK    1  A    between atoms: C_4  and  C_5 
REMARK       I    between atoms: C_5  and  N_6 
REMARK    2  A    between atoms: C_9  and  C_10 
REMARK    3  A    between atoms: C_10  and  C_11 
REMARK    4  A    between atoms: N_20  and  C_21 
REMARK    5  A    between atoms: C_21  and  C_22 
ROOT
HETATM    1  C   UNL     1      16.357  51.238  48.173  1.00  0.00     0.148 A 
HETATM    2  N   UNL     1      16.792  50.528  49.372  1.00  0.00    -0.320 N 
HETATM    3  C   UNL     1      18.114  50.732  49.678  1.00  0.00     0.326 A 
HETATM    4  O   UNL     1      18.653  50.298  50.681  1.00  0.00    -0.247 OA
HETATM    5  N   UNL     1      18.684  51.440  48.675  1.00  0.00    -0.263 N 
HETATM    6  C   UNL     1      17.754  51.753  47.728  1.00  0.00     0.262 A 
HETATM    7  O   UNL     1      17.999  52.349  46.687  1.00  0.00    -0.270 OA
HETATM    8  H   UNL     1      16.182  50.135  50.079  1.00  0.00     0.166 HD
ENDROOT
BRANCH   1   9
HETATM    9  C   UNL     1      15.684  50.235  47.175  1.00  0.00     0.031 C 
HETATM   10  C   UNL     1      16.367  50.070  45.803  1.00  0.00     0.028 C 
HETATM   11  C   UNL     1      17.486  49.035  45.739  1.00  0.00     0.126 C 
HETATM   12  N   UNL     1      17.158  47.763  46.389  1.00  0.00    -0.350 N 
HETATM   13  C   UNL     1      17.977  46.681  46.040  1.00  0.00     0.251 C 
HETATM   14  C   UNL     1      16.516  47.852  47.700  1.00  0.00     0.126 C 
HETATM   15  O   UNL     1      18.896  46.796  45.225  1.00  0.00    -0.271 OA
HETATM   16  C   UNL     1      15.358  48.838  47.737  1.00  0.00     0.028 C 
BRANCH  13  17
HETATM   17  C   UNL     1      17.666  45.289  46.657  1.00  0.00     0.279 C 
HETATM   18  N   UNL     1      18.873  44.571  47.312  1.00  0.00    -0.062 N 
HETATM   19  C   UNL     1      19.462  45.364  48.449  1.00  0.00     0.270 C 
HETATM   20  H   UNL     1      18.503  43.709  47.731  1.00  0.00     0.280 HD
HETATM   21  C   UNL     1      19.937  44.144  46.327  1.00  0.00     0.235 C 
HETATM   22  C   UNL     1      19.321  43.244  45.268  1.00  0.00     0.028 C 
HETATM   23  C   UNL     1      18.126  43.894  44.583  1.00  0.00     0.004 C 
HETATM   24  C   UNL     1      17.079  44.345  45.600  1.00  0.00     0.043 C 
ENDBRANCH  13  17
ENDBRANCH   1   9
BRANCH   1  25
HETATM   25  C   UNL     1      15.398  52.351  48.594  1.00  0.00    -0.003 A 
HETATM   26  C   UNL     1      14.851  53.265  47.694  1.00  0.00     0.126 A 
HETATM   27  N   UNL     1      13.981  54.244  48.032  1.00  0.00    -0.272 NA
HETATM   28  C   UNL     1      13.632  54.342  49.330  1.00  0.00     0.116 A 
HETATM   29  C   UNL     1      14.105  53.491  50.311  1.00  0.00     0.020 A 
HETATM   30  C   UNL     1      14.992  52.484  49.934  1.00  0.00     0.013 A 
ENDBRANCH   1  25
BRANCH   5  31
HETATM   31  C   UNL     1      20.074  51.834  48.633  1.00  0.00     0.175 C 
BRANCH  31  32
HETATM   32  C   UNL     1      20.995  50.640  48.572  1.00  0.00    -0.040 A 
HETATM   33  C   UNL     1      20.703  49.562  47.723  1.00  0.00     0.012 A 
HETATM   34  C   UNL     1      21.550  48.453  47.675  1.00  0.00     0.043 A 
HETATM   35  C   UNL     1      22.680  48.417  48.483  1.00  0.00     0.116 A 
HETATM   36  F   UNL     1      23.492  47.353  48.435  1.00  0.00    -0.206 F 
HETATM   37  C   UNL     1      22.979  49.467  49.343  1.00  0.00     0.043 A 
HETATM   38  C   UNL     1      22.136  50.578  49.390  1.00  0.00     0.012 A 
ENDBRANCH  31  32
ENDBRANCH   5  31
TORSDOF 5
ENDMDL
MODEL 5
REMARK VINA RESULT:      -8.8      3.916      8.756
REMARK  5 active torsions:
REMARK  status: ('A' for Active; 'I' for Inactive)
REMARK    1  A    between atoms: C_4  and  C_5 
REMARK       I    between atoms: C_5  and  N_6 
REMARK    2  A    between atoms: C_9  and  C_10 
REMARK    3  A    between atoms: C_10  and  C_11 
REMARK    4  A    between atoms: N_20  and  C_21 
REMARK    5  A    between atoms: C_21  and  C_22 
ROOT
HETATM    1  C   UNL     1      18.419  47.409  47.745  1.00  0.00     0.148 A 
HETATM    2  N   UNL     1      18.281  47.265  49.191  1.00  0.00    -0.320 N 
HETATM    3  C   UNL     1      18.863  48.286  49.899  1.00  0.00     0.326 A 
HETATM    4  O   UNL     1      18.791  48.399  51.110  1.00  0.00    -0.247 OA
HETATM    5  N   UNL     1      19.535  49.081  49.034  1.00  0.00    -0.263 N 
HETATM    6  C   UNL     1      19.373  48.636  47.756  1.00  0.00     0.262 A 
HETATM    7  O   UNL     1      19.907  49.136  46.775  1.00  0.00    -0.270 OA
HETATM    8  H   UNL     1      17.625  46.655  49.664  1.00  0.00     0.166 HD
ENDROOT
BRANCH   1   9
HETATM    9  C   UNL     1      19.041  46.105  47.137  1.00  0.00     0.031 C 
HETATM   10  C   UNL     1      20.364  46.272  46.363  1.00  0.00     0.028 C 
HETATM   11  C   UNL     1      21.635  46.219  47.205  1.00  0.00     0.126 C 
HETATM   12  N   UNL     1      21.659  45.125  48.180  1.00  0.00    -0.350 N 
HETATM   13  C   UNL     1      22.921  44.808  48.698  1.00  0.00     0.251 C 
HETATM   14  C   UNL     1      20.435  44.921  48.954  1.00  0.00     0.126 C 
HETATM   15  O   UNL     1      23.941  45.402  48.338  1.00  0.00    -0.271 OA
HETATM   16  C   UNL     1      19.177  44.909  48.098  1.00  0.00     0.028 C 
BRANCH  13  17
HETATM   17  C   UNL     1      23.033  43.631  49.707  1.00  0.00     0.279 C 
HETATM   18  N   UNL     1      24.311  43.631  50.585  1.00  0.00    -0.062 N 
HETATM   19  C   UNL     1      24.421  44.869  51.435  1.00  0.00     0.270 C 
HETATM   20  H   UNL     1      24.211  42.846  51.239  1.00  0.00     0.280 HD
HETATM   21  C   UNL     1      25.583  43.379  49.808  1.00  0.00     0.235 C 
HETATM   22  C   UNL     1      25.474  42.058  49.064  1.00  0.00     0.028 C 
HETATM   23  C   UNL     1      24.236  41.994  48.181  1.00  0.00     0.004 C 
HETATM   24  C   UNL     1      22.966  42.283  48.979  1.00  0.00     0.043 C 
ENDBRANCH  13  17
ENDBRANCH   1   9
BRANCH   1  25
HETATM   25  C   UNL     1      17.040  47.708  47.158  1.00  0.00    -0.003 A 
HETATM   26  C   UNL     1      16.014  48.304  47.890  1.00  0.00     0.126 A 
HETATM   27  N   UNL     1      14.793  48.605  47.392  1.00  0.00    -0.272 NA
HETATM   28  C   UNL     1      14.557  48.294  46.101  1.00  0.00     0.116 A 
HETATM   29  C   UNL     1      15.497  47.706  45.277  1.00  0.00     0.020 A 
HETATM   30  C   UNL     1      16.751  47.417  45.812  1.00  0.00     0.013 A 
ENDBRANCH   1  25
BRANCH   5  31
HETATM   31  C   UNL     1      20.291  50.254  49.412  1.00  0.00     0.175 C 
BRANCH  31  32
HETATM   32  C   UNL     1      21.755  50.114  49.071  1.00  0.00    -0.040 A 
HETATM   33  C   UNL     1      22.411  51.114  48.337  1.00  0.00     0.012 A 
HETATM   34  C   UNL     1      23.762  50.979  48.013  1.00  0.00     0.043 A 
HETATM   35  C   UNL     1      24.453  49.840  48.411  1.00  0.00     0.116 A 
HETATM   36  F   UNL     1      25.750  49.713  48.101  1.00  0.00    -0.206 F 
HETATM   37  C   UNL     1      23.819  48.831  49.125  1.00  0.00     0.043 A 
HETATM   38  C   UNL     1      22.469  48.965  49.453  1.00  0.00     0.012 A 
ENDBRANCH  31  32
ENDBRANCH   5  31
TORSDOF 5
ENDMDL
MODEL 6
REMARK VINA RESULT:      -8.7     11.355     15.612
REMARK  5 active torsions:
REMARK  status: ('A' for Active; 'I' for Inactive)
REMARK    1  A    between atoms: C_4  and  C_5 
REMARK       I    between atoms: C_5  and  N_6 
REMARK    2  A    between atoms: C_9  and  C_10 
REMARK    3  A    between atoms: C_10  and  C_11 
REMARK    4  A    between atoms: N_20  and  C_21 
REMARK    5  A    between atoms: C_21  and  C_22 
ROOT
HETATM    1  C   UNL     1      29.965  50.094  40.954  1.00  0.00     0.148 A 
HETATM    2  N   UNL     1      30.695  48.912  40.504  1.00  0.00    -0.320 N 
HETATM    3  C   UNL     1      29.935  47.770  40.504  1.00  0.00     0.326 A 
HETATM    4  O   UNL     1      30.327  46.694  40.087  1.00  0.00    -0.247 OA
HETATM    5  N   UNL     1      28.736  48.049  41.068  1.00  0.00    -0.263 N 
HETATM    6  C   UNL     1      28.666  49.370  41.401  1.00  0.00     0.262 A 
HETATM    7  O   UNL     1      27.715  49.891  41.970  1.00  0.00    -0.270 OA
HETATM    8  H   UNL     1      31.569  48.918  39.993  1.00  0.00     0.166 HD
ENDROOT
BRANCH   1   9
HETATM    9  C   UNL     1      30.753  50.796  42.113  1.00  0.00     0.031 C 
HETATM   10  C   UNL     1      31.687  49.899  42.950  1.00  0.00     0.028 C 
HETATM   11  C   UNL     1      33.099  49.719  42.400  1.00  0.00     0.126 C 
HETATM   12  N   UNL     1      33.727  50.964  41.951  1.00  0.00    -0.350 N 
HETATM   13  C   UNL     1      35.119  50.914  41.797  1.00  0.00     0.251 C 
HETATM   14  C   UNL     1      32.894  51.855  41.144  1.00  0.00     0.126 C 
HETATM   15  O   UNL     1      35.765  49.893  42.045  1.00  0.00    -0.271 OA
HETATM   16  C   UNL     1      31.510  52.083  41.734  1.00  0.00     0.028 C 
BRANCH  13  17
HETATM   17  C   UNL     1      35.862  52.209  41.363  1.00  0.00     0.279 C 
HETATM   18  N   UNL     1      36.852  52.038  40.183  1.00  0.00    -0.062 N 
HETATM   19  C   UNL     1      36.170  51.557  38.930  1.00  0.00     0.270 C 
HETATM   20  H   UNL     1      37.208  52.978  39.968  1.00  0.00     0.280 HD
HETATM   21  C   UNL     1      38.058  51.191  40.516  1.00  0.00     0.235 C 
HETATM   22  C   UNL     1      38.786  51.786  41.711  1.00  0.00     0.028 C 
HETATM   23  C   UNL     1      37.866  51.978  42.909  1.00  0.00     0.004 C 
HETATM   24  C   UNL     1      36.639  52.810  42.541  1.00  0.00     0.043 C 
ENDBRANCH  13  17
ENDBRANCH   1   9
BRANCH   1  25
HETATM   25  C   UNL     1      29.769  51.023  39.757  1.00  0.00    -0.003 A 
HETATM   26  C   UNL     1      30.349  50.791  38.510  1.00  0.00     0.126 A 
HETATM   27  N   UNL     1      30.174  51.580  37.425  1.00  0.00    -0.272 NA
HETATM   28  C   UNL     1      29.393  52.669  37.572  1.00  0.00     0.116 A 
HETATM   29  C   UNL     1      28.763  52.999  38.756  1.00  0.00     0.020 A 
HETATM   30  C   UNL     1      28.951  52.163  39.854  1.00  0.00     0.013 A 
ENDBRANCH   1  25
BRANCH   5  31
HETATM   31  C   UNL     1      27.673  47.090  41.260  1.00  0.00     0.175 C 
BRANCH  31  32
HETATM   32  C   UNL     1      26.539  47.304  40.286  1.00  0.00    -0.040 A 
HETATM   33  C   UNL     1      26.776  47.272  38.904  1.00  0.00     0.012 A 
HETATM   34  C   UNL     1      25.730  47.482  38.004  1.00  0.00     0.043 A 
HETATM   35  C   UNL     1      24.450  47.735  38.485  1.00  0.00     0.116 A 
HETATM   36  F   UNL     1      23.447  47.935  37.621  1.00  0.00    -0.206 F 
HETATM   37  C   UNL     1      24.197  47.788  39.851  1.00  0.00     0.043 A 
HETATM   38  C   UNL     1      25.241  47.576  40.752  1.00  0.00     0.012 A 
ENDBRANCH  31  32
ENDBRANCH   5  31
TORSDOF 5
ENDMDL
MODEL 7
REMARK VINA RESULT:      -8.7     10.660     14.620
REMARK  5 active torsions:
REMARK  status: ('A' for Active; 'I' for Inactive)
REMARK    1  A    between atoms: C_4  and  C_5 
REMARK       I    between atoms: C_5  and  N_6 
REMARK    2  A    between atoms: C_9  and  C_10 
REMARK    3  A    between atoms: C_10  and  C_11 
REMARK    4  A    between atoms: N_20  and  C_21 
REMARK    5  A    between atoms: C_21  and  C_22 
ROOT
HETATM    1  C   UNL     1      29.304  49.166  40.321  1.00  0.00     0.148 A 
HETATM    2  N   UNL     1      30.056  48.098  39.669  1.00  0.00    -0.320 N 
HETATM    3  C   UNL     1      29.271  47.050  39.260  1.00  0.00     0.326 A 
HETATM    4  O   UNL     1      29.688  46.098  38.624  1.00  0.00    -0.247 OA
HETATM    5  N   UNL     1      28.012  47.251  39.714  1.00  0.00    -0.263 N 
HETATM    6  C   UNL     1      27.932  48.439  40.379  1.00  0.00     0.262 A 
HETATM    7  O   UNL     1      26.924  48.855  40.936  1.00  0.00    -0.270 OA
HETATM    8  H   UNL     1      30.995  48.178  39.300  1.00  0.00     0.166 HD
ENDROOT
BRANCH   1   9
HETATM    9  C   UNL     1      29.934  49.483  41.721  1.00  0.00     0.031 C 
HETATM   10  C   UNL     1      30.998  48.493  42.235  1.00  0.00     0.028 C 
HETATM   11  C   UNL     1      32.429  48.761  41.778  1.00  0.00     0.126 C 
HETATM   12  N   UNL     1      32.834  50.165  41.883  1.00  0.00    -0.350 N 
HETATM   13  C   UNL     1      34.215  50.397  41.840  1.00  0.00     0.251 C 
HETATM   14  C   UNL     1      31.871  51.155  41.402  1.00  0.00     0.126 C 
HETATM   15  O   UNL     1      35.028  49.474  41.740  1.00  0.00    -0.271 OA
HETATM   16  C   UNL     1      30.459  50.919  41.916  1.00  0.00     0.028 C 
BRANCH  13  17
HETATM   17  C   UNL     1      34.726  51.858  41.987  1.00  0.00     0.279 C 
HETATM   18  N   UNL     1      35.504  52.413  40.767  1.00  0.00    -0.062 N 
HETATM   19  C   UNL     1      34.670  52.429  39.514  1.00  0.00     0.270 C 
HETATM   20  H   UNL     1      35.712  53.395  40.981  1.00  0.00     0.280 HD
HETATM   21  C   UNL     1      36.836  51.736  40.535  1.00  0.00     0.235 C 
HETATM   22  C   UNL     1      37.693  51.853  41.785  1.00  0.00     0.028 C 
HETATM   23  C   UNL     1      36.983  51.322  43.023  1.00  0.00     0.004 C 
HETATM   24  C   UNL     1      35.627  51.997  43.220  1.00  0.00     0.043 C 
ENDBRANCH  13  17
ENDBRANCH   1   9
BRANCH   1  25
HETATM   25  C   UNL     1      29.313  50.389  39.404  1.00  0.00    -0.003 A 
HETATM   26  C   UNL     1      30.165  50.512  38.308  1.00  0.00     0.126 A 
HETATM   27  N   UNL     1      30.179  51.569  37.463  1.00  0.00    -0.272 NA
HETATM   28  C   UNL     1      29.313  52.572  37.713  1.00  0.00     0.116 A 
HETATM   29  C   UNL     1      28.418  52.559  38.766  1.00  0.00     0.020 A 
HETATM   30  C   UNL     1      28.417  51.454  39.614  1.00  0.00     0.013 A 
ENDBRANCH   1  25
BRANCH   5  31
HETATM   31  C   UNL     1      26.904  46.349  39.496  1.00  0.00     0.175 C 
BRANCH  31  32
HETATM   32  C   UNL     1      26.815  45.297  40.576  1.00  0.00    -0.040 A 
HETATM   33  C   UNL     1      27.485  44.073  40.430  1.00  0.00     0.012 A 
HETATM   34  C   UNL     1      27.393  43.096  41.423  1.00  0.00     0.043 A 
HETATM   35  C   UNL     1      26.622  43.338  42.554  1.00  0.00     0.116 A 
HETATM   36  F   UNL     1      26.537  42.401  43.507  1.00  0.00    -0.206 F 
HETATM   37  C   UNL     1      25.937  44.537  42.711  1.00  0.00     0.043 A 
HETATM   38  C   UNL     1      26.030  45.516  41.721  1.00  0.00     0.012 A 
ENDBRANCH  31  32
ENDBRANCH   5  31
TORSDOF 5
ENDMDL
MODEL 8
REMARK VINA RESULT:      -8.6     18.556     22.234
REMARK  5 active torsions:
REMARK  status: ('A' for Active; 'I' for Inactive)
REMARK    1  A    between atoms: C_4  and  C_5 
REMARK       I    between atoms: C_5  and  N_6 
REMARK    2  A    between atoms: C_9  and  C_10 
REMARK    3  A    between atoms: C_10  and  C_11 
REMARK    4  A    between atoms: N_20  and  C_21 
REMARK    5  A    between atoms: C_21  and  C_22 
ROOT
HETATM    1  C   UNL     1      38.490  48.657  65.718  1.00  0.00     0.148 A 
HETATM    2  N   UNL     1      37.999  48.870  64.360  1.00  0.00    -0.320 N 
HETATM    3  C   UNL     1      37.040  47.966  63.978  1.00  0.00     0.326 A 
HETATM    4  O   UNL     1      36.442  48.018  62.917  1.00  0.00    -0.247 OA
HETATM    5  N   UNL     1      36.922  47.028  64.947  1.00  0.00    -0.263 N 
HETATM    6  C   UNL     1      37.752  47.317  65.990  1.00  0.00     0.262 A 
HETATM    7  O   UNL     1      37.887  46.613  66.983  1.00  0.00    -0.270 OA
HETATM    8  H   UNL     1      38.117  49.715  63.815  1.00  0.00     0.166 HD
ENDROOT
BRANCH   1   9
HETATM    9  C   UNL     1      40.054  48.550  65.708  1.00  0.00     0.031 C 
HETATM   10  C   UNL     1      40.731  48.270  67.065  1.00  0.00     0.028 C 
HETATM   11  C   UNL     1      40.855  46.799  67.453  1.00  0.00     0.126 C 
HETATM   12  N   UNL     1      41.331  45.936  66.369  1.00  0.00    -0.350 N 
HETATM   13  C   UNL     1      41.812  44.682  66.767  1.00  0.00     0.251 C 
HETATM   14  C   UNL     1      40.720  46.146  65.057  1.00  0.00     0.126 C 
HETATM   15  O   UNL     1      41.847  44.344  67.952  1.00  0.00    -0.271 OA
HETATM   16  C   UNL     1      40.661  47.611  64.649  1.00  0.00     0.028 C 
BRANCH  13  17
HETATM   17  C   UNL     1      42.374  43.725  65.678  1.00  0.00     0.279 C 
HETATM   18  N   UNL     1      42.147  42.215  65.943  1.00  0.00    -0.062 N 
HETATM   19  C   UNL     1      40.687  41.864  66.037  1.00  0.00     0.270 C 
HETATM   20  H   UNL     1      42.505  41.721  65.117  1.00  0.00     0.280 HD
HETATM   21  C   UNL     1      42.921  41.681  67.127  1.00  0.00     0.235 C 
HETATM   22  C   UNL     1      44.405  41.949  66.930  1.00  0.00     0.028 C 
HETATM   23  C   UNL     1      44.695  43.420  66.665  1.00  0.00     0.004 C 
HETATM   24  C   UNL     1      43.880  43.945  65.485  1.00  0.00     0.043 C 
ENDBRANCH  13  17
ENDBRANCH   1   9
BRANCH   1  25
HETATM   25  C   UNL     1      38.005  49.813  66.591  1.00  0.00    -0.003 A 
HETATM   26  C   UNL     1      37.396  49.626  67.832  1.00  0.00     0.126 A 
HETATM   27  N   UNL     1      36.980  50.628  68.639  1.00  0.00    -0.272 NA
HETATM   28  C   UNL     1      37.160  51.891  68.202  1.00  0.00     0.116 A 
HETATM   29  C   UNL     1      37.754  52.199  66.994  1.00  0.00     0.020 A 
HETATM   30  C   UNL     1      38.184  51.148  66.186  1.00  0.00     0.013 A 
ENDBRANCH   1  25
BRANCH   5  31
HETATM   31  C   UNL     1      36.020  45.900  64.895  1.00  0.00     0.175 C 
BRANCH  31  32
HETATM   32  C   UNL     1      36.713  44.648  64.415  1.00  0.00    -0.040 A 
HETATM   33  C   UNL     1      37.620  44.705  63.346  1.00  0.00     0.012 A 
HETATM   34  C   UNL     1      38.253  43.546  62.894  1.00  0.00     0.043 A 
HETATM   35  C   UNL     1      37.969  42.328  63.502  1.00  0.00     0.116 A 
HETATM   36  F   UNL     1      38.578  41.217  63.069  1.00  0.00    -0.206 F 
HETATM   37  C   UNL     1      37.062  42.246  64.551  1.00  0.00     0.043 A 
HETATM   38  C   UNL     1      36.431  43.404  65.006  1.00  0.00     0.012 A 
ENDBRANCH  31  32
ENDBRANCH   5  31
TORSDOF 5
ENDMDL
MODEL 9
REMARK VINA RESULT:      -8.5      6.267     12.365
REMARK  5 active torsions:
REMARK  status: ('A' for Active; 'I' for Inactive)
REMARK    1  A    between atoms: C_4  and  C_5 
REMARK       I    between atoms: C_5  and  N_6 
REMARK    2  A    between atoms: C_9  and  C_10 
REMARK    3  A    between atoms: C_10  and  C_11 
REMARK    4  A    between atoms: N_20  and  C_21 
REMARK    5  A    between atoms: C_21  and  C_22 
ROOT
HETATM    1  C   UNL     1      16.045  52.373  48.127  1.00  0.00     0.148 A 
HETATM    2  N   UNL     1      15.952  52.869  46.758  1.00  0.00    -0.320 N 
HETATM    3  C   UNL     1      15.503  51.928  45.866  1.00  0.00     0.326 A 
HETATM    4  O   UNL     1      15.275  52.161  44.691  1.00  0.00    -0.247 OA
HETATM    5  N   UNL     1      15.406  50.740  46.506  1.00  0.00    -0.263 N 
HETATM    6  C   UNL     1      15.737  50.881  47.821  1.00  0.00     0.262 A 
HETATM    7  O   UNL     1      15.783  49.960  48.626  1.00  0.00    -0.270 OA
HETATM    8  H   UNL     1      15.949  53.844  46.483  1.00  0.00     0.166 HD
ENDROOT
BRANCH   1   9
HETATM    9  C   UNL     1      17.483  52.638  48.693  1.00  0.00     0.031 C 
HETATM   10  C   UNL     1      17.861  51.887  49.985  1.00  0.00     0.028 C 
HETATM   11  C   UNL     1      18.438  50.488  49.793  1.00  0.00     0.126 C 
HETATM   12  N   UNL     1      19.456  50.401  48.743  1.00  0.00    -0.350 N 
HETATM   13  C   UNL     1      20.266  49.259  48.784  1.00  0.00     0.251 C 
HETATM   14  C   UNL     1      19.152  51.086  47.488  1.00  0.00     0.126 C 
HETATM   15  O   UNL     1      20.136  48.399  49.659  1.00  0.00    -0.271 OA
HETATM   16  C   UNL     1      18.641  52.506  47.686  1.00  0.00     0.028 C 
BRANCH  13  17
HETATM   17  C   UNL     1      21.397  49.116  47.728  1.00  0.00     0.279 C 
HETATM   18  N   UNL     1      22.145  47.758  47.739  1.00  0.00    -0.062 N 
HETATM   19  C   UNL     1      21.226  46.597  47.467  1.00  0.00     0.270 C 
HETATM   20  H   UNL     1      22.805  47.786  46.952  1.00  0.00     0.280 HD
HETATM   21  C   UNL     1      22.972  47.528  48.982  1.00  0.00     0.235 C 
HETATM   22  C   UNL     1      23.971  48.662  49.149  1.00  0.00     0.028 C 
HETATM   23  C   UNL     1      23.297  50.028  49.146  1.00  0.00     0.004 C 
HETATM   24  C   UNL     1      22.442  50.225  47.897  1.00  0.00     0.043 C 
ENDBRANCH  13  17
ENDBRANCH   1   9
BRANCH   1  25
HETATM   25  C   UNL     1      14.969  53.063  48.964  1.00  0.00    -0.003 A 
HETATM   26  C   UNL     1      14.607  52.634  50.241  1.00  0.00     0.126 A 
HETATM   27  N   UNL     1      13.677  53.239  51.016  1.00  0.00    -0.272 NA
HETATM   28  C   UNL     1      13.056  54.321  50.507  1.00  0.00     0.116 A 
HETATM   29  C   UNL     1      13.334  54.840  49.257  1.00  0.00     0.020 A 
HETATM   30  C   UNL     1      14.304  54.205  48.484  1.00  0.00     0.013 A 
ENDBRANCH   1  25
BRANCH   5  31
HETATM   31  C   UNL     1      14.981  49.505  45.887  1.00  0.00     0.175 C 
BRANCH  31  32
HETATM   32  C   UNL     1      16.153  48.628  45.517  1.00  0.00    -0.040 A 
HETATM   33  C   UNL     1      16.421  47.458  46.245  1.00  0.00     0.012 A 
HETATM   34  C   UNL     1      17.511  46.654  45.910  1.00  0.00     0.043 A 
HETATM   35  C   UNL     1      18.340  47.024  44.857  1.00  0.00     0.116 A 
HETATM   36  F   UNL     1      19.385  46.251  44.535  1.00  0.00    -0.206 F 
HETATM   37  C   UNL     1      18.102  48.187  44.134  1.00  0.00     0.043 A 
HETATM   38  C   UNL     1      17.011  48.991  44.465  1.00  0.00     0.012 A 
ENDBRANCH  31  32
ENDBRANCH   5  31
TORSDOF 5
ENDMDL
MODEL 10
REMARK VINA RESULT:      -8.4      7.025     10.204
REMARK  5 active torsions:
REMARK  status: ('A' for Active; 'I' for Inactive)
REMARK    1  A    between atoms: C_4  and  C_5 
REMARK       I    between atoms: C_5  and  N_6 
REMARK    2  A    between atoms: C_9  and  C_10 
REMARK    3  A    between atoms: C_10  and  C_11 
REMARK    4  A    between atoms: N_20  and  C_21 
REMARK    5  A    between atoms: C_21  and  C_22 
ROOT
HETATM    1  C   UNL     1      19.415  50.318  49.275  1.00  0.00     0.148 A 
HETATM    2  N   UNL     1      19.245  49.860  50.650  1.00  0.00    -0.320 N 
HETATM    3  C   UNL     1      18.573  48.668  50.749  1.00  0.00     0.326 A 
HETATM    4  O   UNL     1      18.399  48.073  51.798  1.00  0.00    -0.247 OA
HETATM    5  N   UNL     1      18.129  48.321  49.518  1.00  0.00    -0.263 N 
HETATM    6  C   UNL     1      18.533  49.236  48.593  1.00  0.00     0.262 A 
HETATM    7  O   UNL     1      18.235  49.199  47.405  1.00  0.00    -0.270 OA
HETATM    8  H   UNL     1      19.763  50.197  51.452  1.00  0.00     0.166 HD
ENDROOT
BRANCH   1   9
HETATM    9  C   UNL     1      18.878  51.784  49.131  1.00  0.00     0.031 C 
HETATM   10  C   UNL     1      19.235  52.520  47.824  1.00  0.00     0.028 C 
HETATM   11  C   UNL     1      18.282  52.293  46.654  1.00  0.00     0.126 C 
HETATM   12  N   UNL     1      16.865  52.387  47.014  1.00  0.00    -0.350 N 
HETATM   13  C   UNL     1      15.982  52.561  45.939  1.00  0.00     0.251 C 
HETATM   14  C   UNL     1      16.461  51.701  48.239  1.00  0.00     0.126 C 
HETATM   15  O   UNL     1      16.383  52.647  44.775  1.00  0.00    -0.271 OA
HETATM   16  C   UNL     1      17.378  51.985  49.419  1.00  0.00     0.028 C 
BRANCH  13  17
HETATM   17  C   UNL     1      14.466  52.711  46.244  1.00  0.00     0.279 C 
HETATM   18  N   UNL     1      13.515  52.296  45.092  1.00  0.00    -0.062 N 
HETATM   19  C   UNL     1      13.682  50.850  44.706  1.00  0.00     0.270 C 
HETATM   20  H   UNL     1      12.561  52.382  45.461  1.00  0.00     0.280 HD
HETATM   21  C   UNL     1      13.589  53.202  43.884  1.00  0.00     0.235 C 
HETATM   22  C   UNL     1      13.292  54.633  44.301  1.00  0.00     0.028 C 
HETATM   23  C   UNL     1      14.196  55.104  45.433  1.00  0.00     0.004 C 
HETATM   24  C   UNL     1      14.129  54.157  46.629  1.00  0.00     0.043 C 
ENDBRANCH  13  17
ENDBRANCH   1   9
BRANCH   1  25
HETATM   25  C   UNL     1      20.897  50.219  48.914  1.00  0.00    -0.003 A 
HETATM   26  C   UNL     1      21.391  49.326  47.963  1.00  0.00     0.126 A 
HETATM   27  N   UNL     1      22.692  49.232  47.605  1.00  0.00    -0.272 NA
HETATM   28  C   UNL     1      23.565  50.054  48.221  1.00  0.00     0.116 A 
HETATM   29  C   UNL     1      23.193  50.981  49.175  1.00  0.00     0.020 A 
HETATM   30  C   UNL     1      21.845  51.065  49.518  1.00  0.00     0.013 A 
ENDBRANCH   1  25
BRANCH   5  31
HETATM   31  C   UNL     1      17.362  47.131  49.226  1.00  0.00     0.175 C 
BRANCH  31  32
HETATM   32  C   UNL     1      18.118  46.180  48.330  1.00  0.00    -0.040 A 
HETATM   33  C   UNL     1      17.479  45.575  47.237  1.00  0.00     0.012 A 
HETATM   34  C   UNL     1      18.175  44.687  46.416  1.00  0.00     0.043 A 
HETATM   35  C   UNL     1      19.506  44.395  46.694  1.00  0.00     0.116 A 
HETATM   36  F   UNL     1      20.173  43.544  45.904  1.00  0.00    -0.206 F 
HETATM   37  C   UNL     1      20.153  44.970  47.781  1.00  0.00     0.043 A 
HETATM   38  C   UNL     1      19.460  45.860  48.601  1.00  0.00     0.012 A 
ENDBRANCH  31  32
ENDBRANCH   5  31
TORSDOF 5
ENDMDL
