MODEL 1
REMARK VINA RESULT:     -10.2      0.000      0.000
REMARK  9 active torsions:
REMARK  status: ('A' for Active; 'I' for Inactive)
REMARK    1  A    between atoms: C_11  and  S_12 
REMARK    2  A    between atoms: S_12  and  C_13 
REMARK    3  A    between atoms: C_13  and  C_14 
REMARK       I    between atoms: C_14  and  N_15 
REMARK    4  A    between atoms: N_15  and  N_16 
REMARK    5  A    between atoms: N_16  and  C_17 
REMARK    6  A    between atoms: C_17  and  N_18 
REMARK    7  A    between atoms: N_18  and  C_19 
REMARK    8  A    between atoms: C_22  and  O_23 
REMARK    9  A    between atoms: O_23  and  C_24 
ROOT
HETATM    1  C   UNL     1      26.530  45.779  49.871  1.00  0.00     0.245 C 
HETATM    2  N   UNL     1      26.212  44.688  50.672  1.00  0.00    -0.267 N 
HETATM    3  O   UNL     1      27.575  45.849  49.232  1.00  0.00    -0.271 OA
HETATM    4  H   UNL     1      25.480  44.706  51.375  1.00  0.00     0.190 HD
ENDROOT
BRANCH   2   5
HETATM    5  N   UNL     1      27.056  43.572  50.649  1.00  0.00    -0.274 N 
HETATM    6  H   UNL     1      28.013  43.767  50.379  1.00  0.00     0.189 HD
BRANCH   5   7
HETATM    7  C   UNL     1      26.779  42.436  51.369  1.00  0.00     0.191 C 
HETATM    8  S   UNL     1      26.410  40.950  50.686  1.00  0.00    -0.039 SA
BRANCH   7   9
HETATM    9  N   UNL     1      26.963  42.499  52.726  1.00  0.00    -0.332 N 
HETATM   10  H   UNL     1      26.158  42.176  53.253  1.00  0.00     0.168 HD
BRANCH   9  11
HETATM   11  C   UNL     1      28.053  42.971  53.484  1.00  0.00     0.034 A 
HETATM   12  C   UNL     1      29.344  42.446  53.398  1.00  0.00     0.032 A 
HETATM   13  C   UNL     1      30.366  42.944  54.214  1.00  0.00     0.039 A 
HETATM   14  C   UNL     1      30.125  43.992  55.105  1.00  0.00     0.078 A 
HETATM   15  C   UNL     1      28.854  44.563  55.143  1.00  0.00     0.039 A 
HETATM   16  C   UNL     1      27.829  44.062  54.328  1.00  0.00     0.032 A 
BRANCH  14  17
HETATM   17  O   UNL     1      31.205  44.358  55.854  1.00  0.00    -0.255 OA
BRANCH  17  18
HETATM   18  C   UNL     1      31.385  43.726  57.109  1.00  0.00     0.530 C 
HETATM   19  F   UNL     1      32.695  43.598  57.405  1.00  0.00    -0.144 F 
HETATM   20  F   UNL     1      30.764  44.409  58.095  1.00  0.00    -0.144 F 
HETATM   21  F   UNL     1      30.844  42.488  57.053  1.00  0.00    -0.144 F 
ENDBRANCH  17  18
ENDBRANCH  14  17
ENDBRANCH   9  11
ENDBRANCH   7   9
ENDBRANCH   5   7
ENDBRANCH   2   5
BRANCH   1  22
HETATM   22  C   UNL     1      25.410  46.810  49.840  1.00  0.00     0.187 C 
BRANCH  22  23
HETATM   23  S   UNL     1      25.918  48.461  49.280  1.00  0.00    -0.079 SA
BRANCH  23  24
HETATM   24  C   UNL     1      24.323  49.206  48.994  1.00  0.00     0.211 A 
HETATM   25  N   UNL     1      24.277  50.387  48.311  1.00  0.00    -0.122 NA
HETATM   26  N   UNL     1      23.127  51.057  48.178  1.00  0.00    -0.143 NA
HETATM   27  C   UNL     1      22.034  50.487  48.747  1.00  0.00     0.137 A 
HETATM   28  C   UNL     1      20.685  50.913  48.865  1.00  0.00     0.025 A 
HETATM   29  C   UNL     1      22.146  49.259  49.373  1.00  0.00     0.162 A 
HETATM   30  C   UNL     1      19.973  52.063  48.467  1.00  0.00     0.016 A 
HETATM   31  C   UNL     1      20.000  49.904  49.554  1.00  0.00     0.046 A 
HETATM   32  C   UNL     1      18.611  52.164  48.770  1.00  0.00     0.001 A 
HETATM   33  C   UNL     1      17.955  51.140  49.451  1.00  0.00     0.002 A 
HETATM   34  C   UNL     1      18.636  49.989  49.856  1.00  0.00     0.030 A 
HETATM   35  N   UNL     1      20.912  48.911  49.837  1.00  0.00    -0.338 N 
HETATM   36  H   UNL     1      20.720  48.057  50.341  1.00  0.00     0.167 HD
HETATM   37  N   UNL     1      23.271  48.542  49.519  1.00  0.00    -0.201 NA
ENDBRANCH  23  24
ENDBRANCH  22  23
ENDBRANCH   1  22
TORSDOF 9
ENDMDL
MODEL 2
REMARK VINA RESULT:      -9.9      6.403     12.404
REMARK  9 active torsions:
REMARK  status: ('A' for Active; 'I' for Inactive)
REMARK    1  A    between atoms: C_11  and  S_12 
REMARK    2  A    between atoms: S_12  and  C_13 
REMARK    3  A    between atoms: C_13  and  C_14 
REMARK       I    between atoms: C_14  and  N_15 
REMARK    4  A    between atoms: N_15  and  N_16 
REMARK    5  A    between atoms: N_16  and  C_17 
REMARK    6  A    between atoms: C_17  and  N_18 
REMARK    7  A    between atoms: N_18  and  C_19 
REMARK    8  A    between atoms: C_22  and  O_23 
REMARK    9  A    between atoms: O_23  and  C_24 
ROOT
HETATM    1  C   UNL     1      25.243  47.100  50.052  1.00  0.00     0.245 C 
HETATM    2  N   UNL     1      23.903  47.208  49.699  1.00  0.00    -0.267 N 
HETATM    3  O   UNL     1      25.895  48.052  50.472  1.00  0.00    -0.271 OA
HETATM    4  H   UNL     1      23.414  46.511  49.145  1.00  0.00     0.190 HD
ENDROOT
BRANCH   2   5
HETATM    5  N   UNL     1      23.238  48.412  49.950  1.00  0.00    -0.274 N 
HETATM    6  H   UNL     1      23.321  48.754  50.901  1.00  0.00     0.189 HD
BRANCH   5   7
HETATM    7  C   UNL     1      22.923  49.293  48.945  1.00  0.00     0.191 C 
HETATM    8  S   UNL     1      24.041  50.245  48.136  1.00  0.00    -0.039 SA
BRANCH   7   9
HETATM    9  N   UNL     1      21.631  49.275  48.486  1.00  0.00    -0.332 N 
HETATM   10  H   UNL     1      21.515  48.719  47.645  1.00  0.00     0.168 HD
BRANCH   9  11
HETATM   11  C   UNL     1      20.477  49.927  48.963  1.00  0.00     0.034 A 
HETATM   12  C   UNL     1      19.569  49.349  49.850  1.00  0.00     0.032 A 
HETATM   13  C   UNL     1      18.424  50.049  50.248  1.00  0.00     0.039 A 
HETATM   14  C   UNL     1      18.183  51.346  49.791  1.00  0.00     0.078 A 
HETATM   15  C   UNL     1      19.123  51.951  48.958  1.00  0.00     0.039 A 
HETATM   16  C   UNL     1      20.268  51.248  48.558  1.00  0.00     0.032 A 
BRANCH  14  17
HETATM   17  O   UNL     1      17.017  51.897  50.239  1.00  0.00    -0.255 OA
BRANCH  17  18
HETATM   18  C   UNL     1      15.909  51.909  49.357  1.00  0.00     0.530 C 
HETATM   19  F   UNL     1      15.750  50.709  48.761  1.00  0.00    -0.144 F 
HETATM   20  F   UNL     1      14.772  52.247  50.002  1.00  0.00    -0.144 F 
HETATM   21  F   UNL     1      16.133  52.830  48.393  1.00  0.00    -0.144 F 
ENDBRANCH  17  18
ENDBRANCH  14  17
ENDBRANCH   9  11
ENDBRANCH   7   9
ENDBRANCH   5   7
ENDBRANCH   2   5
BRANCH   1  22
HETATM   22  C   UNL     1      25.756  45.673  49.920  1.00  0.00     0.187 C 
BRANCH  22  23
HETATM   23  S   UNL     1      25.154  44.532  51.199  1.00  0.00    -0.079 SA
BRANCH  23  24
HETATM   24  C   UNL     1      26.607  44.410  52.226  1.00  0.00     0.211 A 
HETATM   25  N   UNL     1      27.485  43.393  51.984  1.00  0.00    -0.122 NA
HETATM   26  N   UNL     1      28.521  43.173  52.799  1.00  0.00    -0.143 NA
HETATM   27  C   UNL     1      28.643  44.021  53.852  1.00  0.00     0.137 A 
HETATM   28  C   UNL     1      29.554  44.071  54.939  1.00  0.00     0.025 A 
HETATM   29  C   UNL     1      27.749  45.066  54.002  1.00  0.00     0.162 A 
HETATM   30  C   UNL     1      30.647  43.281  55.350  1.00  0.00     0.016 A 
HETATM   31  C   UNL     1      29.195  45.177  55.720  1.00  0.00     0.046 A 
HETATM   32  C   UNL     1      31.337  43.621  56.520  1.00  0.00     0.001 A 
HETATM   33  C   UNL     1      30.958  44.731  57.273  1.00  0.00     0.002 A 
HETATM   34  C   UNL     1      29.880  45.532  56.887  1.00  0.00     0.030 A 
HETATM   35  N   UNL     1      28.102  45.764  55.118  1.00  0.00    -0.338 N 
HETATM   36  H   UNL     1      27.606  46.576  55.456  1.00  0.00     0.167 HD
HETATM   37  N   UNL     1      26.704  45.336  53.204  1.00  0.00    -0.201 NA
ENDBRANCH  23  24
ENDBRANCH  22  23
ENDBRANCH   1  22
TORSDOF 9
ENDMDL
MODEL 3
REMARK VINA RESULT:      -9.7      5.884     12.027
REMARK  9 active torsions:
REMARK  status: ('A' for Active; 'I' for Inactive)
REMARK    1  A    between atoms: C_11  and  S_12 
REMARK    2  A    between atoms: S_12  and  C_13 
REMARK    3  A    between atoms: C_13  and  C_14 
REMARK       I    between atoms: C_14  and  N_15 
REMARK    4  A    between atoms: N_15  and  N_16 
REMARK    5  A    between atoms: N_16  and  C_17 
REMARK    6  A    between atoms: C_17  and  N_18 
REMARK    7  A    between atoms: N_18  and  C_19 
REMARK    8  A    between atoms: C_22  and  O_23 
REMARK    9  A    between atoms: O_23  and  C_24 
ROOT
HETATM    1  C   UNL     1      24.732  46.070  50.376  1.00  0.00     0.245 C 
HETATM    2  N   UNL     1      24.976  47.436  50.307  1.00  0.00    -0.267 N 
HETATM    3  O   UNL     1      24.093  45.467  49.519  1.00  0.00    -0.271 OA
HETATM    4  H   UNL     1      25.296  47.987  51.098  1.00  0.00     0.190 HD
ENDROOT
BRANCH   2   5
HETATM    5  N   UNL     1      24.588  48.129  49.155  1.00  0.00    -0.274 N 
HETATM    6  H   UNL     1      23.666  47.892  48.805  1.00  0.00     0.189 HD
BRANCH   5   7
HETATM    7  C   UNL     1      25.150  49.332  48.806  1.00  0.00     0.191 C 
HETATM    8  S   UNL     1      26.800  49.614  48.711  1.00  0.00    -0.039 SA
BRANCH   7   9
HETATM    9  N   UNL     1      24.297  50.312  48.367  1.00  0.00    -0.332 N 
HETATM   10  H   UNL     1      24.776  51.082  47.911  1.00  0.00     0.168 HD
BRANCH   9  11
HETATM   11  C   UNL     1      22.899  50.433  48.484  1.00  0.00     0.034 A 
HETATM   12  C   UNL     1      22.002  50.098  47.469  1.00  0.00     0.032 A 
HETATM   13  C   UNL     1      20.626  50.283  47.649  1.00  0.00     0.039 A 
HETATM   14  C   UNL     1      20.123  50.777  48.854  1.00  0.00     0.078 A 
HETATM   15  C   UNL     1      21.011  51.048  49.894  1.00  0.00     0.039 A 
HETATM   16  C   UNL     1      22.389  50.865  49.711  1.00  0.00     0.032 A 
BRANCH  14  17
HETATM   17  O   UNL     1      18.767  50.930  48.880  1.00  0.00    -0.255 OA
BRANCH  17  18
HETATM   18  C   UNL     1      18.252  52.247  48.966  1.00  0.00     0.530 C 
HETATM   19  F   UNL     1      18.187  52.660  50.249  1.00  0.00    -0.144 F 
HETATM   20  F   UNL     1      19.000  53.114  48.250  1.00  0.00    -0.144 F 
HETATM   21  F   UNL     1      16.999  52.258  48.457  1.00  0.00    -0.144 F 
ENDBRANCH  17  18
ENDBRANCH  14  17
ENDBRANCH   9  11
ENDBRANCH   7   9
ENDBRANCH   5   7
ENDBRANCH   2   5
BRANCH   1  22
HETATM   22  C   UNL     1      25.405  45.430  51.583  1.00  0.00     0.187 C 
BRANCH  22  23
HETATM   23  S   UNL     1      26.293  43.887  51.223  1.00  0.00    -0.079 SA
BRANCH  23  24
HETATM   24  C   UNL     1      27.574  43.960  52.461  1.00  0.00     0.211 A 
HETATM   25  N   UNL     1      28.554  43.009  52.431  1.00  0.00    -0.122 NA
HETATM   26  N   UNL     1      29.466  42.935  53.405  1.00  0.00    -0.143 NA
HETATM   27  C   UNL     1      29.358  43.856  54.396  1.00  0.00     0.137 A 
HETATM   28  C   UNL     1      30.085  44.056  55.600  1.00  0.00     0.025 A 
HETATM   29  C   UNL     1      28.375  44.826  54.330  1.00  0.00     0.162 A 
HETATM   30  C   UNL     1      31.159  43.393  56.228  1.00  0.00     0.016 A 
HETATM   31  C   UNL     1      29.525  45.175  56.230  1.00  0.00     0.046 A 
HETATM   32  C   UNL     1      31.631  43.868  57.457  1.00  0.00     0.001 A 
HETATM   33  C   UNL     1      31.057  44.988  58.057  1.00  0.00     0.002 A 
HETATM   34  C   UNL     1      29.993  45.664  57.454  1.00  0.00     0.030 A 
HETATM   35  N   UNL     1      28.498  45.624  55.429  1.00  0.00    -0.338 N 
HETATM   36  H   UNL     1      27.894  46.410  55.625  1.00  0.00     0.167 HD
HETATM   37  N   UNL     1      27.448  44.952  53.367  1.00  0.00    -0.201 NA
ENDBRANCH  23  24
ENDBRANCH  22  23
ENDBRANCH   1  22
TORSDOF 9
ENDMDL
MODEL 4
REMARK VINA RESULT:      -9.7      1.441      1.989
REMARK  9 active torsions:
REMARK  status: ('A' for Active; 'I' for Inactive)
REMARK    1  A    between atoms: C_11  and  S_12 
REMARK    2  A    between atoms: S_12  and  C_13 
REMARK    3  A    between atoms: C_13  and  C_14 
REMARK       I    between atoms: C_14  and  N_15 
REMARK    4  A    between atoms: N_15  and  N_16 
REMARK    5  A    between atoms: N_16  and  C_17 
REMARK    6  A    between atoms: C_17  and  N_18 
REMARK    7  A    between atoms: N_18  and  C_19 
REMARK    8  A    between atoms: C_22  and  O_23 
REMARK    9  A    between atoms: O_23  and  C_24 
ROOT
HETATM    1  C   UNL     1      26.062  45.640  50.760  1.00  0.00     0.245 C 
HETATM    2  N   UNL     1      26.511  44.394  50.338  1.00  0.00    -0.267 N 
HETATM    3  O   UNL     1      26.369  46.121  51.847  1.00  0.00    -0.271 OA
HETATM    4  H   UNL     1      26.098  43.885  49.563  1.00  0.00     0.190 HD
ENDROOT
BRANCH   2   5
HETATM    5  N   UNL     1      27.448  43.717  51.126  1.00  0.00    -0.274 N 
HETATM    6  H   UNL     1      28.222  44.286  51.451  1.00  0.00     0.189 HD
BRANCH   5   7
HETATM    7  C   UNL     1      27.134  42.563  51.799  1.00  0.00     0.191 C 
HETATM    8  S   UNL     1      26.837  41.088  51.060  1.00  0.00    -0.039 SA
BRANCH   7   9
HETATM    9  N   UNL     1      27.218  42.598  53.167  1.00  0.00    -0.332 N 
HETATM   10  H   UNL     1      26.606  41.928  53.622  1.00  0.00     0.168 HD
BRANCH   9  11
HETATM   11  C   UNL     1      27.971  43.430  54.020  1.00  0.00     0.034 A 
HETATM   12  C   UNL     1      27.492  44.621  54.565  1.00  0.00     0.032 A 
HETATM   13  C   UNL     1      28.316  45.412  55.375  1.00  0.00     0.039 A 
HETATM   14  C   UNL     1      29.619  45.012  55.676  1.00  0.00     0.078 A 
HETATM   15  C   UNL     1      30.077  43.789  55.188  1.00  0.00     0.039 A 
HETATM   16  C   UNL     1      29.252  42.999  54.376  1.00  0.00     0.032 A 
BRANCH  14  17
HETATM   17  O   UNL     1      30.316  45.891  56.453  1.00  0.00    -0.255 OA
BRANCH  17  18
HETATM   18  C   UNL     1      30.271  45.711  57.858  1.00  0.00     0.530 C 
HETATM   19  F   UNL     1      30.692  44.475  58.201  1.00  0.00    -0.144 F 
HETATM   20  F   UNL     1      31.021  46.636  58.495  1.00  0.00    -0.144 F 
HETATM   21  F   UNL     1      28.992  45.850  58.273  1.00  0.00    -0.144 F 
ENDBRANCH  17  18
ENDBRANCH  14  17
ENDBRANCH   9  11
ENDBRANCH   7   9
ENDBRANCH   5   7
ENDBRANCH   2   5
BRANCH   1  22
HETATM   22  C   UNL     1      25.226  46.336  49.695  1.00  0.00     0.187 C 
BRANCH  22  23
HETATM   23  S   UNL     1      25.460  48.135  49.607  1.00  0.00    -0.079 SA
BRANCH  23  24
HETATM   24  C   UNL     1      23.836  48.642  49.071  1.00  0.00     0.211 A 
HETATM   25  N   UNL     1      23.250  47.953  48.049  1.00  0.00    -0.122 NA
HETATM   26  N   UNL     1      22.094  48.365  47.520  1.00  0.00    -0.143 NA
HETATM   27  C   UNL     1      21.551  49.484  48.065  1.00  0.00     0.137 A 
HETATM   28  C   UNL     1      20.394  50.241  47.744  1.00  0.00     0.025 A 
HETATM   29  C   UNL     1      22.173  50.096  49.139  1.00  0.00     0.162 A 
HETATM   30  C   UNL     1      19.392  50.144  46.757  1.00  0.00     0.016 A 
HETATM   31  C   UNL     1      20.333  51.298  48.661  1.00  0.00     0.046 A 
HETATM   32  C   UNL     1      18.372  51.102  46.720  1.00  0.00     0.001 A 
HETATM   33  C   UNL     1      18.336  52.140  47.650  1.00  0.00     0.002 A 
HETATM   34  C   UNL     1      19.315  52.257  48.640  1.00  0.00     0.030 A 
HETATM   35  N   UNL     1      21.421  51.175  49.499  1.00  0.00    -0.338 N 
HETATM   36  H   UNL     1      21.658  51.800  50.256  1.00  0.00     0.167 HD
HETATM   37  N   UNL     1      23.323  49.713  49.714  1.00  0.00    -0.201 NA
ENDBRANCH  23  24
ENDBRANCH  22  23
ENDBRANCH   1  22
TORSDOF 9
ENDMDL
MODEL 5
REMARK VINA RESULT:      -9.6      6.501     12.358
REMARK  9 active torsions:
REMARK  status: ('A' for Active; 'I' for Inactive)
REMARK    1  A    between atoms: C_11  and  S_12 
REMARK    2  A    between atoms: S_12  and  C_13 
REMARK    3  A    between atoms: C_13  and  C_14 
REMARK       I    between atoms: C_14  and  N_15 
REMARK    4  A    between atoms: N_15  and  N_16 
REMARK    5  A    between atoms: N_16  and  C_17 
REMARK    6  A    between atoms: C_17  and  N_18 
REMARK    7  A    between atoms: N_18  and  C_19 
REMARK    8  A    between atoms: C_22  and  O_23 
REMARK    9  A    between atoms: O_23  and  C_24 
ROOT
HETATM    1  C   UNL     1      23.723  45.785  49.211  1.00  0.00     0.245 C 
HETATM    2  N   UNL     1      23.594  47.014  49.847  1.00  0.00    -0.267 N 
HETATM    3  O   UNL     1      22.914  45.380  48.381  1.00  0.00    -0.271 OA
HETATM    4  H   UNL     1      24.110  47.267  50.684  1.00  0.00     0.190 HD
ENDROOT
BRANCH   2   5
HETATM    5  N   UNL     1      22.575  47.879  49.433  1.00  0.00    -0.274 N 
HETATM    6  H   UNL     1      21.634  47.542  49.605  1.00  0.00     0.189 HD
BRANCH   5   7
HETATM    7  C   UNL     1      22.786  49.225  49.266  1.00  0.00     0.191 C 
HETATM    8  S   UNL     1      23.817  49.887  48.122  1.00  0.00    -0.039 SA
BRANCH   7   9
HETATM    9  N   UNL     1      21.986  50.074  49.987  1.00  0.00    -0.332 N 
HETATM   10  H   UNL     1      22.342  50.263  50.918  1.00  0.00     0.168 HD
BRANCH   9  11
HETATM   11  C   UNL     1      20.755  50.675  49.659  1.00  0.00     0.034 A 
HETATM   12  C   UNL     1      20.602  51.639  48.661  1.00  0.00     0.032 A 
HETATM   13  C   UNL     1      19.351  52.218  48.421  1.00  0.00     0.039 A 
HETATM   14  C   UNL     1      18.228  51.824  49.153  1.00  0.00     0.078 A 
HETATM   15  C   UNL     1      18.365  50.814  50.103  1.00  0.00     0.039 A 
HETATM   16  C   UNL     1      19.619  50.236  50.344  1.00  0.00     0.032 A 
BRANCH  14  17
HETATM   17  O   UNL     1      17.081  52.490  48.830  1.00  0.00    -0.255 OA
BRANCH  17  18
HETATM   18  C   UNL     1      16.049  51.759  48.191  1.00  0.00     0.530 C 
HETATM   19  F   UNL     1      16.557  50.892  47.289  1.00  0.00    -0.144 F 
HETATM   20  F   UNL     1      15.297  51.086  49.088  1.00  0.00    -0.144 F 
HETATM   21  F   UNL     1      15.245  52.625  47.536  1.00  0.00    -0.144 F 
ENDBRANCH  17  18
ENDBRANCH  14  17
ENDBRANCH   9  11
ENDBRANCH   7   9
ENDBRANCH   5   7
ENDBRANCH   2   5
BRANCH   1  22
HETATM   22  C   UNL     1      25.000  45.063  49.618  1.00  0.00     0.187 C 
BRANCH  22  23
HETATM   23  S   UNL     1      24.741  43.597  50.658  1.00  0.00    -0.079 SA
BRANCH  23  24
HETATM   24  C   UNL     1      25.838  43.968  52.014  1.00  0.00     0.211 A 
HETATM   25  N   UNL     1      25.712  45.179  52.632  1.00  0.00    -0.122 NA
HETATM   26  N   UNL     1      26.586  45.565  53.566  1.00  0.00    -0.143 NA
HETATM   27  C   UNL     1      27.577  44.684  53.859  1.00  0.00     0.137 A 
HETATM   28  C   UNL     1      28.697  44.758  54.729  1.00  0.00     0.025 A 
HETATM   29  C   UNL     1      27.607  43.451  53.234  1.00  0.00     0.162 A 
HETATM   30  C   UNL     1      29.214  45.744  55.593  1.00  0.00     0.016 A 
HETATM   31  C   UNL     1      29.375  43.537  54.621  1.00  0.00     0.046 A 
HETATM   32  C   UNL     1      30.383  45.477  56.314  1.00  0.00     0.001 A 
HETATM   33  C   UNL     1      31.033  44.250  56.190  1.00  0.00     0.002 A 
HETATM   34  C   UNL     1      30.540  43.254  55.342  1.00  0.00     0.030 A 
HETATM   35  N   UNL     1      28.682  42.763  53.715  1.00  0.00    -0.338 N 
HETATM   36  H   UNL     1      28.935  41.832  53.416  1.00  0.00     0.167 HD
HETATM   37  N   UNL     1      26.746  43.012  52.303  1.00  0.00    -0.201 NA
ENDBRANCH  23  24
ENDBRANCH  22  23
ENDBRANCH   1  22
TORSDOF 9
ENDMDL
MODEL 6
REMARK VINA RESULT:      -9.4      6.038     11.850
REMARK  9 active torsions:
REMARK  status: ('A' for Active; 'I' for Inactive)
REMARK    1  A    between atoms: C_11  and  S_12 
REMARK    2  A    between atoms: S_12  and  C_13 
REMARK    3  A    between atoms: C_13  and  C_14 
REMARK       I    between atoms: C_14  and  N_15 
REMARK    4  A    between atoms: N_15  and  N_16 
REMARK    5  A    between atoms: N_16  and  C_17 
REMARK    6  A    between atoms: C_17  and  N_18 
REMARK    7  A    between atoms: N_18  and  C_19 
REMARK    8  A    between atoms: C_22  and  O_23 
REMARK    9  A    between atoms: O_23  and  C_24 
ROOT
HETATM    1  C   UNL     1      23.986  43.452  50.528  1.00  0.00     0.245 C 
HETATM    2  N   UNL     1      23.135  44.551  50.542  1.00  0.00    -0.267 N 
HETATM    3  O   UNL     1      23.851  42.519  49.741  1.00  0.00    -0.271 OA
HETATM    4  H   UNL     1      23.086  45.209  51.314  1.00  0.00     0.190 HD
ENDROOT
BRANCH   2   5
HETATM    5  N   UNL     1      22.166  44.660  49.540  1.00  0.00    -0.274 N 
HETATM    6  H   UNL     1      21.258  44.277  49.781  1.00  0.00     0.189 HD
BRANCH   5   7
HETATM    7  C   UNL     1      22.254  45.597  48.540  1.00  0.00     0.191 C 
HETATM    8  S   UNL     1      22.151  45.248  46.904  1.00  0.00    -0.039 SA
BRANCH   7   9
HETATM    9  N   UNL     1      22.282  46.913  48.923  1.00  0.00    -0.332 N 
HETATM   10  H   UNL     1      23.121  47.162  49.436  1.00  0.00     0.168 HD
BRANCH   9  11
HETATM   11  C   UNL     1      21.330  47.938  48.754  1.00  0.00     0.034 A 
HETATM   12  C   UNL     1      19.990  47.824  49.129  1.00  0.00     0.032 A 
HETATM   13  C   UNL     1      19.097  48.875  48.893  1.00  0.00     0.039 A 
HETATM   14  C   UNL     1      19.531  50.066  48.308  1.00  0.00     0.078 A 
HETATM   15  C   UNL     1      20.882  50.208  47.995  1.00  0.00     0.039 A 
HETATM   16  C   UNL     1      21.776  49.154  48.229  1.00  0.00     0.032 A 
BRANCH  14  17
HETATM   17  O   UNL     1      18.549  50.994  48.115  1.00  0.00    -0.255 OA
BRANCH  17  18
HETATM   18  C   UNL     1      18.612  52.191  48.870  1.00  0.00     0.530 C 
HETATM   19  F   UNL     1      17.378  52.698  49.079  1.00  0.00    -0.144 F 
HETATM   20  F   UNL     1      19.224  51.990  50.057  1.00  0.00    -0.144 F 
HETATM   21  F   UNL     1      19.330  53.103  48.178  1.00  0.00    -0.144 F 
ENDBRANCH  17  18
ENDBRANCH  14  17
ENDBRANCH   9  11
ENDBRANCH   7   9
ENDBRANCH   5   7
ENDBRANCH   2   5
BRANCH   1  22
HETATM   22  C   UNL     1      25.115  43.591  51.541  1.00  0.00     0.187 C 
BRANCH  22  23
HETATM   23  S   UNL     1      25.712  45.290  51.778  1.00  0.00    -0.079 SA
BRANCH  23  24
HETATM   24  C   UNL     1      27.125  44.989  52.822  1.00  0.00     0.211 A 
HETATM   25  N   UNL     1      27.947  43.944  52.510  1.00  0.00    -0.122 NA
HETATM   26  N   UNL     1      28.946  43.591  53.326  1.00  0.00    -0.143 NA
HETATM   27  C   UNL     1      29.089  44.334  54.453  1.00  0.00     0.137 A 
HETATM   28  C   UNL     1      29.971  44.233  55.560  1.00  0.00     0.025 A 
HETATM   29  C   UNL     1      28.255  45.415  54.674  1.00  0.00     0.162 A 
HETATM   30  C   UNL     1      31.003  43.344  55.923  1.00  0.00     0.016 A 
HETATM   31  C   UNL     1      29.657  45.287  56.427  1.00  0.00     0.046 A 
HETATM   32  C   UNL     1      31.680  43.537  57.133  1.00  0.00     0.001 A 
HETATM   33  C   UNL     1      31.348  44.600  57.973  1.00  0.00     0.002 A 
HETATM   34  C   UNL     1      30.331  45.497  57.635  1.00  0.00     0.030 A 
HETATM   35  N   UNL     1      28.619  45.991  55.855  1.00  0.00    -0.338 N 
HETATM   36  H   UNL     1      28.163  46.800  56.252  1.00  0.00     0.167 HD
HETATM   37  N   UNL     1      27.251  45.818  53.880  1.00  0.00    -0.201 NA
ENDBRANCH  23  24
ENDBRANCH  22  23
ENDBRANCH   1  22
TORSDOF 9
ENDMDL
MODEL 7
REMARK VINA RESULT:      -9.3      5.963     11.539
REMARK  9 active torsions:
REMARK  status: ('A' for Active; 'I' for Inactive)
REMARK    1  A    between atoms: C_11  and  S_12 
REMARK    2  A    between atoms: S_12  and  C_13 
REMARK    3  A    between atoms: C_13  and  C_14 
REMARK       I    between atoms: C_14  and  N_15 
REMARK    4  A    between atoms: N_15  and  N_16 
REMARK    5  A    between atoms: N_16  and  C_17 
REMARK    6  A    between atoms: C_17  and  N_18 
REMARK    7  A    between atoms: N_18  and  C_19 
REMARK    8  A    between atoms: C_22  and  O_23 
REMARK    9  A    between atoms: O_23  and  C_24 
ROOT
HETATM    1  C   UNL     1      23.978  43.276  50.145  1.00  0.00     0.245 C 
HETATM    2  N   UNL     1      24.401  44.283  49.285  1.00  0.00    -0.267 N 
HETATM    3  O   UNL     1      22.853  43.254  50.636  1.00  0.00    -0.271 OA
HETATM    4  H   UNL     1      25.377  44.445  49.053  1.00  0.00     0.190 HD
ENDROOT
BRANCH   2   5
HETATM    5  N   UNL     1      23.471  45.237  48.860  1.00  0.00    -0.274 N 
HETATM    6  H   UNL     1      22.562  44.863  48.609  1.00  0.00     0.189 HD
BRANCH   5   7
HETATM    7  C   UNL     1      23.582  46.563  49.199  1.00  0.00     0.191 C 
HETATM    8  S   UNL     1      24.662  47.162  50.333  1.00  0.00    -0.039 SA
BRANCH   7   9
HETATM    9  N   UNL     1      22.863  47.458  48.450  1.00  0.00    -0.332 N 
HETATM   10  H   UNL     1      23.011  47.352  47.451  1.00  0.00     0.168 HD
BRANCH   9  11
HETATM   11  C   UNL     1      22.006  48.504  48.843  1.00  0.00     0.034 A 
HETATM   12  C   UNL     1      22.409  49.835  48.966  1.00  0.00     0.032 A 
HETATM   13  C   UNL     1      21.505  50.811  49.400  1.00  0.00     0.039 A 
HETATM   14  C   UNL     1      20.179  50.482  49.688  1.00  0.00     0.078 A 
HETATM   15  C   UNL     1      19.756  49.167  49.500  1.00  0.00     0.039 A 
HETATM   16  C   UNL     1      20.663  48.189  49.069  1.00  0.00     0.032 A 
BRANCH  14  17
HETATM   17  O   UNL     1      19.418  51.528  50.124  1.00  0.00    -0.255 OA
BRANCH  17  18
HETATM   18  C   UNL     1      18.601  52.191  49.175  1.00  0.00     0.530 C 
HETATM   19  F   UNL     1      17.714  53.006  49.785  1.00  0.00    -0.144 F 
HETATM   20  F   UNL     1      19.344  52.905  48.302  1.00  0.00    -0.144 F 
HETATM   21  F   UNL     1      17.909  51.265  48.475  1.00  0.00    -0.144 F 
ENDBRANCH  17  18
ENDBRANCH  14  17
ENDBRANCH   9  11
ENDBRANCH   7   9
ENDBRANCH   5   7
ENDBRANCH   2   5
BRANCH   1  22
HETATM   22  C   UNL     1      25.040  42.203  50.335  1.00  0.00     0.187 C 
BRANCH  22  23
HETATM   23  S   UNL     1      26.724  42.718  49.888  1.00  0.00    -0.079 SA
BRANCH  23  24
HETATM   24  C   UNL     1      27.331  43.242  51.481  1.00  0.00     0.211 A 
HETATM   25  N   UNL     1      26.821  44.388  52.019  1.00  0.00    -0.122 NA
HETATM   26  N   UNL     1      27.327  44.900  53.146  1.00  0.00    -0.143 NA
HETATM   27  C   UNL     1      28.351  44.208  53.709  1.00  0.00     0.137 A 
HETATM   28  C   UNL     1      29.164  44.459  54.846  1.00  0.00     0.025 A 
HETATM   29  C   UNL     1      28.775  43.022  53.139  1.00  0.00     0.162 A 
HETATM   30  C   UNL     1      29.239  45.496  55.798  1.00  0.00     0.016 A 
HETATM   31  C   UNL     1      30.061  43.388  54.947  1.00  0.00     0.046 A 
HETATM   32  C   UNL     1      30.203  45.427  56.811  1.00  0.00     0.001 A 
HETATM   33  C   UNL     1      31.078  44.345  56.888  1.00  0.00     0.002 A 
HETATM   34  C   UNL     1      31.024  43.303  55.959  1.00  0.00     0.030 A 
HETATM   35  N   UNL     1      29.792  42.529  53.903  1.00  0.00    -0.338 N 
HETATM   36  H   UNL     1      30.284  41.672  53.701  1.00  0.00     0.167 HD
HETATM   37  N   UNL     1      28.291  42.461  52.020  1.00  0.00    -0.201 NA
ENDBRANCH  23  24
ENDBRANCH  22  23
ENDBRANCH   1  22
TORSDOF 9
ENDMDL
MODEL 8
REMARK VINA RESULT:      -9.2      1.646      2.363
REMARK  9 active torsions:
REMARK  status: ('A' for Active; 'I' for Inactive)
REMARK    1  A    between atoms: C_11  and  S_12 
REMARK    2  A    between atoms: S_12  and  C_13 
REMARK    3  A    between atoms: C_13  and  C_14 
REMARK       I    between atoms: C_14  and  N_15 
REMARK    4  A    between atoms: N_15  and  N_16 
REMARK    5  A    between atoms: N_16  and  C_17 
REMARK    6  A    between atoms: C_17  and  N_18 
REMARK    7  A    between atoms: N_18  and  C_19 
REMARK    8  A    between atoms: C_22  and  O_23 
REMARK    9  A    between atoms: O_23  and  C_24 
ROOT
HETATM    1  C   UNL     1      24.576  46.846  50.417  1.00  0.00     0.245 C 
HETATM    2  N   UNL     1      24.143  45.597  50.849  1.00  0.00    -0.267 N 
HETATM    3  O   UNL     1      25.554  47.411  50.898  1.00  0.00    -0.271 OA
HETATM    4  H   UNL     1      23.226  45.219  50.633  1.00  0.00     0.190 HD
ENDROOT
BRANCH   2   5
HETATM    5  N   UNL     1      24.924  44.902  51.778  1.00  0.00    -0.274 N 
HETATM    6  H   UNL     1      24.495  44.781  52.689  1.00  0.00     0.189 HD
BRANCH   5   7
HETATM    7  C   UNL     1      25.931  44.053  51.391  1.00  0.00     0.191 C 
HETATM    8  S   UNL     1      25.704  42.677  50.460  1.00  0.00    -0.039 SA
BRANCH   7   9
HETATM    9  N   UNL     1      27.215  44.445  51.666  1.00  0.00    -0.332 N 
HETATM   10  H   UNL     1      27.590  45.094  50.981  1.00  0.00     0.168 HD
BRANCH   9  11
HETATM   11  C   UNL     1      28.090  44.065  52.703  1.00  0.00     0.034 A 
HETATM   12  C   UNL     1      29.272  43.352  52.501  1.00  0.00     0.032 A 
HETATM   13  C   UNL     1      30.070  42.979  53.588  1.00  0.00     0.039 A 
HETATM   14  C   UNL     1      29.715  43.335  54.891  1.00  0.00     0.078 A 
HETATM   15  C   UNL     1      28.571  44.105  55.090  1.00  0.00     0.039 A 
HETATM   16  C   UNL     1      27.771  44.477  54.000  1.00  0.00     0.032 A 
BRANCH  14  17
HETATM   17  O   UNL     1      30.570  42.882  55.854  1.00  0.00    -0.255 OA
BRANCH  17  18
HETATM   18  C   UNL     1      31.316  43.843  56.581  1.00  0.00     0.530 C 
HETATM   19  F   UNL     1      31.578  44.928  55.822  1.00  0.00    -0.144 F 
HETATM   20  F   UNL     1      30.665  44.223  57.701  1.00  0.00    -0.144 F 
HETATM   21  F   UNL     1      32.494  43.292  56.948  1.00  0.00    -0.144 F 
ENDBRANCH  17  18
ENDBRANCH  14  17
ENDBRANCH   9  11
ENDBRANCH   7   9
ENDBRANCH   5   7
ENDBRANCH   2   5
BRANCH   1  22
HETATM   22  C   UNL     1      23.743  47.368  49.254  1.00  0.00     0.187 C 
BRANCH  22  23
HETATM   23  S   UNL     1      23.694  49.178  49.114  1.00  0.00    -0.079 SA
BRANCH  23  24
HETATM   24  C   UNL     1      21.933  49.454  49.152  1.00  0.00     0.211 A 
HETATM   25  N   UNL     1      21.123  48.534  48.550  1.00  0.00    -0.122 NA
HETATM   26  N   UNL     1      19.809  48.751  48.434  1.00  0.00    -0.143 NA
HETATM   27  C   UNL     1      19.346  49.915  48.956  1.00  0.00     0.137 A 
HETATM   28  C   UNL     1      18.057  50.510  48.974  1.00  0.00     0.025 A 
HETATM   29  C   UNL     1      20.217  50.772  49.604  1.00  0.00     0.162 A 
HETATM   30  C   UNL     1      16.794  50.148  48.464  1.00  0.00     0.016 A 
HETATM   31  C   UNL     1      18.180  51.723  49.664  1.00  0.00     0.046 A 
HETATM   32  C   UNL     1      15.705  51.005  48.660  1.00  0.00     0.001 A 
HETATM   33  C   UNL     1      15.858  52.204  49.356  1.00  0.00     0.002 A 
HETATM   34  C   UNL     1      17.098  52.585  49.874  1.00  0.00     0.030 A 
HETATM   35  N   UNL     1      19.500  51.846  50.042  1.00  0.00    -0.338 N 
HETATM   36  H   UNL     1      19.901  52.625  50.544  1.00  0.00     0.167 HD
HETATM   37  N   UNL     1      21.538  50.593  49.759  1.00  0.00    -0.201 NA
ENDBRANCH  23  24
ENDBRANCH  22  23
ENDBRANCH   1  22
TORSDOF 9
ENDMDL
MODEL 9
REMARK VINA RESULT:      -9.2      5.485     11.108
REMARK  9 active torsions:
REMARK  status: ('A' for Active; 'I' for Inactive)
REMARK    1  A    between atoms: C_11  and  S_12 
REMARK    2  A    between atoms: S_12  and  C_13 
REMARK    3  A    between atoms: C_13  and  C_14 
REMARK       I    between atoms: C_14  and  N_15 
REMARK    4  A    between atoms: N_15  and  N_16 
REMARK    5  A    between atoms: N_16  and  C_17 
REMARK    6  A    between atoms: C_17  and  N_18 
REMARK    7  A    between atoms: N_18  and  C_19 
REMARK    8  A    between atoms: C_22  and  O_23 
REMARK    9  A    between atoms: O_23  and  C_24 
ROOT
HETATM    1  C   UNL     1      25.584  42.903  49.007  1.00  0.00     0.245 C 
HETATM    2  N   UNL     1      26.327  44.014  49.388  1.00  0.00    -0.267 N 
HETATM    3  O   UNL     1      24.423  42.984  48.618  1.00  0.00    -0.271 OA
HETATM    4  H   UNL     1      27.190  43.954  49.919  1.00  0.00     0.190 HD
ENDROOT
BRANCH   2   5
HETATM    5  N   UNL     1      25.775  45.286  49.200  1.00  0.00    -0.274 N 
HETATM    6  H   UNL     1      25.794  45.622  48.243  1.00  0.00     0.189 HD
BRANCH   5   7
HETATM    7  C   UNL     1      24.871  45.824  50.082  1.00  0.00     0.191 C 
HETATM    8  S   UNL     1      25.264  46.394  51.609  1.00  0.00    -0.039 SA
BRANCH   7   9
HETATM    9  N   UNL     1      23.600  46.039  49.616  1.00  0.00    -0.332 N 
HETATM   10  H   UNL     1      23.013  45.212  49.663  1.00  0.00     0.168 HD
BRANCH   9  11
HETATM   11  C   UNL     1      23.008  47.189  49.057  1.00  0.00     0.034 A 
HETATM   12  C   UNL     1      23.567  48.466  49.134  1.00  0.00     0.032 A 
HETATM   13  C   UNL     1      22.898  49.566  48.586  1.00  0.00     0.039 A 
HETATM   14  C   UNL     1      21.677  49.406  47.927  1.00  0.00     0.078 A 
HETATM   15  C   UNL     1      21.151  48.122  47.789  1.00  0.00     0.039 A 
HETATM   16  C   UNL     1      21.820  47.021  48.341  1.00  0.00     0.032 A 
BRANCH  14  17
HETATM   17  O   UNL     1      21.127  50.566  47.464  1.00  0.00    -0.255 OA
BRANCH  17  18
HETATM   18  C   UNL     1      20.026  51.104  48.175  1.00  0.00     0.530 C 
HETATM   19  F   UNL     1      19.849  50.466  49.352  1.00  0.00    -0.144 F 
HETATM   20  F   UNL     1      20.186  52.427  48.399  1.00  0.00    -0.144 F 
HETATM   21  F   UNL     1      18.907  50.938  47.435  1.00  0.00    -0.144 F 
ENDBRANCH  17  18
ENDBRANCH  14  17
ENDBRANCH   9  11
ENDBRANCH   7   9
ENDBRANCH   5   7
ENDBRANCH   2   5
BRANCH   1  22
HETATM   22  C   UNL     1      26.403  41.621  49.069  1.00  0.00     0.187 C 
BRANCH  22  23
HETATM   23  S   UNL     1      26.190  40.662  50.597  1.00  0.00    -0.079 SA
BRANCH  23  24
HETATM   24  C   UNL     1      27.342  41.505  51.666  1.00  0.00     0.211 A 
HETATM   25  N   UNL     1      28.506  40.869  51.989  1.00  0.00    -0.122 NA
HETATM   26  N   UNL     1      29.347  41.394  52.886  1.00  0.00    -0.143 NA
HETATM   27  C   UNL     1      28.976  42.581  53.430  1.00  0.00     0.137 A 
HETATM   28  C   UNL     1      29.562  43.398  54.432  1.00  0.00     0.025 A 
HETATM   29  C   UNL     1      27.810  43.196  53.011  1.00  0.00     0.162 A 
HETATM   30  C   UNL     1      30.712  43.299  55.242  1.00  0.00     0.016 A 
HETATM   31  C   UNL     1      28.731  44.517  54.580  1.00  0.00     0.046 A 
HETATM   32  C   UNL     1      30.988  44.314  56.165  1.00  0.00     0.001 A 
HETATM   33  C   UNL     1      30.145  45.418  56.285  1.00  0.00     0.002 A 
HETATM   34  C   UNL     1      29.001  45.542  55.494  1.00  0.00     0.030 A 
HETATM   35  N   UNL     1      27.684  44.368  53.696  1.00  0.00    -0.338 N 
HETATM   36  H   UNL     1      26.912  45.008  53.580  1.00  0.00     0.167 HD
HETATM   37  N   UNL     1      26.943  42.718  52.105  1.00  0.00    -0.201 NA
ENDBRANCH  23  24
ENDBRANCH  22  23
ENDBRANCH   1  22
TORSDOF 9
ENDMDL
MODEL 10
REMARK VINA RESULT:      -9.1      5.840     11.739
REMARK  9 active torsions:
REMARK  status: ('A' for Active; 'I' for Inactive)
REMARK    1  A    between atoms: C_11  and  S_12 
REMARK    2  A    between atoms: S_12  and  C_13 
REMARK    3  A    between atoms: C_13  and  C_14 
REMARK       I    between atoms: C_14  and  N_15 
REMARK    4  A    between atoms: N_15  and  N_16 
REMARK    5  A    between atoms: N_16  and  C_17 
REMARK    6  A    between atoms: C_17  and  N_18 
REMARK    7  A    between atoms: N_18  and  C_19 
REMARK    8  A    between atoms: C_22  and  O_23 
REMARK    9  A    between atoms: O_23  and  C_24 
ROOT
HETATM    1  C   UNL     1      24.270  43.654  49.993  1.00  0.00     0.245 C 
HETATM    2  N   UNL     1      24.091  44.847  49.303  1.00  0.00    -0.267 N 
HETATM    3  O   UNL     1      23.474  43.249  50.835  1.00  0.00    -0.271 OA
HETATM    4  H   UNL     1      24.831  45.307  48.781  1.00  0.00     0.190 HD
ENDROOT
BRANCH   2   5
HETATM    5  N   UNL     1      22.895  45.550  49.481  1.00  0.00    -0.274 N 
HETATM    6  H   UNL     1      22.967  46.369  50.074  1.00  0.00     0.189 HD
BRANCH   5   7
HETATM    7  C   UNL     1      21.856  45.457  48.588  1.00  0.00     0.191 C 
HETATM    8  S   UNL     1      21.910  44.576  47.162  1.00  0.00    -0.039 SA
BRANCH   7   9
HETATM    9  N   UNL     1      20.658  46.001  48.970  1.00  0.00    -0.332 N 
HETATM   10  H   UNL     1      20.077  45.357  49.497  1.00  0.00     0.168 HD
BRANCH   9  11
HETATM   11  C   UNL     1      20.102  47.271  48.714  1.00  0.00     0.034 A 
HETATM   12  C   UNL     1      20.650  48.193  47.822  1.00  0.00     0.032 A 
HETATM   13  C   UNL     1      20.060  49.450  47.650  1.00  0.00     0.039 A 
HETATM   14  C   UNL     1      18.898  49.795  48.344  1.00  0.00     0.078 A 
HETATM   15  C   UNL     1      18.310  48.851  49.184  1.00  0.00     0.039 A 
HETATM   16  C   UNL     1      18.904  47.593  49.356  1.00  0.00     0.032 A 
BRANCH  14  17
HETATM   17  O   UNL     1      18.447  51.060  48.099  1.00  0.00    -0.255 OA
BRANCH  17  18
HETATM   18  C   UNL     1      18.966  52.112  48.894  1.00  0.00     0.530 C 
HETATM   19  F   UNL     1      19.942  52.778  48.240  1.00  0.00    -0.144 F 
HETATM   20  F   UNL     1      17.995  52.977  49.257  1.00  0.00    -0.144 F 
HETATM   21  F   UNL     1      19.498  51.584  50.019  1.00  0.00    -0.144 F 
ENDBRANCH  17  18
ENDBRANCH  14  17
ENDBRANCH   9  11
ENDBRANCH   7   9
ENDBRANCH   5   7
ENDBRANCH   2   5
BRANCH   1  22
HETATM   22  C   UNL     1      25.512  42.905  49.527  1.00  0.00     0.187 C 
BRANCH  22  23
HETATM   23  S   UNL     1      25.892  41.406  50.479  1.00  0.00    -0.079 SA
BRANCH  23  24
HETATM   24  C   UNL     1      27.138  42.039  51.587  1.00  0.00     0.211 A 
HETATM   25  N   UNL     1      28.213  41.246  51.868  1.00  0.00    -0.122 NA
HETATM   26  N   UNL     1      29.112  41.612  52.788  1.00  0.00    -0.143 NA
HETATM   27  C   UNL     1      28.890  42.804  53.400  1.00  0.00     0.137 A 
HETATM   28  C   UNL     1      29.571  43.485  54.442  1.00  0.00     0.025 A 
HETATM   29  C   UNL     1      27.811  43.581  53.021  1.00  0.00     0.162 A 
HETATM   30  C   UNL     1      30.699  43.199  55.239  1.00  0.00     0.016 A 
HETATM   31  C   UNL     1      28.886  44.688  54.657  1.00  0.00     0.046 A 
HETATM   32  C   UNL     1      31.098  44.118  56.216  1.00  0.00     0.001 A 
HETATM   33  C   UNL     1      30.399  45.310  56.402  1.00  0.00     0.002 A 
HETATM   34  C   UNL     1      29.279  45.619  55.624  1.00  0.00     0.030 A 
HETATM   35  N   UNL     1      27.830  44.719  53.771  1.00  0.00    -0.338 N 
HETATM   36  H   UNL     1      27.144  45.456  53.695  1.00  0.00     0.167 HD
HETATM   37  N   UNL     1      26.892  43.266  52.095  1.00  0.00    -0.201 NA
ENDBRANCH  23  24
ENDBRANCH  22  23
ENDBRANCH   1  22
TORSDOF 9
ENDMDL
