MODEL 1
REMARK VINA RESULT:      -9.0      0.000      0.000
REMARK  7 active torsions:
REMARK  status: ('A' for Active; 'I' for Inactive)
REMARK    1  A    between atoms: C_2  and  C_3 
REMARK    2  A    between atoms: C_3  and  N_4 
REMARK    3  A    between atoms: C_7  and  C_8 
REMARK    4  A    between atoms: C_8  and  N_9 
REMARK       I    between atoms: N_9  and  C_10 
REMARK       I    between atoms: C_10  and  N_11 
REMARK    5  A    between atoms: N_11  and  C_12 
REMARK    6  A    between atoms: C_16  and  N_17 
REMARK       I    between atoms: N_17  and  C_18 
REMARK    7  A    between atoms: C_18  and  C_19 
ROOT
HETATM    1  C   UNL     1      25.362  45.743  51.847  1.00  0.00     0.036 A 
HETATM    2  C   UNL     1      26.316  44.781  51.517  1.00  0.00     0.038 A 
HETATM    3  C   UNL     1      27.292  44.373  52.450  1.00  0.00    -0.033 A 
HETATM    4  C   UNL     1      28.277  43.312  52.037  1.00  0.00     0.050 C 
HETATM    5  C   UNL     1      27.332  44.980  53.722  1.00  0.00     0.041 A 
HETATM    6  C   UNL     1      26.346  45.916  54.053  1.00  0.00     0.032 A 
HETATM    7  C   UNL     1      25.360  46.279  53.132  1.00  0.00     0.032 A 
ENDROOT
BRANCH   1   8
HETATM    8  N   UNL     1      24.377  46.203  50.952  1.00  0.00    -0.309 N 
HETATM    9  C   UNL     1      24.451  47.331  50.173  1.00  0.00     0.320 C 
HETATM   10  N   UNL     1      23.297  47.489  49.430  1.00  0.00    -0.342 N 
HETATM   11  O   UNL     1      25.335  48.179  50.176  1.00  0.00    -0.247 OA
HETATM   12  H   UNL     1      22.930  46.611  49.078  1.00  0.00     0.164 HD
HETATM   13  H   UNL     1      23.453  45.816  51.073  1.00  0.00     0.170 HD
BRANCH  10  14
HETATM   14  C   UNL     1      23.127  48.641  48.568  1.00  0.00     0.130 C 
BRANCH  14  15
HETATM   15  C   UNL     1      21.814  49.397  48.778  1.00  0.00     0.031 C 
HETATM   16  C   UNL     1      20.718  49.122  47.760  1.00  0.00     0.241 C 
HETATM   17  N   UNL     1      19.719  50.259  47.992  1.00  0.00    -0.071 N 
HETATM   18  H   UNL     1      19.458  50.596  47.055  1.00  0.00     0.279 HD
HETATM   19  C   UNL     1      20.476  51.366  48.706  1.00  0.00     0.235 C 
HETATM   20  C   UNL     1      21.927  50.915  48.711  1.00  0.00     0.035 C 
BRANCH  17  21
HETATM   21  C   UNL     1      18.460  49.806  48.685  1.00  0.00     0.234 C 
BRANCH  21  22
HETATM   22  C   UNL     1      18.474  50.141  50.175  1.00  0.00     0.023 C 
HETATM   23  C   UNL     1      18.761  48.943  51.069  1.00  0.00     0.007 C 
ENDBRANCH  21  22
ENDBRANCH  17  21
ENDBRANCH  14  15
ENDBRANCH  10  14
ENDBRANCH   1   8
BRANCH   5  24
HETATM   24  N   UNL     1      28.360  44.626  54.621  1.00  0.00    -0.321 N 
HETATM   25  C   UNL     1      29.198  45.464  55.339  1.00  0.00     0.279 C 
HETATM   26  O   UNL     1      29.182  46.690  55.299  1.00  0.00    -0.265 OA
HETATM   27  H   UNL     1      28.587  43.643  54.714  1.00  0.00     0.169 HD
BRANCH  25  28
HETATM   28  C   UNL     1      30.162  44.734  56.142  1.00  0.00     0.142 A 
HETATM   29  O   UNL     1      30.491  45.198  57.391  1.00  0.00    -0.317 OA
HETATM   30  C   UNL     1      31.406  44.337  57.907  1.00  0.00     0.143 A 
HETATM   31  C   UNL     1      31.665  43.317  57.023  1.00  0.00     0.027 A 
HETATM   32  C   UNL     1      30.865  43.572  55.884  1.00  0.00     0.045 A 
ENDBRANCH  25  28
ENDBRANCH   5  24
TORSDOF 7
ENDMDL
MODEL 2
REMARK VINA RESULT:      -8.8      0.988      1.631
REMARK  7 active torsions:
REMARK  status: ('A' for Active; 'I' for Inactive)
REMARK    1  A    between atoms: C_2  and  C_3 
REMARK    2  A    between atoms: C_3  and  N_4 
REMARK    3  A    between atoms: C_7  and  C_8 
REMARK    4  A    between atoms: C_8  and  N_9 
REMARK       I    between atoms: N_9  and  C_10 
REMARK       I    between atoms: C_10  and  N_11 
REMARK    5  A    between atoms: N_11  and  C_12 
REMARK    6  A    between atoms: C_16  and  N_17 
REMARK       I    between atoms: N_17  and  C_18 
REMARK    7  A    between atoms: C_18  and  C_19 
ROOT
HETATM    1  C   UNL     1      25.391  46.383  52.126  1.00  0.00     0.036 A 
HETATM    2  C   UNL     1      25.774  47.227  53.168  1.00  0.00     0.038 A 
HETATM    3  C   UNL     1      26.827  46.876  54.039  1.00  0.00    -0.033 A 
HETATM    4  C   UNL     1      27.206  47.844  55.129  1.00  0.00     0.050 C 
HETATM    5  C   UNL     1      27.472  45.632  53.883  1.00  0.00     0.041 A 
HETATM    6  C   UNL     1      27.103  44.813  52.810  1.00  0.00     0.032 A 
HETATM    7  C   UNL     1      26.087  45.193  51.930  1.00  0.00     0.032 A 
ENDROOT
BRANCH   1   8
HETATM    8  N   UNL     1      24.337  46.671  51.239  1.00  0.00    -0.309 N 
HETATM    9  C   UNL     1      24.357  47.603  50.230  1.00  0.00     0.320 C 
HETATM   10  N   UNL     1      23.143  47.635  49.570  1.00  0.00    -0.342 N 
HETATM   11  O   UNL     1      25.248  48.404  49.976  1.00  0.00    -0.247 OA
HETATM   12  H   UNL     1      22.736  46.714  49.447  1.00  0.00     0.164 HD
HETATM   13  H   UNL     1      23.421  46.349  51.517  1.00  0.00     0.170 HD
BRANCH  10  14
HETATM   14  C   UNL     1      22.913  48.580  48.496  1.00  0.00     0.130 C 
BRANCH  14  15
HETATM   15  C   UNL     1      21.668  49.450  48.678  1.00  0.00     0.031 C 
HETATM   16  C   UNL     1      20.543  49.218  47.681  1.00  0.00     0.241 C 
HETATM   17  N   UNL     1      19.642  50.443  47.866  1.00  0.00    -0.071 N 
HETATM   18  H   UNL     1      19.400  50.755  46.916  1.00  0.00     0.279 HD
HETATM   19  C   UNL     1      20.495  51.516  48.522  1.00  0.00     0.235 C 
HETATM   20  C   UNL     1      21.903  50.948  48.539  1.00  0.00     0.035 C 
BRANCH  17  21
HETATM   21  C   UNL     1      18.358  50.126  48.587  1.00  0.00     0.234 C 
BRANCH  21  22
HETATM   22  C   UNL     1      18.471  50.369  50.091  1.00  0.00     0.023 C 
HETATM   23  C   UNL     1      18.715  49.101  50.897  1.00  0.00     0.007 C 
ENDBRANCH  21  22
ENDBRANCH  17  21
ENDBRANCH  14  15
ENDBRANCH  10  14
ENDBRANCH   1   8
BRANCH   5  24
HETATM   24  N   UNL     1      28.468  45.253  54.806  1.00  0.00    -0.321 N 
HETATM   25  C   UNL     1      29.438  44.273  54.668  1.00  0.00     0.279 C 
HETATM   26  O   UNL     1      29.582  43.549  53.688  1.00  0.00    -0.265 OA
HETATM   27  H   UNL     1      28.449  45.682  55.724  1.00  0.00     0.169 HD
BRANCH  25  28
HETATM   28  C   UNL     1      30.272  44.144  55.848  1.00  0.00     0.142 A 
HETATM   29  O   UNL     1      30.170  45.074  56.853  1.00  0.00    -0.317 OA
HETATM   30  C   UNL     1      31.058  44.718  57.818  1.00  0.00     0.143 A 
HETATM   31  C   UNL     1      31.722  43.567  57.464  1.00  0.00     0.027 A 
HETATM   32  C   UNL     1      31.218  43.197  56.194  1.00  0.00     0.045 A 
ENDBRANCH  25  28
ENDBRANCH   5  24
TORSDOF 7
ENDMDL
MODEL 3
REMARK VINA RESULT:      -7.9      5.363      8.983
REMARK  7 active torsions:
REMARK  status: ('A' for Active; 'I' for Inactive)
REMARK    1  A    between atoms: C_2  and  C_3 
REMARK    2  A    between atoms: C_3  and  N_4 
REMARK    3  A    between atoms: C_7  and  C_8 
REMARK    4  A    between atoms: C_8  and  N_9 
REMARK       I    between atoms: N_9  and  C_10 
REMARK       I    between atoms: C_10  and  N_11 
REMARK    5  A    between atoms: N_11  and  C_12 
REMARK    6  A    between atoms: C_16  and  N_17 
REMARK       I    between atoms: N_17  and  C_18 
REMARK    7  A    between atoms: C_18  and  C_19 
ROOT
HETATM    1  C   UNL     1      19.039  50.289  49.475  1.00  0.00     0.036 A 
HETATM    2  C   UNL     1      19.540  49.091  48.967  1.00  0.00     0.038 A 
HETATM    3  C   UNL     1      20.922  48.809  48.995  1.00  0.00    -0.033 A 
HETATM    4  C   UNL     1      21.394  47.486  48.452  1.00  0.00     0.050 C 
HETATM    5  C   UNL     1      21.817  49.774  49.503  1.00  0.00     0.041 A 
HETATM    6  C   UNL     1      21.297  50.954  50.044  1.00  0.00     0.032 A 
HETATM    7  C   UNL     1      19.923  51.201  50.047  1.00  0.00     0.032 A 
ENDROOT
BRANCH   1   8
HETATM    8  N   UNL     1      17.675  50.632  49.457  1.00  0.00    -0.309 N 
HETATM    9  C   UNL     1      17.121  51.729  48.845  1.00  0.00     0.320 C 
HETATM   10  N   UNL     1      15.755  51.765  49.048  1.00  0.00    -0.342 N 
HETATM   11  O   UNL     1      17.712  52.644  48.284  1.00  0.00    -0.247 OA
HETATM   12  H   UNL     1      15.325  50.847  49.004  1.00  0.00     0.164 HD
HETATM   13  H   UNL     1      17.094  50.179  50.148  1.00  0.00     0.170 HD
BRANCH  10  14
HETATM   14  C   UNL     1      14.962  52.864  48.533  1.00  0.00     0.130 C 
BRANCH  14  15
HETATM   15  C   UNL     1      14.604  53.924  49.575  1.00  0.00     0.031 C 
HETATM   16  C   UNL     1      14.854  53.542  51.026  1.00  0.00     0.241 C 
HETATM   17  N   UNL     1      14.073  54.596  51.815  1.00  0.00    -0.071 N 
HETATM   18  H   UNL     1      13.578  54.079  52.555  1.00  0.00     0.279 HD
HETATM   19  C   UNL     1      13.040  55.176  50.863  1.00  0.00     0.235 C 
HETATM   20  C   UNL     1      13.135  54.325  49.609  1.00  0.00     0.035 C 
BRANCH  17  21
HETATM   21  C   UNL     1      14.962  55.614  52.481  1.00  0.00     0.234 C 
BRANCH  21  22
HETATM   22  C   UNL     1      15.000  56.932  51.710  1.00  0.00     0.023 C 
HETATM   23  C   UNL     1      15.257  58.147  52.590  1.00  0.00     0.007 C 
ENDBRANCH  21  22
ENDBRANCH  17  21
ENDBRANCH  14  15
ENDBRANCH  10  14
ENDBRANCH   1   8
BRANCH   5  24
HETATM   24  N   UNL     1      23.203  49.520  49.453  1.00  0.00    -0.321 N 
HETATM   25  C   UNL     1      24.082  49.758  48.408  1.00  0.00     0.279 C 
HETATM   26  O   UNL     1      23.780  50.237  47.321  1.00  0.00    -0.265 OA
HETATM   27  H   UNL     1      23.623  49.032  50.236  1.00  0.00     0.169 HD
BRANCH  25  28
HETATM   28  C   UNL     1      25.437  49.333  48.711  1.00  0.00     0.142 A 
HETATM   29  O   UNL     1      25.638  48.188  49.441  1.00  0.00    -0.317 OA
HETATM   30  C   UNL     1      26.981  48.036  49.580  1.00  0.00     0.143 A 
HETATM   31  C   UNL     1      27.653  49.051  48.941  1.00  0.00     0.027 A 
HETATM   32  C   UNL     1      26.659  49.889  48.382  1.00  0.00     0.045 A 
ENDBRANCH  25  28
ENDBRANCH   5  24
TORSDOF 7
ENDMDL
MODEL 4
REMARK VINA RESULT:      -7.9      4.928      9.241
REMARK  7 active torsions:
REMARK  status: ('A' for Active; 'I' for Inactive)
REMARK    1  A    between atoms: C_2  and  C_3 
REMARK    2  A    between atoms: C_3  and  N_4 
REMARK    3  A    between atoms: C_7  and  C_8 
REMARK    4  A    between atoms: C_8  and  N_9 
REMARK       I    between atoms: N_9  and  C_10 
REMARK       I    between atoms: C_10  and  N_11 
REMARK    5  A    between atoms: N_11  and  C_12 
REMARK    6  A    between atoms: C_16  and  N_17 
REMARK       I    between atoms: N_17  and  C_18 
REMARK    7  A    between atoms: C_18  and  C_19 
ROOT
HETATM    1  C   UNL     1      18.932  51.183  48.529  1.00  0.00     0.036 A 
HETATM    2  C   UNL     1      20.248  51.639  48.455  1.00  0.00     0.038 A 
HETATM    3  C   UNL     1      21.330  50.798  48.788  1.00  0.00    -0.033 A 
HETATM    4  C   UNL     1      22.727  51.347  48.663  1.00  0.00     0.050 C 
HETATM    5  C   UNL     1      21.077  49.489  49.248  1.00  0.00     0.041 A 
HETATM    6  C   UNL     1      19.755  49.032  49.280  1.00  0.00     0.032 A 
HETATM    7  C   UNL     1      18.696  49.863  48.907  1.00  0.00     0.032 A 
ENDROOT
BRANCH   1   8
HETATM    8  N   UNL     1      17.813  51.981  48.228  1.00  0.00    -0.309 N 
HETATM    9  C   UNL     1      16.817  52.345  49.101  1.00  0.00     0.320 C 
HETATM   10  N   UNL     1      15.864  53.114  48.461  1.00  0.00    -0.342 N 
HETATM   11  O   UNL     1      16.674  51.978  50.260  1.00  0.00    -0.247 OA
HETATM   12  H   UNL     1      16.264  53.766  47.794  1.00  0.00     0.164 HD
HETATM   13  H   UNL     1      17.594  52.087  47.248  1.00  0.00     0.170 HD
BRANCH  10  14
HETATM   14  C   UNL     1      14.689  53.575  49.174  1.00  0.00     0.130 C 
BRANCH  14  15
HETATM   15  C   UNL     1      14.810  54.992  49.736  1.00  0.00     0.031 C 
HETATM   16  C   UNL     1      14.242  55.205  51.131  1.00  0.00     0.241 C 
HETATM   17  N   UNL     1      14.159  56.729  51.256  1.00  0.00    -0.071 N 
HETATM   18  H   UNL     1      13.239  56.924  51.675  1.00  0.00     0.279 HD
HETATM   19  C   UNL     1      14.170  57.284  49.842  1.00  0.00     0.235 C 
HETATM   20  C   UNL     1      14.083  56.067  48.938  1.00  0.00     0.035 C 
BRANCH  17  21
HETATM   21  C   UNL     1      15.211  57.304  52.169  1.00  0.00     0.234 C 
BRANCH  21  22
HETATM   22  C   UNL     1      15.349  56.501  53.461  1.00  0.00     0.023 C 
HETATM   23  C   UNL     1      16.071  57.250  54.572  1.00  0.00     0.007 C 
ENDBRANCH  21  22
ENDBRANCH  17  21
ENDBRANCH  14  15
ENDBRANCH  10  14
ENDBRANCH   1   8
BRANCH   5  24
HETATM   24  N   UNL     1      22.159  48.682  49.656  1.00  0.00    -0.321 N 
HETATM   25  C   UNL     1      22.888  47.779  48.899  1.00  0.00     0.279 C 
HETATM   26  O   UNL     1      22.695  47.525  47.715  1.00  0.00    -0.265 OA
HETATM   27  H   UNL     1      22.406  48.686  50.639  1.00  0.00     0.169 HD
BRANCH  25  28
HETATM   28  C   UNL     1      23.913  47.103  49.674  1.00  0.00     0.142 A 
HETATM   29  O   UNL     1      24.619  47.805  50.619  1.00  0.00    -0.317 OA
HETATM   30  C   UNL     1      25.504  46.940  51.179  1.00  0.00     0.143 A 
HETATM   31  C   UNL     1      25.374  45.688  50.627  1.00  0.00     0.027 A 
HETATM   32  C   UNL     1      24.350  45.792  49.655  1.00  0.00     0.045 A 
ENDBRANCH  25  28
ENDBRANCH   5  24
TORSDOF 7
ENDMDL
MODEL 5
REMARK VINA RESULT:      -7.8      4.458      5.432
REMARK  7 active torsions:
REMARK  status: ('A' for Active; 'I' for Inactive)
REMARK    1  A    between atoms: C_2  and  C_3 
REMARK    2  A    between atoms: C_3  and  N_4 
REMARK    3  A    between atoms: C_7  and  C_8 
REMARK    4  A    between atoms: C_8  and  N_9 
REMARK       I    between atoms: N_9  and  C_10 
REMARK       I    between atoms: C_10  and  N_11 
REMARK    5  A    between atoms: N_11  and  C_12 
REMARK    6  A    between atoms: C_16  and  N_17 
REMARK       I    between atoms: N_17  and  C_18 
REMARK    7  A    between atoms: C_18  and  C_19 
ROOT
HETATM    1  C   UNL     1      24.048  46.998  49.704  1.00  0.00     0.036 A 
HETATM    2  C   UNL     1      23.464  45.851  49.168  1.00  0.00     0.038 A 
HETATM    3  C   UNL     1      24.211  44.667  48.993  1.00  0.00    -0.033 A 
HETATM    4  C   UNL     1      23.513  43.457  48.432  1.00  0.00     0.050 C 
HETATM    5  C   UNL     1      25.583  44.657  49.322  1.00  0.00     0.041 A 
HETATM    6  C   UNL     1      26.146  45.803  49.894  1.00  0.00     0.032 A 
HETATM    7  C   UNL     1      25.383  46.954  50.100  1.00  0.00     0.032 A 
ENDROOT
BRANCH   1   8
HETATM    8  N   UNL     1      23.358  48.212  49.884  1.00  0.00    -0.309 N 
HETATM    9  C   UNL     1      22.973  49.081  48.894  1.00  0.00     0.320 C 
HETATM   10  N   UNL     1      22.335  50.183  49.432  1.00  0.00    -0.342 N 
HETATM   11  O   UNL     1      23.229  49.007  47.699  1.00  0.00    -0.247 OA
HETATM   12  H   UNL     1      21.729  49.948  50.211  1.00  0.00     0.164 HD
HETATM   13  H   UNL     1      23.365  48.591  50.820  1.00  0.00     0.170 HD
BRANCH  10  14
HETATM   14  C   UNL     1      21.881  51.262  48.577  1.00  0.00     0.130 C 
BRANCH  14  15
HETATM   15  C   UNL     1      20.364  51.460  48.566  1.00  0.00     0.031 C 
HETATM   16  C   UNL     1      19.666  51.332  49.911  1.00  0.00     0.241 C 
HETATM   17  N   UNL     1      18.188  51.197  49.538  1.00  0.00    -0.071 N 
HETATM   18  H   UNL     1      17.820  50.438  50.127  1.00  0.00     0.279 HD
HETATM   19  C   UNL     1      18.144  50.743  48.088  1.00  0.00     0.235 C 
HETATM   20  C   UNL     1      19.590  50.460  47.718  1.00  0.00     0.035 C 
BRANCH  17  21
HETATM   21  C   UNL     1      17.388  52.439  49.836  1.00  0.00     0.234 C 
BRANCH  21  22
HETATM   22  C   UNL     1      15.885  52.191  49.732  1.00  0.00     0.023 C 
HETATM   23  C   UNL     1      15.193  53.061  48.691  1.00  0.00     0.007 C 
ENDBRANCH  21  22
ENDBRANCH  17  21
ENDBRANCH  14  15
ENDBRANCH  10  14
ENDBRANCH   1   8
BRANCH   5  24
HETATM   24  N   UNL     1      26.342  43.496  49.068  1.00  0.00    -0.321 N 
HETATM   25  C   UNL     1      26.746  42.522  49.967  1.00  0.00     0.279 C 
HETATM   26  O   UNL     1      26.504  42.521  51.169  1.00  0.00    -0.265 OA
HETATM   27  H   UNL     1      26.718  43.372  48.135  1.00  0.00     0.169 HD
BRANCH  25  28
HETATM   28  C   UNL     1      27.548  41.486  49.343  1.00  0.00     0.142 A 
HETATM   29  O   UNL     1      27.756  41.518  47.986  1.00  0.00    -0.317 OA
HETATM   30  C   UNL     1      28.523  40.441  47.675  1.00  0.00     0.143 A 
HETATM   31  C   UNL     1      28.829  39.721  48.806  1.00  0.00     0.027 A 
HETATM   32  C   UNL     1      28.200  40.392  49.881  1.00  0.00     0.045 A 
ENDBRANCH  25  28
ENDBRANCH   5  24
TORSDOF 7
ENDMDL
MODEL 6
REMARK VINA RESULT:      -7.7      4.493      5.790
REMARK  7 active torsions:
REMARK  status: ('A' for Active; 'I' for Inactive)
REMARK    1  A    between atoms: C_2  and  C_3 
REMARK    2  A    between atoms: C_3  and  N_4 
REMARK    3  A    between atoms: C_7  and  C_8 
REMARK    4  A    between atoms: C_8  and  N_9 
REMARK       I    between atoms: N_9  and  C_10 
REMARK       I    between atoms: C_10  and  N_11 
REMARK    5  A    between atoms: N_11  and  C_12 
REMARK    6  A    between atoms: C_16  and  N_17 
REMARK       I    between atoms: N_17  and  C_18 
REMARK    7  A    between atoms: C_18  and  C_19 
ROOT
HETATM    1  C   UNL     1      23.002  43.360  49.909  1.00  0.00     0.036 A 
HETATM    2  C   UNL     1      24.091  43.593  50.747  1.00  0.00     0.038 A 
HETATM    3  C   UNL     1      25.234  42.767  50.703  1.00  0.00    -0.033 A 
HETATM    4  C   UNL     1      26.385  43.089  51.619  1.00  0.00     0.050 C 
HETATM    5  C   UNL     1      25.257  41.660  49.830  1.00  0.00     0.041 A 
HETATM    6  C   UNL     1      24.173  41.461  48.968  1.00  0.00     0.032 A 
HETATM    7  C   UNL     1      23.066  42.312  48.993  1.00  0.00     0.032 A 
ENDROOT
BRANCH   1   8
HETATM    8  N   UNL     1      21.829  44.138  49.921  1.00  0.00    -0.309 N 
HETATM    9  C   UNL     1      21.378  44.944  48.904  1.00  0.00     0.320 C 
HETATM   10  N   UNL     1      20.205  45.577  49.266  1.00  0.00    -0.342 N 
HETATM   11  O   UNL     1      21.948  45.198  47.850  1.00  0.00    -0.247 OA
HETATM   12  H   UNL     1      19.582  44.981  49.800  1.00  0.00     0.164 HD
HETATM   13  H   UNL     1      21.421  44.311  50.828  1.00  0.00     0.170 HD
BRANCH  10  14
HETATM   14  C   UNL     1      19.568  46.518  48.367  1.00  0.00     0.130 C 
BRANCH  14  15
HETATM   15  C   UNL     1      19.529  47.957  48.885  1.00  0.00     0.031 C 
HETATM   16  C   UNL     1      20.868  48.557  49.284  1.00  0.00     0.241 C 
HETATM   17  N   UNL     1      20.480  49.799  50.090  1.00  0.00    -0.071 N 
HETATM   18  H   UNL     1      21.092  49.796  50.918  1.00  0.00     0.279 HD
HETATM   19  C   UNL     1      19.047  49.589  50.552  1.00  0.00     0.235 C 
HETATM   20  C   UNL     1      18.707  48.164  50.151  1.00  0.00     0.035 C 
BRANCH  17  21
HETATM   21  C   UNL     1      20.721  51.086  49.345  1.00  0.00     0.234 C 
BRANCH  21  22
HETATM   22  C   UNL     1      21.676  50.896  48.168  1.00  0.00     0.023 C 
HETATM   23  C   UNL     1      23.130  51.197  48.506  1.00  0.00     0.007 C 
ENDBRANCH  21  22
ENDBRANCH  17  21
ENDBRANCH  14  15
ENDBRANCH  10  14
ENDBRANCH   1   8
BRANCH   5  24
HETATM   24  N   UNL     1      26.368  40.792  49.849  1.00  0.00    -0.321 N 
HETATM   25  C   UNL     1      27.493  40.820  49.041  1.00  0.00     0.279 C 
HETATM   26  O   UNL     1      27.702  41.629  48.143  1.00  0.00    -0.265 OA
HETATM   27  H   UNL     1      26.331  39.992  50.471  1.00  0.00     0.169 HD
BRANCH  25  28
HETATM   28  C   UNL     1      28.416  39.739  49.333  1.00  0.00     0.142 A 
HETATM   29  O   UNL     1      28.709  39.435  50.639  1.00  0.00    -0.317 OA
HETATM   30  C   UNL     1      29.592  38.403  50.619  1.00  0.00     0.143 A 
HETATM   31  C   UNL     1      29.865  38.023  49.326  1.00  0.00     0.027 A 
HETATM   32  C   UNL     1      29.109  38.885  48.496  1.00  0.00     0.045 A 
ENDBRANCH  25  28
ENDBRANCH   5  24
TORSDOF 7
ENDMDL
MODEL 7
REMARK VINA RESULT:      -7.5      1.741      2.600
REMARK  7 active torsions:
REMARK  status: ('A' for Active; 'I' for Inactive)
REMARK    1  A    between atoms: C_2  and  C_3 
REMARK    2  A    between atoms: C_3  and  N_4 
REMARK    3  A    between atoms: C_7  and  C_8 
REMARK    4  A    between atoms: C_8  and  N_9 
REMARK       I    between atoms: N_9  and  C_10 
REMARK       I    between atoms: C_10  and  N_11 
REMARK    5  A    between atoms: N_11  and  C_12 
REMARK    6  A    between atoms: C_16  and  N_17 
REMARK       I    between atoms: N_17  and  C_18 
REMARK    7  A    between atoms: C_18  and  C_19 
ROOT
HETATM    1  C   UNL     1      24.661  46.291  50.595  1.00  0.00     0.036 A 
HETATM    2  C   UNL     1      24.950  46.961  51.783  1.00  0.00     0.038 A 
HETATM    3  C   UNL     1      26.030  46.565  52.599  1.00  0.00    -0.033 A 
HETATM    4  C   UNL     1      26.301  47.347  53.856  1.00  0.00     0.050 C 
HETATM    5  C   UNL     1      26.803  45.444  52.231  1.00  0.00     0.041 A 
HETATM    6  C   UNL     1      26.526  44.805  51.018  1.00  0.00     0.032 A 
HETATM    7  C   UNL     1      25.479  45.235  50.199  1.00  0.00     0.032 A 
ENDROOT
BRANCH   1   8
HETATM    8  N   UNL     1      23.587  46.629  49.751  1.00  0.00    -0.309 N 
HETATM    9  C   UNL     1      23.307  47.878  49.254  1.00  0.00     0.320 C 
HETATM   10  N   UNL     1      22.165  47.850  48.476  1.00  0.00    -0.342 N 
HETATM   11  O   UNL     1      23.880  48.928  49.518  1.00  0.00    -0.247 OA
HETATM   12  H   UNL     1      22.095  47.014  47.907  1.00  0.00     0.164 HD
HETATM   13  H   UNL     1      22.830  45.963  49.707  1.00  0.00     0.170 HD
BRANCH  10  14
HETATM   14  C   UNL     1      21.647  49.068  47.884  1.00  0.00     0.130 C 
BRANCH  14  15
HETATM   15  C   UNL     1      20.135  49.245  48.030  1.00  0.00     0.031 C 
HETATM   16  C   UNL     1      19.530  50.431  47.295  1.00  0.00     0.241 C 
HETATM   17  N   UNL     1      18.138  50.568  47.919  1.00  0.00    -0.071 N 
HETATM   18  H   UNL     1      18.008  51.574  48.090  1.00  0.00     0.279 HD
HETATM   19  C   UNL     1      18.189  49.855  49.260  1.00  0.00     0.235 C 
HETATM   20  C   UNL     1      19.648  49.480  49.454  1.00  0.00     0.035 C 
BRANCH  17  21
HETATM   21  C   UNL     1      17.034  50.111  47.001  1.00  0.00     0.234 C 
BRANCH  21  22
HETATM   22  C   UNL     1      15.946  49.344  47.752  1.00  0.00     0.023 C 
HETATM   23  C   UNL     1      14.885  48.742  46.842  1.00  0.00     0.007 C 
ENDBRANCH  21  22
ENDBRANCH  17  21
ENDBRANCH  14  15
ENDBRANCH  10  14
ENDBRANCH   1   8
BRANCH   5  24
HETATM   24  N   UNL     1      27.829  45.004  53.092  1.00  0.00    -0.321 N 
HETATM   25  C   UNL     1      27.720  44.207  54.221  1.00  0.00     0.279 C 
HETATM   26  O   UNL     1      26.674  43.749  54.668  1.00  0.00    -0.265 OA
HETATM   27  H   UNL     1      28.764  45.363  52.934  1.00  0.00     0.169 HD
BRANCH  25  28
HETATM   28  C   UNL     1      28.997  43.989  54.875  1.00  0.00     0.142 A 
HETATM   29  O   UNL     1      29.457  44.913  55.781  1.00  0.00    -0.317 OA
HETATM   30  C   UNL     1      30.660  44.467  56.227  1.00  0.00     0.143 A 
HETATM   31  C   UNL     1      30.980  43.266  55.641  1.00  0.00     0.027 A 
HETATM   32  C   UNL     1      29.910  42.957  54.768  1.00  0.00     0.045 A 
ENDBRANCH  25  28
ENDBRANCH   5  24
TORSDOF 7
ENDMDL
MODEL 8
REMARK VINA RESULT:      -7.4      4.197     12.818
REMARK  7 active torsions:
REMARK  status: ('A' for Active; 'I' for Inactive)
REMARK    1  A    between atoms: C_2  and  C_3 
REMARK    2  A    between atoms: C_3  and  N_4 
REMARK    3  A    between atoms: C_7  and  C_8 
REMARK    4  A    between atoms: C_8  and  N_9 
REMARK       I    between atoms: N_9  and  C_10 
REMARK       I    between atoms: C_10  and  N_11 
REMARK    5  A    between atoms: N_11  and  C_12 
REMARK    6  A    between atoms: C_16  and  N_17 
REMARK       I    between atoms: N_17  and  C_18 
REMARK    7  A    between atoms: C_18  and  C_19 
ROOT
HETATM    1  C   UNL     1      20.589  50.043  48.899  1.00  0.00     0.036 A 
HETATM    2  C   UNL     1      20.039  49.675  47.672  1.00  0.00     0.038 A 
HETATM    3  C   UNL     1      19.039  50.458  47.057  1.00  0.00    -0.033 A 
HETATM    4  C   UNL     1      18.506  50.016  45.720  1.00  0.00     0.050 C 
HETATM    5  C   UNL     1      18.556  51.608  47.715  1.00  0.00     0.041 A 
HETATM    6  C   UNL     1      19.143  51.986  48.927  1.00  0.00     0.032 A 
HETATM    7  C   UNL     1      20.161  51.223  49.503  1.00  0.00     0.032 A 
ENDROOT
BRANCH   1   8
HETATM    8  N   UNL     1      21.573  49.293  49.568  1.00  0.00    -0.309 N 
HETATM    9  C   UNL     1      22.779  48.888  49.048  1.00  0.00     0.320 C 
HETATM   10  N   UNL     1      23.488  48.150  49.976  1.00  0.00    -0.342 N 
HETATM   11  O   UNL     1      23.177  49.030  47.898  1.00  0.00    -0.247 OA
HETATM   12  H   UNL     1      23.400  48.512  50.920  1.00  0.00     0.164 HD
HETATM   13  H   UNL     1      21.272  48.806  50.399  1.00  0.00     0.170 HD
BRANCH  10  14
HETATM   14  C   UNL     1      24.774  47.576  49.633  1.00  0.00     0.130 C 
BRANCH  14  15
HETATM   15  C   UNL     1      25.339  46.623  50.688  1.00  0.00     0.031 C 
HETATM   16  C   UNL     1      24.562  45.335  50.906  1.00  0.00     0.241 C 
HETATM   17  N   UNL     1      25.119  44.798  52.228  1.00  0.00    -0.071 N 
HETATM   18  H   UNL     1      24.300  44.495  52.772  1.00  0.00     0.279 HD
HETATM   19  C   UNL     1      25.759  45.978  52.942  1.00  0.00     0.235 C 
HETATM   20  C   UNL     1      25.403  47.191  52.100  1.00  0.00     0.035 C 
BRANCH  17  21
HETATM   21  C   UNL     1      26.020  43.604  52.047  1.00  0.00     0.234 C 
BRANCH  21  22
HETATM   22  C   UNL     1      27.479  44.011  51.854  1.00  0.00     0.023 C 
HETATM   23  C   UNL     1      28.430  43.369  52.854  1.00  0.00     0.007 C 
ENDBRANCH  21  22
ENDBRANCH  17  21
ENDBRANCH  14  15
ENDBRANCH  10  14
ENDBRANCH   1   8
BRANCH   5  24
HETATM   24  N   UNL     1      17.500  52.341  47.133  1.00  0.00    -0.321 N 
HETATM   25  C   UNL     1      16.137  52.165  47.306  1.00  0.00     0.279 C 
HETATM   26  O   UNL     1      15.615  51.308  48.011  1.00  0.00    -0.265 OA
HETATM   27  H   UNL     1      17.738  53.040  46.439  1.00  0.00     0.169 HD
BRANCH  25  28
HETATM   28  C   UNL     1      15.350  53.092  46.514  1.00  0.00     0.142 A 
HETATM   29  O   UNL     1      15.678  53.303  45.197  1.00  0.00    -0.317 OA
HETATM   30  C   UNL     1      14.794  54.210  44.707  1.00  0.00     0.143 A 
HETATM   31  C   UNL     1      13.891  54.579  45.676  1.00  0.00     0.027 A 
HETATM   32  C   UNL     1      14.249  53.861  46.841  1.00  0.00     0.045 A 
ENDBRANCH  25  28
ENDBRANCH   5  24
TORSDOF 7
ENDMDL
MODEL 9
REMARK VINA RESULT:      -7.4      2.940     11.535
REMARK  7 active torsions:
REMARK  status: ('A' for Active; 'I' for Inactive)
REMARK    1  A    between atoms: C_2  and  C_3 
REMARK    2  A    between atoms: C_3  and  N_4 
REMARK    3  A    between atoms: C_7  and  C_8 
REMARK    4  A    between atoms: C_8  and  N_9 
REMARK       I    between atoms: N_9  and  C_10 
REMARK       I    between atoms: C_10  and  N_11 
REMARK    5  A    between atoms: N_11  and  C_12 
REMARK    6  A    between atoms: C_16  and  N_17 
REMARK       I    between atoms: N_17  and  C_18 
REMARK    7  A    between atoms: C_18  and  C_19 
ROOT
HETATM    1  C   UNL     1      22.966  48.752  49.194  1.00  0.00     0.036 A 
HETATM    2  C   UNL     1      21.831  48.096  48.719  1.00  0.00     0.038 A 
HETATM    3  C   UNL     1      20.604  48.775  48.572  1.00  0.00    -0.033 A 
HETATM    4  C   UNL     1      19.424  48.012  48.030  1.00  0.00     0.050 C 
HETATM    5  C   UNL     1      20.510  50.129  48.955  1.00  0.00     0.041 A 
HETATM    6  C   UNL     1      21.665  50.786  49.394  1.00  0.00     0.032 A 
HETATM    7  C   UNL     1      22.883  50.110  49.494  1.00  0.00     0.032 A 
ENDROOT
BRANCH   1   8
HETATM    8  N   UNL     1      24.210  48.122  49.379  1.00  0.00    -0.309 N 
HETATM    9  C   UNL     1      24.431  46.769  49.463  1.00  0.00     0.320 C 
HETATM   10  N   UNL     1      25.772  46.504  49.667  1.00  0.00    -0.342 N 
HETATM   11  O   UNL     1      23.590  45.879  49.479  1.00  0.00    -0.247 OA
HETATM   12  H   UNL     1      26.381  47.120  49.139  1.00  0.00     0.164 HD
HETATM   13  H   UNL     1      24.958  48.708  49.722  1.00  0.00     0.170 HD
BRANCH  10  14
HETATM   14  C   UNL     1      26.236  45.142  49.835  1.00  0.00     0.130 C 
BRANCH  14  15
HETATM   15  C   UNL     1      27.026  44.901  51.123  1.00  0.00     0.031 C 
HETATM   16  C   UNL     1      27.457  43.465  51.380  1.00  0.00     0.241 C 
HETATM   17  N   UNL     1      27.863  43.471  52.856  1.00  0.00    -0.071 N 
HETATM   18  H   UNL     1      27.449  42.619  53.261  1.00  0.00     0.279 HD
HETATM   19  C   UNL     1      27.191  44.678  53.489  1.00  0.00     0.235 C 
HETATM   20  C   UNL     1      26.280  45.235  52.408  1.00  0.00     0.035 C 
BRANCH  17  21
HETATM   21  C   UNL     1      29.354  43.399  53.059  1.00  0.00     0.234 C 
BRANCH  21  22
HETATM   22  C   UNL     1      29.721  42.743  54.389  1.00  0.00     0.023 C 
HETATM   23  C   UNL     1      30.572  43.625  55.291  1.00  0.00     0.007 C 
ENDBRANCH  21  22
ENDBRANCH  17  21
ENDBRANCH  14  15
ENDBRANCH  10  14
ENDBRANCH   1   8
BRANCH   5  24
HETATM   24  N   UNL     1      19.261  50.780  48.882  1.00  0.00    -0.321 N 
HETATM   25  C   UNL     1      18.224  50.751  49.800  1.00  0.00     0.279 C 
HETATM   26  O   UNL     1      18.227  50.126  50.856  1.00  0.00    -0.265 OA
HETATM   27  H   UNL     1      19.036  51.276  48.027  1.00  0.00     0.169 HD
BRANCH  25  28
HETATM   28  C   UNL     1      17.073  51.521  49.366  1.00  0.00     0.142 A 
HETATM   29  O   UNL     1      16.454  52.369  50.250  1.00  0.00    -0.317 OA
HETATM   30  C   UNL     1      15.418  52.947  49.589  1.00  0.00     0.143 A 
HETATM   31  C   UNL     1      15.364  52.502  48.289  1.00  0.00     0.027 A 
HETATM   32  C   UNL     1      16.428  51.581  48.144  1.00  0.00     0.045 A 
ENDBRANCH  25  28
ENDBRANCH   5  24
TORSDOF 7
ENDMDL
MODEL 10
REMARK VINA RESULT:      -7.3      2.589      3.559
REMARK  7 active torsions:
REMARK  status: ('A' for Active; 'I' for Inactive)
REMARK    1  A    between atoms: C_2  and  C_3 
REMARK    2  A    between atoms: C_3  and  N_4 
REMARK    3  A    between atoms: C_7  and  C_8 
REMARK    4  A    between atoms: C_8  and  N_9 
REMARK       I    between atoms: N_9  and  C_10 
REMARK       I    between atoms: C_10  and  N_11 
REMARK    5  A    between atoms: N_11  and  C_12 
REMARK    6  A    between atoms: C_16  and  N_17 
REMARK       I    between atoms: N_17  and  C_18 
REMARK    7  A    between atoms: C_18  and  C_19 
ROOT
HETATM    1  C   UNL     1      24.411  45.524  49.490  1.00  0.00     0.036 A 
HETATM    2  C   UNL     1      24.723  46.380  50.546  1.00  0.00     0.038 A 
HETATM    3  C   UNL     1      25.777  46.084  51.436  1.00  0.00    -0.033 A 
HETATM    4  C   UNL     1      26.077  47.063  52.540  1.00  0.00     0.050 C 
HETATM    5  C   UNL     1      26.496  44.880  51.284  1.00  0.00     0.041 A 
HETATM    6  C   UNL     1      26.198  44.051  50.198  1.00  0.00     0.032 A 
HETATM    7  C   UNL     1      25.179  44.378  49.300  1.00  0.00     0.032 A 
ENDROOT
BRANCH   1   8
HETATM    8  N   UNL     1      23.360  45.758  48.583  1.00  0.00    -0.309 N 
HETATM    9  C   UNL     1      22.080  45.269  48.680  1.00  0.00     0.320 C 
HETATM   10  N   UNL     1      21.318  45.681  47.603  1.00  0.00    -0.342 N 
HETATM   11  O   UNL     1      21.646  44.483  49.512  1.00  0.00    -0.247 OA
HETATM   12  H   UNL     1      21.512  46.636  47.323  1.00  0.00     0.164 HD
HETATM   13  H   UNL     1      23.628  46.101  47.672  1.00  0.00     0.170 HD
BRANCH  10  14
HETATM   14  C   UNL     1      19.942  45.246  47.466  1.00  0.00     0.130 C 
BRANCH  14  15
HETATM   15  C   UNL     1      18.906  46.310  47.832  1.00  0.00     0.031 C 
HETATM   16  C   UNL     1      19.185  47.101  49.100  1.00  0.00     0.241 C 
HETATM   17  N   UNL     1      17.846  47.780  49.401  1.00  0.00    -0.071 N 
HETATM   18  H   UNL     1      17.695  47.662  50.413  1.00  0.00     0.279 HD
HETATM   19  C   UNL     1      16.779  46.989  48.662  1.00  0.00     0.235 C 
HETATM   20  C   UNL     1      17.504  45.778  48.099  1.00  0.00     0.035 C 
BRANCH  17  21
HETATM   21  C   UNL     1      17.855  49.258  49.107  1.00  0.00     0.234 C 
BRANCH  21  22
HETATM   22  C   UNL     1      18.541  50.058  50.213  1.00  0.00     0.023 C 
HETATM   23  C   UNL     1      19.424  51.184  49.694  1.00  0.00     0.007 C 
ENDBRANCH  21  22
ENDBRANCH  17  21
ENDBRANCH  14  15
ENDBRANCH  10  14
ENDBRANCH   1   8
BRANCH   5  24
HETATM   24  N   UNL     1      27.494  44.552  52.225  1.00  0.00    -0.321 N 
HETATM   25  C   UNL     1      27.336  43.981  53.478  1.00  0.00     0.279 C 
HETATM   26  O   UNL     1      26.265  43.668  53.987  1.00  0.00    -0.265 OA
HETATM   27  H   UNL     1      28.447  44.827  52.018  1.00  0.00     0.169 HD
BRANCH  25  28
HETATM   28  C   UNL     1      28.597  43.821  54.180  1.00  0.00     0.142 A 
HETATM   29  O   UNL     1      28.956  44.734  55.140  1.00  0.00    -0.317 OA
HETATM   30  C   UNL     1      30.167  44.350  55.621  1.00  0.00     0.143 A 
HETATM   31  C   UNL     1      30.591  43.197  55.003  1.00  0.00     0.027 A 
HETATM   32  C   UNL     1      29.581  42.856  54.072  1.00  0.00     0.045 A 
ENDBRANCH  25  28
ENDBRANCH   5  24
TORSDOF 7
ENDMDL
