MODEL 1
REMARK VINA RESULT:     -10.0      0.000      0.000
REMARK  3 active torsions:
REMARK  status: ('A' for Active; 'I' for Inactive)
REMARK    1  A    between atoms: N_4  and  C_5 
REMARK    2  A    between atoms: C_15  and  C_16 
REMARK       I    between atoms: C_16  and  N_17 
REMARK    3  A    between atoms: N_17  and  C_18 
ROOT
HETATM    1  C   UNL     1      23.153  43.485  49.650  1.00  0.00     0.073 C 
HETATM    2  C   UNL     1      23.680  44.836  49.964  1.00  0.00     0.069 A 
HETATM    3  N   UNL     1      23.419  45.871  49.154  1.00  0.00    -0.170 NA
HETATM    4  N   UNL     1      23.995  46.958  49.753  1.00  0.00    -0.216 N 
HETATM    5  C   UNL     1      24.729  46.557  50.860  1.00  0.00     0.145 A 
HETATM    6  C   UNL     1      24.508  45.212  51.036  1.00  0.00     0.087 A 
HETATM    7  N   UNL     1      25.575  47.264  51.647  1.00  0.00    -0.349 N 
HETATM    8  C   UNL     1      26.228  46.595  52.670  1.00  0.00     0.111 A 
HETATM    9  C   UNL     1      26.064  45.286  52.970  1.00  0.00     0.098 A 
HETATM   10  C   UNL     1      25.125  44.474  52.119  1.00  0.00     0.205 A 
HETATM   11  O   UNL     1      24.920  43.282  52.329  1.00  0.00    -0.286 OA
HETATM   12  H   UNL     1      25.941  48.184  51.406  1.00  0.00     0.167 HD
ENDROOT
BRANCH   9  13
HETATM   13  C   UNL     1      26.847  44.720  54.115  1.00  0.00     0.261 C 
HETATM   14  N   UNL     1      28.202  44.966  54.051  1.00  0.00    -0.320 N 
HETATM   15  H   UNL     1      28.538  45.413  53.199  1.00  0.00     0.169 HD
HETATM   16  O   UNL     1      26.264  44.075  54.979  1.00  0.00    -0.267 OA
BRANCH  14  17
HETATM   17  C   UNL     1      29.212  44.628  54.982  1.00  0.00     0.073 A 
HETATM   18  C   UNL     1      30.002  43.473  54.970  1.00  0.00     0.143 A 
HETATM   19  F   UNL     1      29.837  42.498  54.068  1.00  0.00    -0.204 F 
HETATM   20  C   UNL     1      30.973  43.254  55.952  1.00  0.00     0.044 A 
HETATM   21  C   UNL     1      31.165  44.182  56.971  1.00  0.00     0.003 A 
HETATM   22  C   UNL     1      30.377  45.328  57.012  1.00  0.00     0.002 A 
HETATM   23  C   UNL     1      29.407  45.546  56.028  1.00  0.00     0.033 A 
ENDBRANCH  14  17
ENDBRANCH   9  13
BRANCH   4  24
HETATM   24  C   UNL     1      23.776  48.260  49.220  1.00  0.00     0.060 A 
HETATM   25  C   UNL     1      24.818  49.017  48.670  1.00  0.00     0.031 A 
HETATM   26  C   UNL     1      24.562  50.292  48.151  1.00  0.00     0.002 A 
HETATM   27  C   UNL     1      23.272  50.819  48.187  1.00  0.00     0.000 A 
HETATM   28  C   UNL     1      22.236  50.083  48.755  1.00  0.00     0.002 A 
HETATM   29  C   UNL     1      22.486  48.812  49.278  1.00  0.00     0.031 A 
ENDBRANCH   4  24
TORSDOF 3
ENDMDL
MODEL 2
REMARK VINA RESULT:     -10.0      3.311      8.808
REMARK  3 active torsions:
REMARK  status: ('A' for Active; 'I' for Inactive)
REMARK    1  A    between atoms: N_4  and  C_5 
REMARK    2  A    between atoms: C_15  and  C_16 
REMARK       I    between atoms: C_16  and  N_17 
REMARK    3  A    between atoms: N_17  and  C_18 
ROOT
HETATM    1  C   UNL     1      23.800  42.596  50.222  1.00  0.00     0.073 C 
HETATM    2  C   UNL     1      24.815  43.489  50.832  1.00  0.00     0.069 A 
HETATM    3  N   UNL     1      25.725  43.000  51.685  1.00  0.00    -0.170 NA
HETATM    4  N   UNL     1      26.529  44.059  52.011  1.00  0.00    -0.216 N 
HETATM    5  C   UNL     1      26.019  45.227  51.463  1.00  0.00     0.145 A 
HETATM    6  C   UNL     1      24.950  44.880  50.674  1.00  0.00     0.087 A 
HETATM    7  N   UNL     1      26.395  46.515  51.653  1.00  0.00    -0.349 N 
HETATM    8  C   UNL     1      25.671  47.508  51.013  1.00  0.00     0.111 A 
HETATM    9  C   UNL     1      24.628  47.292  50.179  1.00  0.00     0.098 A 
HETATM   10  C   UNL     1      24.189  45.872  49.942  1.00  0.00     0.205 A 
HETATM   11  O   UNL     1      23.253  45.594  49.197  1.00  0.00    -0.286 OA
HETATM   12  H   UNL     1      27.015  46.822  52.401  1.00  0.00     0.167 HD
ENDROOT
BRANCH   9  13
HETATM   13  C   UNL     1      23.956  48.483  49.566  1.00  0.00     0.261 C 
HETATM   14  N   UNL     1      22.581  48.397  49.520  1.00  0.00    -0.320 N 
HETATM   15  H   UNL     1      22.176  47.508  49.812  1.00  0.00     0.169 HD
HETATM   16  O   UNL     1      24.643  49.401  49.133  1.00  0.00    -0.267 OA
BRANCH  14  17
HETATM   17  C   UNL     1      21.645  49.353  49.063  1.00  0.00     0.073 A 
HETATM   18  C   UNL     1      21.357  50.587  49.658  1.00  0.00     0.143 A 
HETATM   19  F   UNL     1      21.926  50.983  50.803  1.00  0.00    -0.204 F 
HETATM   20  C   UNL     1      20.406  51.449  49.105  1.00  0.00     0.044 A 
HETATM   21  C   UNL     1      19.714  51.088  47.953  1.00  0.00     0.003 A 
HETATM   22  C   UNL     1      19.969  49.857  47.357  1.00  0.00     0.002 A 
HETATM   23  C   UNL     1      20.923  48.997  47.911  1.00  0.00     0.033 A 
ENDBRANCH  14  17
ENDBRANCH   9  13
BRANCH   4  24
HETATM   24  C   UNL     1      27.698  43.847  52.795  1.00  0.00     0.060 A 
HETATM   25  C   UNL     1      27.821  44.363  54.091  1.00  0.00     0.031 A 
HETATM   26  C   UNL     1      28.986  44.128  54.832  1.00  0.00     0.002 A 
HETATM   27  C   UNL     1      30.032  43.389  54.283  1.00  0.00     0.000 A 
HETATM   28  C   UNL     1      29.927  42.895  52.985  1.00  0.00     0.002 A 
HETATM   29  C   UNL     1      28.770  43.129  52.239  1.00  0.00     0.031 A 
ENDBRANCH   4  24
TORSDOF 3
ENDMDL
MODEL 3
REMARK VINA RESULT:      -9.6      4.235      8.566
REMARK  3 active torsions:
REMARK  status: ('A' for Active; 'I' for Inactive)
REMARK    1  A    between atoms: N_4  and  C_5 
REMARK    2  A    between atoms: C_15  and  C_16 
REMARK       I    between atoms: C_16  and  N_17 
REMARK    3  A    between atoms: N_17  and  C_18 
ROOT
HETATM    1  C   UNL     1      26.329  46.236  53.170  1.00  0.00     0.073 C 
HETATM    2  C   UNL     1      27.363  45.303  53.682  1.00  0.00     0.069 A 
HETATM    3  N   UNL     1      28.198  45.685  54.658  1.00  0.00    -0.170 NA
HETATM    4  N   UNL     1      28.971  44.589  54.927  1.00  0.00    -0.216 N 
HETATM    5  C   UNL     1      28.700  43.580  54.015  1.00  0.00     0.145 A 
HETATM    6  C   UNL     1      27.647  44.000  53.237  1.00  0.00     0.087 A 
HETATM    7  N   UNL     1      29.328  42.397  53.810  1.00  0.00    -0.349 N 
HETATM    8  C   UNL     1      28.876  41.587  52.780  1.00  0.00     0.111 A 
HETATM    9  C   UNL     1      27.827  41.869  51.975  1.00  0.00     0.098 A 
HETATM   10  C   UNL     1      27.102  43.172  52.181  1.00  0.00     0.205 A 
HETATM   11  O   UNL     1      26.139  43.499  51.493  1.00  0.00    -0.286 OA
HETATM   12  H   UNL     1      30.241  42.164  54.198  1.00  0.00     0.167 HD
ENDROOT
BRANCH   9  13
HETATM   13  C   UNL     1      27.468  40.878  50.910  1.00  0.00     0.261 C 
HETATM   14  N   UNL     1      28.427  40.724  49.932  1.00  0.00    -0.320 N 
HETATM   15  H   UNL     1      29.223  41.360  49.979  1.00  0.00     0.169 HD
HETATM   16  O   UNL     1      26.379  40.318  50.956  1.00  0.00    -0.267 OA
BRANCH  14  17
HETATM   17  C   UNL     1      28.436  39.843  48.826  1.00  0.00     0.073 A 
HETATM   18  C   UNL     1      28.901  38.523  48.816  1.00  0.00     0.143 A 
HETATM   19  F   UNL     1      29.462  37.951  49.889  1.00  0.00    -0.204 F 
HETATM   20  C   UNL     1      28.855  37.751  47.652  1.00  0.00     0.044 A 
HETATM   21  C   UNL     1      28.353  38.289  46.471  1.00  0.00     0.003 A 
HETATM   22  C   UNL     1      27.904  39.605  46.453  1.00  0.00     0.002 A 
HETATM   23  C   UNL     1      27.950  40.376  47.620  1.00  0.00     0.033 A 
ENDBRANCH  14  17
ENDBRANCH   9  13
BRANCH   4  24
HETATM   24  C   UNL     1      29.875  44.612  56.028  1.00  0.00     0.060 A 
HETATM   25  C   UNL     1      30.872  43.642  56.185  1.00  0.00     0.031 A 
HETATM   26  C   UNL     1      31.744  43.702  57.278  1.00  0.00     0.002 A 
HETATM   27  C   UNL     1      31.620  44.720  58.221  1.00  0.00     0.000 A 
HETATM   28  C   UNL     1      30.614  45.674  58.086  1.00  0.00     0.002 A 
HETATM   29  C   UNL     1      29.738  45.617  57.000  1.00  0.00     0.031 A 
ENDBRANCH   4  24
TORSDOF 3
ENDMDL
MODEL 4
REMARK VINA RESULT:      -9.3      1.606      2.227
REMARK  3 active torsions:
REMARK  status: ('A' for Active; 'I' for Inactive)
REMARK    1  A    between atoms: N_4  and  C_5 
REMARK    2  A    between atoms: C_15  and  C_16 
REMARK       I    between atoms: C_16  and  N_17 
REMARK    3  A    between atoms: N_17  and  C_18 
ROOT
HETATM    1  C   UNL     1      22.855  43.933  47.524  1.00  0.00     0.073 C 
HETATM    2  C   UNL     1      23.045  45.203  48.267  1.00  0.00     0.069 A 
HETATM    3  N   UNL     1      22.592  46.359  47.763  1.00  0.00    -0.170 NA
HETATM    4  N   UNL     1      22.876  47.307  48.708  1.00  0.00    -0.216 N 
HETATM    5  C   UNL     1      23.631  46.748  49.729  1.00  0.00     0.145 A 
HETATM    6  C   UNL     1      23.715  45.398  49.488  1.00  0.00     0.087 A 
HETATM    7  N   UNL     1      24.256  47.340  50.775  1.00  0.00    -0.349 N 
HETATM    8  C   UNL     1      24.997  46.540  51.630  1.00  0.00     0.111 A 
HETATM    9  C   UNL     1      25.122  45.198  51.524  1.00  0.00     0.098 A 
HETATM   10  C   UNL     1      24.433  44.508  50.377  1.00  0.00     0.205 A 
HETATM   11  O   UNL     1      24.496  43.292  50.214  1.00  0.00    -0.286 OA
HETATM   12  H   UNL     1      24.414  48.344  50.849  1.00  0.00     0.167 HD
ENDROOT
BRANCH   9  13
HETATM   13  C   UNL     1      25.960  44.483  52.540  1.00  0.00     0.261 C 
HETATM   14  N   UNL     1      27.318  44.655  52.377  1.00  0.00    -0.320 N 
HETATM   15  H   UNL     1      27.610  45.159  51.540  1.00  0.00     0.169 HD
HETATM   16  O   UNL     1      25.411  43.796  53.393  1.00  0.00    -0.267 OA
BRANCH  14  17
HETATM   17  C   UNL     1      28.379  44.175  53.179  1.00  0.00     0.073 A 
HETATM   18  C   UNL     1      28.665  44.555  54.496  1.00  0.00     0.143 A 
HETATM   19  F   UNL     1      27.966  45.497  55.140  1.00  0.00    -0.204 F 
HETATM   20  C   UNL     1      29.748  44.003  55.186  1.00  0.00     0.044 A 
HETATM   21  C   UNL     1      30.573  43.068  54.568  1.00  0.00     0.003 A 
HETATM   22  C   UNL     1      30.318  42.690  53.253  1.00  0.00     0.002 A 
HETATM   23  C   UNL     1      29.233  43.243  52.565  1.00  0.00     0.033 A 
ENDBRANCH  14  17
ENDBRANCH   9  13
BRANCH   4  24
HETATM   24  C   UNL     1      22.392  48.636  48.547  1.00  0.00     0.060 A 
HETATM   25  C   UNL     1      23.251  49.708  48.277  1.00  0.00     0.031 A 
HETATM   26  C   UNL     1      22.735  51.000  48.121  1.00  0.00     0.002 A 
HETATM   27  C   UNL     1      21.366  51.229  48.243  1.00  0.00     0.000 A 
HETATM   28  C   UNL     1      20.507  50.172  48.536  1.00  0.00     0.002 A 
HETATM   29  C   UNL     1      21.017  48.882  48.698  1.00  0.00     0.031 A 
ENDBRANCH   4  24
TORSDOF 3
ENDMDL
MODEL 5
REMARK VINA RESULT:      -9.3      4.626      9.341
REMARK  3 active torsions:
REMARK  status: ('A' for Active; 'I' for Inactive)
REMARK    1  A    between atoms: N_4  and  C_5 
REMARK    2  A    between atoms: C_15  and  C_16 
REMARK       I    between atoms: C_16  and  N_17 
REMARK    3  A    between atoms: N_17  and  C_18 
ROOT
HETATM    1  C   UNL     1      27.459  48.794  49.362  1.00  0.00     0.073 C 
HETATM    2  C   UNL     1      26.714  47.515  49.462  1.00  0.00     0.069 A 
HETATM    3  N   UNL     1      27.372  46.354  49.587  1.00  0.00    -0.170 NA
HETATM    4  N   UNL     1      26.403  45.396  49.708  1.00  0.00    -0.216 N 
HETATM    5  C   UNL     1      25.151  45.959  49.515  1.00  0.00     0.145 A 
HETATM    6  C   UNL     1      25.323  47.317  49.397  1.00  0.00     0.087 A 
HETATM    7  N   UNL     1      23.938  45.367  49.393  1.00  0.00    -0.349 N 
HETATM    8  C   UNL     1      22.839  46.175  49.149  1.00  0.00     0.111 A 
HETATM    9  C   UNL     1      22.873  47.524  49.055  1.00  0.00     0.098 A 
HETATM   10  C   UNL     1      24.203  48.213  49.193  1.00  0.00     0.205 A 
HETATM   11  O   UNL     1      24.317  49.434  49.123  1.00  0.00    -0.286 OA
HETATM   12  H   UNL     1      23.805  44.369  49.237  1.00  0.00     0.167 HD
ENDROOT
BRANCH   9  13
HETATM   13  C   UNL     1      21.586  48.246  48.792  1.00  0.00     0.261 C 
HETATM   14  N   UNL     1      21.433  49.412  49.511  1.00  0.00    -0.320 N 
HETATM   15  H   UNL     1      22.151  49.608  50.208  1.00  0.00     0.169 HD
HETATM   16  O   UNL     1      20.774  47.759  48.013  1.00  0.00    -0.267 OA
BRANCH  14  17
HETATM   17  C   UNL     1      20.380  50.354  49.464  1.00  0.00     0.073 A 
HETATM   18  C   UNL     1      19.247  50.379  50.286  1.00  0.00     0.143 A 
HETATM   19  F   UNL     1      19.007  49.438  51.206  1.00  0.00    -0.204 F 
HETATM   20  C   UNL     1      18.272  51.370  50.140  1.00  0.00     0.044 A 
HETATM   21  C   UNL     1      18.406  52.349  49.159  1.00  0.00     0.003 A 
HETATM   22  C   UNL     1      19.514  52.332  48.319  1.00  0.00     0.002 A 
HETATM   23  C   UNL     1      20.489  51.340  48.468  1.00  0.00     0.033 A 
ENDBRANCH  14  17
ENDBRANCH   9  13
BRANCH   4  24
HETATM   24  C   UNL     1      26.769  44.052  50.006  1.00  0.00     0.060 A 
HETATM   25  C   UNL     1      26.551  43.008  49.098  1.00  0.00     0.031 A 
HETATM   26  C   UNL     1      26.928  41.701  49.427  1.00  0.00     0.002 A 
HETATM   27  C   UNL     1      27.515  41.428  50.662  1.00  0.00     0.000 A 
HETATM   28  C   UNL     1      27.712  42.456  51.580  1.00  0.00     0.002 A 
HETATM   29  C   UNL     1      27.333  43.762  51.260  1.00  0.00     0.031 A 
ENDBRANCH   4  24
TORSDOF 3
ENDMDL
MODEL 6
REMARK VINA RESULT:      -9.1      2.400      3.161
REMARK  3 active torsions:
REMARK  status: ('A' for Active; 'I' for Inactive)
REMARK    1  A    between atoms: N_4  and  C_5 
REMARK    2  A    between atoms: C_15  and  C_16 
REMARK       I    between atoms: C_16  and  N_17 
REMARK    3  A    between atoms: N_17  and  C_18 
ROOT
HETATM    1  C   UNL     1      21.702  44.343  47.415  1.00  0.00     0.073 C 
HETATM    2  C   UNL     1      22.088  45.617  48.069  1.00  0.00     0.069 A 
HETATM    3  N   UNL     1      21.336  46.715  47.915  1.00  0.00    -0.170 NA
HETATM    4  N   UNL     1      21.933  47.679  48.682  1.00  0.00    -0.216 N 
HETATM    5  C   UNL     1      23.132  47.204  49.192  1.00  0.00     0.145 A 
HETATM    6  C   UNL     1      23.231  45.877  48.847  1.00  0.00     0.087 A 
HETATM    7  N   UNL     1      24.112  47.855  49.864  1.00  0.00    -0.349 N 
HETATM    8  C   UNL     1      25.246  47.141  50.218  1.00  0.00     0.111 A 
HETATM    9  C   UNL     1      25.443  45.826  49.974  1.00  0.00     0.098 A 
HETATM   10  C   UNL     1      24.370  45.071  49.236  1.00  0.00     0.205 A 
HETATM   11  O   UNL     1      24.472  43.875  48.978  1.00  0.00    -0.286 OA
HETATM   12  H   UNL     1      24.182  48.870  49.925  1.00  0.00     0.167 HD
ENDROOT
BRANCH   9  13
HETATM   13  C   UNL     1      26.729  45.207  50.430  1.00  0.00     0.261 C 
HETATM   14  N   UNL     1      26.705  44.739  51.726  1.00  0.00    -0.320 N 
HETATM   15  H   UNL     1      25.864  44.948  52.264  1.00  0.00     0.169 HD
HETATM   16  O   UNL     1      27.688  45.187  49.666  1.00  0.00    -0.267 OA
BRANCH  14  17
HETATM   17  C   UNL     1      27.715  44.059  52.445  1.00  0.00     0.073 A 
HETATM   18  C   UNL     1      28.374  42.889  52.051  1.00  0.00     0.143 A 
HETATM   19  F   UNL     1      28.062  42.233  50.927  1.00  0.00    -0.204 F 
HETATM   20  C   UNL     1      29.361  42.311  52.855  1.00  0.00     0.044 A 
HETATM   21  C   UNL     1      29.700  42.887  54.076  1.00  0.00     0.003 A 
HETATM   22  C   UNL     1      29.044  44.040  54.496  1.00  0.00     0.002 A 
HETATM   23  C   UNL     1      28.057  44.617  53.689  1.00  0.00     0.033 A 
ENDBRANCH  14  17
ENDBRANCH   9  13
BRANCH   4  24
HETATM   24  C   UNL     1      21.296  48.940  48.857  1.00  0.00     0.060 A 
HETATM   25  C   UNL     1      21.817  50.114  48.300  1.00  0.00     0.031 A 
HETATM   26  C   UNL     1      21.159  51.335  48.491  1.00  0.00     0.002 A 
HETATM   27  C   UNL     1      19.988  51.391  49.245  1.00  0.00     0.000 A 
HETATM   28  C   UNL     1      19.478  50.232  49.824  1.00  0.00     0.002 A 
HETATM   29  C   UNL     1      20.132  49.012  49.641  1.00  0.00     0.031 A 
ENDBRANCH   4  24
TORSDOF 3
ENDMDL
MODEL 7
REMARK VINA RESULT:      -9.1      3.073      8.721
REMARK  3 active torsions:
REMARK  status: ('A' for Active; 'I' for Inactive)
REMARK    1  A    between atoms: N_4  and  C_5 
REMARK    2  A    between atoms: C_15  and  C_16 
REMARK       I    between atoms: C_16  and  N_17 
REMARK    3  A    between atoms: N_17  and  C_18 
ROOT
HETATM    1  C   UNL     1      25.921  41.927  50.589  1.00  0.00     0.073 C 
HETATM    2  C   UNL     1      26.428  43.070  51.388  1.00  0.00     0.069 A 
HETATM    3  N   UNL     1      27.229  42.859  52.442  1.00  0.00    -0.170 NA
HETATM    4  N   UNL     1      27.552  44.103  52.910  1.00  0.00    -0.216 N 
HETATM    5  C   UNL     1      26.831  45.071  52.225  1.00  0.00     0.145 A 
HETATM    6  C   UNL     1      26.138  44.436  51.222  1.00  0.00     0.087 A 
HETATM    7  N   UNL     1      26.719  46.401  52.456  1.00  0.00    -0.349 N 
HETATM    8  C   UNL     1      25.878  47.138  51.638  1.00  0.00     0.111 A 
HETATM    9  C   UNL     1      25.177  46.637  50.595  1.00  0.00     0.098 A 
HETATM   10  C   UNL     1      25.286  45.164  50.306  1.00  0.00     0.205 A 
HETATM   11  O   UNL     1      24.683  44.635  49.375  1.00  0.00    -0.286 OA
HETATM   12  H   UNL     1      27.019  46.856  53.317  1.00  0.00     0.167 HD
ENDROOT
BRANCH   9  13
HETATM   13  C   UNL     1      24.315  47.577  49.807  1.00  0.00     0.261 C 
HETATM   14  N   UNL     1      23.107  47.043  49.413  1.00  0.00    -0.320 N 
HETATM   15  H   UNL     1      22.969  46.051  49.609  1.00  0.00     0.169 HD
HETATM   16  O   UNL     1      24.734  48.699  49.547  1.00  0.00    -0.267 OA
BRANCH  14  17
HETATM   17  C   UNL     1      22.045  47.663  48.715  1.00  0.00     0.073 A 
HETATM   18  C   UNL     1      21.479  48.911  48.998  1.00  0.00     0.143 A 
HETATM   19  F   UNL     1      21.865  49.655  50.041  1.00  0.00    -0.204 F 
HETATM   20  C   UNL     1      20.428  49.417  48.227  1.00  0.00     0.044 A 
HETATM   21  C   UNL     1      19.915  48.678  47.165  1.00  0.00     0.003 A 
HETATM   22  C   UNL     1      20.450  47.426  46.879  1.00  0.00     0.002 A 
HETATM   23  C   UNL     1      21.503  46.923  47.650  1.00  0.00     0.033 A 
ENDBRANCH  14  17
ENDBRANCH   9  13
BRANCH   4  24
HETATM   24  C   UNL     1      28.517  44.242  53.948  1.00  0.00     0.060 A 
HETATM   25  C   UNL     1      29.562  43.323  54.111  1.00  0.00     0.031 A 
HETATM   26  C   UNL     1      30.494  43.497  55.141  1.00  0.00     0.002 A 
HETATM   27  C   UNL     1      30.383  44.577  56.015  1.00  0.00     0.000 A 
HETATM   28  C   UNL     1      29.332  45.480  55.875  1.00  0.00     0.002 A 
HETATM   29  C   UNL     1      28.396  45.310  54.852  1.00  0.00     0.031 A 
ENDBRANCH   4  24
TORSDOF 3
ENDMDL
MODEL 8
REMARK VINA RESULT:      -9.0      4.813      6.368
REMARK  3 active torsions:
REMARK  status: ('A' for Active; 'I' for Inactive)
REMARK    1  A    between atoms: N_4  and  C_5 
REMARK    2  A    between atoms: C_15  and  C_16 
REMARK       I    between atoms: C_16  and  N_17 
REMARK    3  A    between atoms: N_17  and  C_18 
ROOT
HETATM    1  C   UNL     1      29.667  38.134  50.206  1.00  0.00     0.073 C 
HETATM    2  C   UNL     1      28.861  39.249  49.648  1.00  0.00     0.069 A 
HETATM    3  N   UNL     1      28.553  39.277  48.345  1.00  0.00    -0.170 NA
HETATM    4  N   UNL     1      27.771  40.387  48.178  1.00  0.00    -0.216 N 
HETATM    5  C   UNL     1      27.720  41.114  49.358  1.00  0.00     0.145 A 
HETATM    6  C   UNL     1      28.375  40.384  50.320  1.00  0.00     0.087 A 
HETATM    7  N   UNL     1      27.200  42.340  49.605  1.00  0.00    -0.349 N 
HETATM    8  C   UNL     1      27.333  42.862  50.882  1.00  0.00     0.111 A 
HETATM    9  C   UNL     1      27.918  42.225  51.922  1.00  0.00     0.098 A 
HETATM   10  C   UNL     1      28.500  40.858  51.683  1.00  0.00     0.205 A 
HETATM   11  O   UNL     1      29.044  40.215  52.577  1.00  0.00    -0.286 OA
HETATM   12  H   UNL     1      26.926  42.999  48.877  1.00  0.00     0.167 HD
ENDROOT
BRANCH   9  13
HETATM   13  C   UNL     1      27.975  42.933  53.242  1.00  0.00     0.261 C 
HETATM   14  N   UNL     1      29.250  43.236  53.668  1.00  0.00    -0.320 N 
HETATM   15  H   UNL     1      30.013  42.867  53.102  1.00  0.00     0.169 HD
HETATM   16  O   UNL     1      26.932  43.158  53.846  1.00  0.00    -0.267 OA
BRANCH  14  17
HETATM   17  C   UNL     1      29.657  43.941  54.825  1.00  0.00     0.073 A 
HETATM   18  C   UNL     1      29.194  45.193  55.244  1.00  0.00     0.143 A 
HETATM   19  F   UNL     1      28.318  45.911  54.530  1.00  0.00    -0.204 F 
HETATM   20  C   UNL     1      29.677  45.786  56.413  1.00  0.00     0.044 A 
HETATM   21  C   UNL     1      30.643  45.143  57.181  1.00  0.00     0.003 A 
HETATM   22  C   UNL     1      31.132  43.906  56.773  1.00  0.00     0.002 A 
HETATM   23  C   UNL     1      30.646  43.314  55.603  1.00  0.00     0.033 A 
ENDBRANCH  14  17
ENDBRANCH   9  13
BRANCH   4  24
HETATM   24  C   UNL     1      27.146  40.632  46.922  1.00  0.00     0.060 A 
HETATM   25  C   UNL     1      25.754  40.617  46.774  1.00  0.00     0.031 A 
HETATM   26  C   UNL     1      25.178  40.867  45.523  1.00  0.00     0.002 A 
HETATM   27  C   UNL     1      25.985  41.122  44.416  1.00  0.00     0.000 A 
HETATM   28  C   UNL     1      27.371  41.113  44.549  1.00  0.00     0.002 A 
HETATM   29  C   UNL     1      27.952  40.860  45.794  1.00  0.00     0.031 A 
ENDBRANCH   4  24
TORSDOF 3
ENDMDL
MODEL 9
REMARK VINA RESULT:      -8.8      2.959      8.518
REMARK  3 active torsions:
REMARK  status: ('A' for Active; 'I' for Inactive)
REMARK    1  A    between atoms: N_4  and  C_5 
REMARK    2  A    between atoms: C_15  and  C_16 
REMARK       I    between atoms: C_16  and  N_17 
REMARK    3  A    between atoms: N_17  and  C_18 
ROOT
HETATM    1  C   UNL     1      26.936  41.470  49.570  1.00  0.00     0.073 C 
HETATM    2  C   UNL     1      27.082  42.557  50.569  1.00  0.00     0.069 A 
HETATM    3  N   UNL     1      27.868  42.391  51.642  1.00  0.00    -0.170 NA
HETATM    4  N   UNL     1      27.823  43.582  52.315  1.00  0.00    -0.216 N 
HETATM    5  C   UNL     1      26.896  44.427  51.725  1.00  0.00     0.145 A 
HETATM    6  C   UNL     1      26.441  43.808  50.585  1.00  0.00     0.087 A 
HETATM    7  N   UNL     1      26.418  45.625  52.141  1.00  0.00    -0.349 N 
HETATM    8  C   UNL     1      25.442  46.241  51.374  1.00  0.00     0.111 A 
HETATM    9  C   UNL     1      24.945  45.755  50.214  1.00  0.00     0.098 A 
HETATM   10  C   UNL     1      25.460  44.430  49.720  1.00  0.00     0.205 A 
HETATM   11  O   UNL     1      25.061  43.923  48.675  1.00  0.00    -0.286 OA
HETATM   12  H   UNL     1      26.550  45.994  53.082  1.00  0.00     0.167 HD
ENDROOT
BRANCH   9  13
HETATM   13  C   UNL     1      23.893  46.554  49.507  1.00  0.00     0.261 C 
HETATM   14  N   UNL     1      24.038  47.919  49.632  1.00  0.00    -0.320 N 
HETATM   15  H   UNL     1      24.773  48.237  50.262  1.00  0.00     0.169 HD
HETATM   16  O   UNL     1      22.993  45.968  48.916  1.00  0.00    -0.267 OA
BRANCH  14  17
HETATM   17  C   UNL     1      23.264  48.952  49.053  1.00  0.00     0.073 A 
HETATM   18  C   UNL     1      23.697  49.884  48.103  1.00  0.00     0.143 A 
HETATM   19  F   UNL     1      24.961  49.930  47.665  1.00  0.00    -0.204 F 
HETATM   20  C   UNL     1      22.830  50.861  47.605  1.00  0.00     0.044 A 
HETATM   21  C   UNL     1      21.516  50.933  48.058  1.00  0.00     0.003 A 
HETATM   22  C   UNL     1      21.071  50.029  49.017  1.00  0.00     0.002 A 
HETATM   23  C   UNL     1      21.939  49.050  49.512  1.00  0.00     0.033 A 
ENDBRANCH  14  17
ENDBRANCH   9  13
BRANCH   4  24
HETATM   24  C   UNL     1      28.674  43.794  53.438  1.00  0.00     0.060 A 
HETATM   25  C   UNL     1      28.419  44.801  54.378  1.00  0.00     0.031 A 
HETATM   26  C   UNL     1      29.277  44.974  55.470  1.00  0.00     0.002 A 
HETATM   27  C   UNL     1      30.393  44.154  55.625  1.00  0.00     0.000 A 
HETATM   28  C   UNL     1      30.667  43.167  54.681  1.00  0.00     0.002 A 
HETATM   29  C   UNL     1      29.818  42.992  53.586  1.00  0.00     0.031 A 
ENDBRANCH   4  24
TORSDOF 3
ENDMDL
MODEL 10
REMARK VINA RESULT:      -8.7      3.125      8.728
REMARK  3 active torsions:
REMARK  status: ('A' for Active; 'I' for Inactive)
REMARK    1  A    between atoms: N_4  and  C_5 
REMARK    2  A    between atoms: C_15  and  C_16 
REMARK       I    between atoms: C_16  and  N_17 
REMARK    3  A    between atoms: N_17  and  C_18 
ROOT
HETATM    1  C   UNL     1      28.145  40.545  50.702  1.00  0.00     0.073 C 
HETATM    2  C   UNL     1      27.932  41.723  51.578  1.00  0.00     0.069 A 
HETATM    3  N   UNL     1      28.729  41.938  52.633  1.00  0.00    -0.170 NA
HETATM    4  N   UNL     1      28.301  43.116  53.181  1.00  0.00    -0.216 N 
HETATM    5  C   UNL     1      27.150  43.548  52.540  1.00  0.00     0.145 A 
HETATM    6  C   UNL     1      26.919  42.695  51.487  1.00  0.00     0.087 A 
HETATM    7  N   UNL     1      26.310  44.566  52.848  1.00  0.00    -0.349 N 
HETATM    8  C   UNL     1      25.186  44.747  52.057  1.00  0.00     0.111 A 
HETATM    9  C   UNL     1      24.873  44.003  50.972  1.00  0.00     0.098 A 
HETATM   10  C   UNL     1      25.789  42.869  50.598  1.00  0.00     0.205 A 
HETATM   11  O   UNL     1      25.575  42.150  49.626  1.00  0.00    -0.286 OA
HETATM   12  H   UNL     1      26.316  45.058  53.740  1.00  0.00     0.167 HD
ENDROOT
BRANCH   9  13
HETATM   13  C   UNL     1      23.618  44.338  50.224  1.00  0.00     0.261 C 
HETATM   14  N   UNL     1      23.766  45.341  49.289  1.00  0.00    -0.320 N 
HETATM   15  H   UNL     1      24.671  45.811  49.273  1.00  0.00     0.169 HD
HETATM   16  O   UNL     1      22.580  43.749  50.502  1.00  0.00    -0.267 OA
BRANCH  14  17
HETATM   17  C   UNL     1      22.812  45.859  48.383  1.00  0.00     0.073 A 
HETATM   18  C   UNL     1      22.204  47.118  48.443  1.00  0.00     0.143 A 
HETATM   19  F   UNL     1      22.433  47.980  49.442  1.00  0.00    -0.204 F 
HETATM   20  C   UNL     1      21.272  47.515  47.480  1.00  0.00     0.044 A 
HETATM   21  C   UNL     1      20.920  46.655  46.444  1.00  0.00     0.003 A 
HETATM   22  C   UNL     1      21.497  45.391  46.377  1.00  0.00     0.002 A 
HETATM   23  C   UNL     1      22.431  44.996  47.341  1.00  0.00     0.033 A 
ENDBRANCH  14  17
ENDBRANCH   9  13
BRANCH   4  24
HETATM   24  C   UNL     1      29.038  43.712  54.245  1.00  0.00     0.060 A 
HETATM   25  C   UNL     1      28.666  44.941  54.803  1.00  0.00     0.031 A 
HETATM   26  C   UNL     1      29.413  45.491  55.850  1.00  0.00     0.002 A 
HETATM   27  C   UNL     1      30.536  44.826  56.338  1.00  0.00     0.000 A 
HETATM   28  C   UNL     1      30.928  43.615  55.771  1.00  0.00     0.002 A 
HETATM   29  C   UNL     1      30.189  43.063  54.722  1.00  0.00     0.031 A 
ENDBRANCH   4  24
TORSDOF 3
ENDMDL
