MODEL 1
REMARK VINA RESULT:      -9.7      0.000      0.000
REMARK  7 active torsions:
REMARK  status: ('A' for Active; 'I' for Inactive)
REMARK    1  A    between atoms: C_7  and  C_8 
REMARK       I    between atoms: C_8  and  N_9 
REMARK    2  A    between atoms: N_9  and  C_10 
REMARK    3  A    between atoms: C_10  and  C_11 
REMARK    4  A    between atoms: C_11  and  O_12 
REMARK    5  A    between atoms: C_11  and  C_13 
REMARK    6  A    between atoms: C_15  and  O_16 
REMARK    7  A    between atoms: O_16  and  C_17 
ROOT
HETATM    1  C   UNL     1      25.162  46.195  51.360  1.00  0.00     0.253 C 
HETATM    2  N   UNL     1      26.064  46.241  52.395  1.00  0.00    -0.354 N 
HETATM    3  O   UNL     1      24.370  45.274  51.200  1.00  0.00    -0.268 OA
HETATM    4  H   UNL     1      26.784  46.950  52.426  1.00  0.00     0.162 HD
ENDROOT
BRANCH   2   5
HETATM    5  C   UNL     1      26.070  45.215  53.433  1.00  0.00     0.159 C 
BRANCH   5   6
HETATM    6  C   UNL     1      27.012  44.038  53.111  1.00  0.00     0.169 C 
BRANCH   6   7
HETATM    7  O   UNL     1      27.389  44.102  51.729  1.00  0.00    -0.389 OA
HETATM    8  H   UNL     1      27.281  45.034  51.474  1.00  0.00     0.210 HD
ENDBRANCH   6   7
BRANCH   6   9
HETATM    9  C   UNL     1      28.249  44.073  53.985  1.00  0.00    -0.025 A 
HETATM   10  C   UNL     1      28.523  45.159  54.835  1.00  0.00     0.046 A 
HETATM   11  C   UNL     1      29.660  45.161  55.647  1.00  0.00     0.075 A 
HETATM   12  C   UNL     1      30.510  44.054  55.638  1.00  0.00     0.037 A 
HETATM   13  C   UNL     1      30.248  42.965  54.808  1.00  0.00     0.003 A 
HETATM   14  C   UNL     1      29.125  42.976  53.983  1.00  0.00     0.010 A 
BRANCH  11  15
HETATM   15  O   UNL     1      30.029  46.162  56.502  1.00  0.00    -0.290 OA
BRANCH  15  16
HETATM   16  C   UNL     1      29.901  45.874  57.884  1.00  0.00     0.505 C 
HETATM   17  F   UNL     1      30.802  46.617  58.576  1.00  0.00    -0.184 F 
HETATM   18  F   UNL     1      28.672  46.302  58.272  1.00  0.00    -0.184 F 
ENDBRANCH  15  16
ENDBRANCH  11  15
ENDBRANCH   6   9
ENDBRANCH   5   6
ENDBRANCH   2   5
BRANCH   1  19
HETATM   19  C   UNL     1      25.254  47.319  50.380  1.00  0.00     0.048 A 
HETATM   20  C   UNL     1      26.568  47.838  49.997  1.00  0.00     0.022 A 
HETATM   21  C   UNL     1      26.703  48.826  49.091  1.00  0.00     0.054 A 
HETATM   22  C   UNL     1      25.545  49.374  48.478  1.00  0.00     0.157 A 
HETATM   23  N   UNL     1      24.315  48.845  48.837  1.00  0.00    -0.291 N 
HETATM   24  N   UNL     1      25.374  50.324  47.587  1.00  0.00    -0.130 NA
HETATM   25  C   UNL     1      23.395  49.538  48.079  1.00  0.00     0.130 A 
HETATM   26  C   UNL     1      24.159  47.825  49.776  1.00  0.00     0.117 A 
HETATM   27  C   UNL     1      21.934  49.312  48.118  1.00  0.00     0.094 C 
HETATM   28  N   UNL     1      24.025  50.428  47.339  1.00  0.00    -0.135 NA
ENDBRANCH   1  19
TORSDOF 7
ENDMDL
MODEL 2
REMARK VINA RESULT:      -9.3      4.563      9.035
REMARK  7 active torsions:
REMARK  status: ('A' for Active; 'I' for Inactive)
REMARK    1  A    between atoms: C_7  and  C_8 
REMARK       I    between atoms: C_8  and  N_9 
REMARK    2  A    between atoms: N_9  and  C_10 
REMARK    3  A    between atoms: C_10  and  C_11 
REMARK    4  A    between atoms: C_11  and  O_12 
REMARK    5  A    between atoms: C_11  and  C_13 
REMARK    6  A    between atoms: C_15  and  O_16 
REMARK    7  A    between atoms: O_16  and  C_17 
ROOT
HETATM    1  C   UNL     1      26.593  46.715  54.283  1.00  0.00     0.253 C 
HETATM    2  N   UNL     1      26.407  46.430  52.953  1.00  0.00    -0.354 N 
HETATM    3  O   UNL     1      25.876  47.486  54.911  1.00  0.00    -0.268 OA
HETATM    4  H   UNL     1      27.089  45.890  52.437  1.00  0.00     0.162 HD
ENDROOT
BRANCH   2   5
HETATM    5  C   UNL     1      25.268  46.972  52.220  1.00  0.00     0.159 C 
BRANCH   5   6
HETATM    6  C   UNL     1      25.273  46.585  50.727  1.00  0.00     0.169 C 
BRANCH   6   7
HETATM    7  O   UNL     1      23.950  46.192  50.338  1.00  0.00    -0.389 OA
HETATM    8  H   UNL     1      23.576  46.963  49.879  1.00  0.00     0.210 HD
ENDBRANCH   6   7
BRANCH   6   9
HETATM    9  C   UNL     1      25.743  47.739  49.865  1.00  0.00    -0.025 A 
HETATM   10  C   UNL     1      24.836  48.553  49.164  1.00  0.00     0.046 A 
HETATM   11  C   UNL     1      25.291  49.623  48.389  1.00  0.00     0.075 A 
HETATM   12  C   UNL     1      26.657  49.907  48.346  1.00  0.00     0.037 A 
HETATM   13  C   UNL     1      27.568  49.114  49.043  1.00  0.00     0.003 A 
HETATM   14  C   UNL     1      27.113  48.033  49.796  1.00  0.00     0.010 A 
BRANCH  11  15
HETATM   15  O   UNL     1      24.505  50.473  47.661  1.00  0.00    -0.290 OA
BRANCH  15  16
HETATM   16  C   UNL     1      23.145  50.550  48.054  1.00  0.00     0.505 C 
HETATM   17  F   UNL     1      22.885  51.803  48.505  1.00  0.00    -0.184 F 
HETATM   18  F   UNL     1      22.393  50.380  46.936  1.00  0.00    -0.184 F 
ENDBRANCH  15  16
ENDBRANCH  11  15
ENDBRANCH   6   9
ENDBRANCH   5   6
ENDBRANCH   2   5
BRANCH   1  19
HETATM   19  C   UNL     1      27.788  46.078  54.914  1.00  0.00     0.048 A 
HETATM   20  C   UNL     1      28.242  46.539  56.227  1.00  0.00     0.022 A 
HETATM   21  C   UNL     1      29.293  45.972  56.853  1.00  0.00     0.054 A 
HETATM   22  C   UNL     1      29.973  44.891  56.233  1.00  0.00     0.157 A 
HETATM   23  N   UNL     1      29.505  44.455  55.003  1.00  0.00    -0.291 N 
HETATM   24  N   UNL     1      31.007  44.164  56.594  1.00  0.00    -0.130 NA
HETATM   25  C   UNL     1      30.326  43.400  54.664  1.00  0.00     0.130 A 
HETATM   26  C   UNL     1      28.422  45.034  54.342  1.00  0.00     0.117 A 
HETATM   27  C   UNL     1      30.202  42.606  53.422  1.00  0.00     0.094 C 
HETATM   28  N   UNL     1      31.228  43.231  55.609  1.00  0.00    -0.135 NA
ENDBRANCH   1  19
TORSDOF 7
ENDMDL
MODEL 3
REMARK VINA RESULT:      -9.2      1.329      1.819
REMARK  7 active torsions:
REMARK  status: ('A' for Active; 'I' for Inactive)
REMARK    1  A    between atoms: C_7  and  C_8 
REMARK       I    between atoms: C_8  and  N_9 
REMARK    2  A    between atoms: N_9  and  C_10 
REMARK    3  A    between atoms: C_10  and  C_11 
REMARK    4  A    between atoms: C_11  and  O_12 
REMARK    5  A    between atoms: C_11  and  C_13 
REMARK    6  A    between atoms: C_15  and  O_16 
REMARK    7  A    between atoms: O_16  and  C_17 
ROOT
HETATM    1  C   UNL     1      25.244  45.990  51.130  1.00  0.00     0.253 C 
HETATM    2  N   UNL     1      25.788  46.151  52.381  1.00  0.00    -0.354 N 
HETATM    3  O   UNL     1      24.749  44.937  50.744  1.00  0.00    -0.268 OA
HETATM    4  H   UNL     1      26.298  46.991  52.621  1.00  0.00     0.162 HD
ENDROOT
BRANCH   2   5
HETATM    5  C   UNL     1      25.727  45.081  53.371  1.00  0.00     0.159 C 
BRANCH   5   6
HETATM    6  C   UNL     1      27.024  44.250  53.440  1.00  0.00     0.169 C 
BRANCH   6   7
HETATM    7  O   UNL     1      27.655  44.255  52.152  1.00  0.00    -0.389 OA
HETATM    8  H   UNL     1      27.469  43.381  51.770  1.00  0.00     0.210 HD
ENDBRANCH   6   7
BRANCH   6   9
HETATM    9  C   UNL     1      27.974  44.804  54.482  1.00  0.00    -0.025 A 
HETATM   10  C   UNL     1      29.231  44.220  54.719  1.00  0.00     0.046 A 
HETATM   11  C   UNL     1      30.099  44.758  55.672  1.00  0.00     0.075 A 
HETATM   12  C   UNL     1      29.725  45.911  56.366  1.00  0.00     0.037 A 
HETATM   13  C   UNL     1      28.486  46.506  56.136  1.00  0.00     0.003 A 
HETATM   14  C   UNL     1      27.613  45.954  55.201  1.00  0.00     0.010 A 
BRANCH  11  15
HETATM   15  O   UNL     1      31.336  44.272  55.991  1.00  0.00    -0.290 OA
BRANCH  15  16
HETATM   16  C   UNL     1      31.391  43.404  57.111  1.00  0.00     0.505 C 
HETATM   17  F   UNL     1      32.556  42.709  57.076  1.00  0.00    -0.184 F 
HETATM   18  F   UNL     1      31.441  44.182  58.222  1.00  0.00    -0.184 F 
ENDBRANCH  15  16
ENDBRANCH  11  15
ENDBRANCH   6   9
ENDBRANCH   5   6
ENDBRANCH   2   5
BRANCH   1  19
HETATM   19  C   UNL     1      25.358  47.172  50.224  1.00  0.00     0.048 A 
HETATM   20  C   UNL     1      26.682  47.692  49.879  1.00  0.00     0.022 A 
HETATM   21  C   UNL     1      26.838  48.733  49.038  1.00  0.00     0.054 A 
HETATM   22  C   UNL     1      25.692  49.340  48.459  1.00  0.00     0.157 A 
HETATM   23  N   UNL     1      24.451  48.810  48.779  1.00  0.00    -0.291 N 
HETATM   24  N   UNL     1      25.540  50.348  47.630  1.00  0.00    -0.130 NA
HETATM   25  C   UNL     1      23.546  49.566  48.065  1.00  0.00     0.130 A 
HETATM   26  C   UNL     1      24.274  47.735  49.651  1.00  0.00     0.117 A 
HETATM   27  C   UNL     1      22.081  49.363  48.085  1.00  0.00     0.094 C 
HETATM   28  N   UNL     1      24.194  50.490  47.385  1.00  0.00    -0.135 NA
ENDBRANCH   1  19
TORSDOF 7
ENDMDL
MODEL 4
REMARK VINA RESULT:      -9.2      2.558      3.353
REMARK  7 active torsions:
REMARK  status: ('A' for Active; 'I' for Inactive)
REMARK    1  A    between atoms: C_7  and  C_8 
REMARK       I    between atoms: C_8  and  N_9 
REMARK    2  A    between atoms: N_9  and  C_10 
REMARK    3  A    between atoms: C_10  and  C_11 
REMARK    4  A    between atoms: C_11  and  O_12 
REMARK    5  A    between atoms: C_11  and  C_13 
REMARK    6  A    between atoms: C_15  and  O_16 
REMARK    7  A    between atoms: O_16  and  C_17 
ROOT
HETATM    1  C   UNL     1      25.743  46.712  51.637  1.00  0.00     0.253 C 
HETATM    2  N   UNL     1      26.232  47.228  52.812  1.00  0.00    -0.354 N 
HETATM    3  O   UNL     1      25.488  45.524  51.480  1.00  0.00    -0.268 OA
HETATM    4  H   UNL     1      26.548  48.187  52.867  1.00  0.00     0.162 HD
ENDROOT
BRANCH   2   5
HETATM    5  C   UNL     1      26.395  46.385  53.992  1.00  0.00     0.159 C 
BRANCH   5   6
HETATM    6  C   UNL     1      27.740  46.610  54.711  1.00  0.00     0.169 C 
BRANCH   6   7
HETATM    7  O   UNL     1      27.494  47.186  56.001  1.00  0.00    -0.389 OA
HETATM    8  H   UNL     1      27.309  48.126  55.833  1.00  0.00     0.210 HD
ENDBRANCH   6   7
BRANCH   6   9
HETATM    9  C   UNL     1      28.503  45.311  54.863  1.00  0.00    -0.025 A 
HETATM   10  C   UNL     1      28.103  44.137  54.199  1.00  0.00     0.046 A 
HETATM   11  C   UNL     1      28.832  42.954  54.339  1.00  0.00     0.075 A 
HETATM   12  C   UNL     1      29.992  42.952  55.116  1.00  0.00     0.037 A 
HETATM   13  C   UNL     1      30.407  44.109  55.774  1.00  0.00     0.003 A 
HETATM   14  C   UNL     1      29.664  45.282  55.651  1.00  0.00     0.010 A 
BRANCH  11  15
HETATM   15  O   UNL     1      28.534  41.757  53.750  1.00  0.00    -0.290 OA
BRANCH  15  16
HETATM   16  C   UNL     1      29.237  41.462  52.555  1.00  0.00     0.505 C 
HETATM   17  F   UNL     1      29.235  40.119  52.360  1.00  0.00    -0.184 F 
HETATM   18  F   UNL     1      28.529  42.000  51.528  1.00  0.00    -0.184 F 
ENDBRANCH  15  16
ENDBRANCH  11  15
ENDBRANCH   6   9
ENDBRANCH   5   6
ENDBRANCH   2   5
BRANCH   1  19
HETATM   19  C   UNL     1      25.607  47.689  50.515  1.00  0.00     0.048 A 
HETATM   20  C   UNL     1      26.808  48.280  49.923  1.00  0.00     0.022 A 
HETATM   21  C   UNL     1      26.739  49.138  48.887  1.00  0.00     0.054 A 
HETATM   22  C   UNL     1      25.472  49.474  48.342  1.00  0.00     0.157 A 
HETATM   23  N   UNL     1      24.352  48.878  48.902  1.00  0.00    -0.291 N 
HETATM   24  N   UNL     1      25.105  50.266  47.361  1.00  0.00    -0.130 NA
HETATM   25  C   UNL     1      23.288  49.361  48.169  1.00  0.00     0.130 A 
HETATM   26  C   UNL     1      24.408  47.991  49.978  1.00  0.00     0.117 A 
HETATM   27  C   UNL     1      21.874  48.995  48.401  1.00  0.00     0.094 C 
HETATM   28  N   UNL     1      23.736  50.196  47.254  1.00  0.00    -0.135 NA
ENDBRANCH   1  19
TORSDOF 7
ENDMDL
MODEL 5
REMARK VINA RESULT:      -9.1      4.313      9.152
REMARK  7 active torsions:
REMARK  status: ('A' for Active; 'I' for Inactive)
REMARK    1  A    between atoms: C_7  and  C_8 
REMARK       I    between atoms: C_8  and  N_9 
REMARK    2  A    between atoms: N_9  and  C_10 
REMARK    3  A    between atoms: C_10  and  C_11 
REMARK    4  A    between atoms: C_11  and  O_12 
REMARK    5  A    between atoms: C_11  and  C_13 
REMARK    6  A    between atoms: C_15  and  O_16 
REMARK    7  A    between atoms: O_16  and  C_17 
ROOT
HETATM    1  C   UNL     1      26.520  45.661  53.926  1.00  0.00     0.253 C 
HETATM    2  N   UNL     1      26.695  46.424  52.797  1.00  0.00    -0.354 N 
HETATM    3  O   UNL     1      25.452  45.578  54.520  1.00  0.00    -0.268 OA
HETATM    4  H   UNL     1      27.616  46.570  52.406  1.00  0.00     0.162 HD
ENDROOT
BRANCH   2   5
HETATM    5  C   UNL     1      25.572  47.123  52.181  1.00  0.00     0.159 C 
BRANCH   5   6
HETATM    6  C   UNL     1      25.345  46.717  50.711  1.00  0.00     0.169 C 
BRANCH   6   7
HETATM    7  O   UNL     1      23.990  46.277  50.547  1.00  0.00    -0.389 OA
HETATM    8  H   UNL     1      24.053  45.380  50.179  1.00  0.00     0.210 HD
ENDBRANCH   6   7
BRANCH   6   9
HETATM    9  C   UNL     1      25.629  47.873  49.774  1.00  0.00    -0.025 A 
HETATM   10  C   UNL     1      24.603  48.502  49.045  1.00  0.00     0.046 A 
HETATM   11  C   UNL     1      24.884  49.578  48.201  1.00  0.00     0.075 A 
HETATM   12  C   UNL     1      26.193  50.057  48.113  1.00  0.00     0.037 A 
HETATM   13  C   UNL     1      27.219  49.451  48.837  1.00  0.00     0.003 A 
HETATM   14  C   UNL     1      26.939  48.363  49.660  1.00  0.00     0.010 A 
BRANCH  11  15
HETATM   15  O   UNL     1      23.973  50.257  47.441  1.00  0.00    -0.290 OA
BRANCH  15  16
HETATM   16  C   UNL     1      22.966  50.954  48.155  1.00  0.00     0.505 C 
HETATM   17  F   UNL     1      21.940  50.105  48.416  1.00  0.00    -0.184 F 
HETATM   18  F   UNL     1      23.492  51.300  49.358  1.00  0.00    -0.184 F 
ENDBRANCH  15  16
ENDBRANCH  11  15
ENDBRANCH   6   9
ENDBRANCH   5   6
ENDBRANCH   2   5
BRANCH   1  19
HETATM   19  C   UNL     1      27.749  44.985  54.439  1.00  0.00     0.048 A 
HETATM   20  C   UNL     1      28.308  43.848  53.706  1.00  0.00     0.022 A 
HETATM   21  C   UNL     1      29.434  43.228  54.110  1.00  0.00     0.054 A 
HETATM   22  C   UNL     1      30.108  43.693  55.270  1.00  0.00     0.157 A 
HETATM   23  N   UNL     1      29.574  44.789  55.930  1.00  0.00    -0.291 N 
HETATM   24  N   UNL     1      31.196  43.292  55.889  1.00  0.00    -0.130 NA
HETATM   25  C   UNL     1      30.436  45.026  56.980  1.00  0.00     0.130 A 
HETATM   26  C   UNL     1      28.408  45.439  55.526  1.00  0.00     0.117 A 
HETATM   27  C   UNL     1      30.275  46.115  57.968  1.00  0.00     0.094 C 
HETATM   28  N   UNL     1      31.400  44.128  56.962  1.00  0.00    -0.135 NA
ENDBRANCH   1  19
TORSDOF 7
ENDMDL
MODEL 6
REMARK VINA RESULT:      -8.9      4.501      8.658
REMARK  7 active torsions:
REMARK  status: ('A' for Active; 'I' for Inactive)
REMARK    1  A    between atoms: C_7  and  C_8 
REMARK       I    between atoms: C_8  and  N_9 
REMARK    2  A    between atoms: N_9  and  C_10 
REMARK    3  A    between atoms: C_10  and  C_11 
REMARK    4  A    between atoms: C_11  and  O_12 
REMARK    5  A    between atoms: C_11  and  C_13 
REMARK    6  A    between atoms: C_15  and  O_16 
REMARK    7  A    between atoms: O_16  and  C_17 
ROOT
HETATM    1  C   UNL     1      28.557  43.511  52.968  1.00  0.00     0.253 C 
HETATM    2  N   UNL     1      27.268  43.696  52.531  1.00  0.00    -0.354 N 
HETATM    3  O   UNL     1      29.348  42.749  52.424  1.00  0.00    -0.268 OA
HETATM    4  H   UNL     1      26.608  44.234  53.074  1.00  0.00     0.162 HD
ENDROOT
BRANCH   2   5
HETATM    5  C   UNL     1      26.787  43.047  51.315  1.00  0.00     0.159 C 
BRANCH   5   6
HETATM    6  C   UNL     1      27.082  43.862  50.041  1.00  0.00     0.169 C 
BRANCH   6   7
HETATM    7  O   UNL     1      26.936  43.012  48.894  1.00  0.00    -0.389 OA
HETATM    8  H   UNL     1      27.184  42.123  49.200  1.00  0.00     0.210 HD
ENDBRANCH   6   7
BRANCH   6   9
HETATM    9  C   UNL     1      26.153  45.052  49.923  1.00  0.00    -0.025 A 
HETATM   10  C   UNL     1      26.638  46.372  49.926  1.00  0.00     0.046 A 
HETATM   11  C   UNL     1      25.764  47.454  49.798  1.00  0.00     0.075 A 
HETATM   12  C   UNL     1      24.399  47.216  49.626  1.00  0.00     0.037 A 
HETATM   13  C   UNL     1      23.903  45.913  49.612  1.00  0.00     0.003 A 
HETATM   14  C   UNL     1      24.775  44.837  49.763  1.00  0.00     0.010 A 
BRANCH  11  15
HETATM   15  O   UNL     1      26.121  48.773  49.796  1.00  0.00    -0.290 OA
BRANCH  15  16
HETATM   16  C   UNL     1      26.759  49.241  48.620  1.00  0.00     0.505 C 
HETATM   17  F   UNL     1      25.832  49.807  47.807  1.00  0.00    -0.184 F 
HETATM   18  F   UNL     1      27.604  50.238  48.990  1.00  0.00    -0.184 F 
ENDBRANCH  15  16
ENDBRANCH  11  15
ENDBRANCH   6   9
ENDBRANCH   5   6
ENDBRANCH   2   5
BRANCH   1  19
HETATM   19  C   UNL     1      28.924  44.250  54.212  1.00  0.00     0.048 A 
HETATM   20  C   UNL     1      28.165  45.441  54.596  1.00  0.00     0.022 A 
HETATM   21  C   UNL     1      28.435  46.121  55.727  1.00  0.00     0.054 A 
HETATM   22  C   UNL     1      29.475  45.669  56.581  1.00  0.00     0.157 A 
HETATM   23  N   UNL     1      30.160  44.521  56.210  1.00  0.00    -0.291 N 
HETATM   24  N   UNL     1      29.955  46.121  57.718  1.00  0.00    -0.130 NA
HETATM   25  C   UNL     1      31.075  44.311  57.221  1.00  0.00     0.130 A 
HETATM   26  C   UNL     1      29.894  43.810  55.040  1.00  0.00     0.117 A 
HETATM   27  C   UNL     1      32.035  43.186  57.263  1.00  0.00     0.094 C 
HETATM   28  N   UNL     1      30.959  45.270  58.117  1.00  0.00    -0.135 NA
ENDBRANCH   1  19
TORSDOF 7
ENDMDL
MODEL 7
REMARK VINA RESULT:      -8.4      4.444      9.267
REMARK  7 active torsions:
REMARK  status: ('A' for Active; 'I' for Inactive)
REMARK    1  A    between atoms: C_7  and  C_8 
REMARK       I    between atoms: C_8  and  N_9 
REMARK    2  A    between atoms: N_9  and  C_10 
REMARK    3  A    between atoms: C_10  and  C_11 
REMARK    4  A    between atoms: C_11  and  O_12 
REMARK    5  A    between atoms: C_11  and  C_13 
REMARK    6  A    between atoms: C_15  and  O_16 
REMARK    7  A    between atoms: O_16  and  C_17 
ROOT
HETATM    1  C   UNL     1      27.311  45.749  54.022  1.00  0.00     0.253 C 
HETATM    2  N   UNL     1      26.628  45.048  53.059  1.00  0.00    -0.354 N 
HETATM    3  O   UNL     1      27.061  46.913  54.310  1.00  0.00    -0.268 OA
HETATM    4  H   UNL     1      26.941  44.134  52.761  1.00  0.00     0.162 HD
ENDROOT
BRANCH   2   5
HETATM    5  C   UNL     1      25.483  45.637  52.372  1.00  0.00     0.159 C 
BRANCH   5   6
HETATM    6  C   UNL     1      25.413  45.252  50.880  1.00  0.00     0.169 C 
BRANCH   6   7
HETATM    7  O   UNL     1      24.924  43.909  50.763  1.00  0.00    -0.389 OA
HETATM    8  H   UNL     1      23.957  43.990  50.713  1.00  0.00     0.210 HD
ENDBRANCH   6   7
BRANCH   6   9
HETATM    9  C   UNL     1      24.514  46.197  50.113  1.00  0.00    -0.025 A 
HETATM   10  C   UNL     1      24.675  47.593  50.186  1.00  0.00     0.046 A 
HETATM   11  C   UNL     1      23.845  48.446  49.454  1.00  0.00     0.075 A 
HETATM   12  C   UNL     1      22.873  47.902  48.613  1.00  0.00     0.037 A 
HETATM   13  C   UNL     1      22.706  46.521  48.523  1.00  0.00     0.003 A 
HETATM   14  C   UNL     1      23.521  45.673  49.271  1.00  0.00     0.010 A 
BRANCH  11  15
HETATM   15  O   UNL     1      23.904  49.812  49.454  1.00  0.00    -0.290 OA
BRANCH  15  16
HETATM   16  C   UNL     1      22.698  50.485  49.137  1.00  0.00     0.505 C 
HETATM   17  F   UNL     1      22.101  50.891  50.285  1.00  0.00    -0.184 F 
HETATM   18  F   UNL     1      23.032  51.613  48.458  1.00  0.00    -0.184 F 
ENDBRANCH  15  16
ENDBRANCH  11  15
ENDBRANCH   6   9
ENDBRANCH   5   6
ENDBRANCH   2   5
BRANCH   1  19
HETATM   19  C   UNL     1      28.448  45.019  54.660  1.00  0.00     0.048 A 
HETATM   20  C   UNL     1      29.060  43.886  53.965  1.00  0.00     0.022 A 
HETATM   21  C   UNL     1      30.110  43.219  54.483  1.00  0.00     0.054 A 
HETATM   22  C   UNL     1      30.650  43.629  55.730  1.00  0.00     0.157 A 
HETATM   23  N   UNL     1      30.072  44.724  56.354  1.00  0.00    -0.291 N 
HETATM   24  N   UNL     1      31.643  43.178  56.463  1.00  0.00    -0.130 NA
HETATM   25  C   UNL     1      30.805  44.904  57.508  1.00  0.00     0.130 A 
HETATM   26  C   UNL     1      28.982  45.421  55.832  1.00  0.00     0.117 A 
HETATM   27  C   UNL     1      30.556  45.970  58.503  1.00  0.00     0.094 C 
HETATM   28  N   UNL     1      31.738  43.976  57.579  1.00  0.00    -0.135 NA
ENDBRANCH   1  19
TORSDOF 7
ENDMDL
MODEL 8
REMARK VINA RESULT:      -8.3      1.788      2.431
REMARK  7 active torsions:
REMARK  status: ('A' for Active; 'I' for Inactive)
REMARK    1  A    between atoms: C_7  and  C_8 
REMARK       I    between atoms: C_8  and  N_9 
REMARK    2  A    between atoms: N_9  and  C_10 
REMARK    3  A    between atoms: C_10  and  C_11 
REMARK    4  A    between atoms: C_11  and  O_12 
REMARK    5  A    between atoms: C_11  and  C_13 
REMARK    6  A    between atoms: C_15  and  O_16 
REMARK    7  A    between atoms: O_16  and  C_17 
ROOT
HETATM    1  C   UNL     1      25.084  45.709  49.947  1.00  0.00     0.253 C 
HETATM    2  N   UNL     1      24.912  45.225  51.220  1.00  0.00    -0.354 N 
HETATM    3  O   UNL     1      26.144  45.630  49.336  1.00  0.00    -0.268 OA
HETATM    4  H   UNL     1      24.067  45.417  51.740  1.00  0.00     0.162 HD
ENDROOT
BRANCH   2   5
HETATM    5  C   UNL     1      25.980  44.495  51.897  1.00  0.00     0.159 C 
BRANCH   5   6
HETATM    6  C   UNL     1      25.943  44.660  53.430  1.00  0.00     0.169 C 
BRANCH   6   7
HETATM    7  O   UNL     1      25.021  43.710  53.983  1.00  0.00    -0.389 OA
HETATM    8  H   UNL     1      25.550  42.917  54.173  1.00  0.00     0.210 HD
ENDBRANCH   6   7
BRANCH   6   9
HETATM    9  C   UNL     1      27.316  44.458  54.035  1.00  0.00    -0.025 A 
HETATM   10  C   UNL     1      27.908  45.428  54.864  1.00  0.00     0.046 A 
HETATM   11  C   UNL     1      29.168  45.214  55.427  1.00  0.00     0.075 A 
HETATM   12  C   UNL     1      29.826  44.004  55.193  1.00  0.00     0.037 A 
HETATM   13  C   UNL     1      29.249  43.028  54.382  1.00  0.00     0.003 A 
HETATM   14  C   UNL     1      28.002  43.255  53.803  1.00  0.00     0.010 A 
BRANCH  11  15
HETATM   15  O   UNL     1      29.841  46.086  56.236  1.00  0.00    -0.290 OA
BRANCH  15  16
HETATM   16  C   UNL     1      29.691  45.879  57.631  1.00  0.00     0.505 C 
HETATM   17  F   UNL     1      30.674  46.546  58.286  1.00  0.00    -0.184 F 
HETATM   18  F   UNL     1      28.520  46.460  58.000  1.00  0.00    -0.184 F 
ENDBRANCH  15  16
ENDBRANCH  11  15
ENDBRANCH   6   9
ENDBRANCH   5   6
ENDBRANCH   2   5
BRANCH   1  19
HETATM   19  C   UNL     1      23.904  46.417  49.366  1.00  0.00     0.048 A 
HETATM   20  C   UNL     1      22.777  45.639  48.849  1.00  0.00     0.022 A 
HETATM   21  C   UNL     1      21.677  46.233  48.348  1.00  0.00     0.054 A 
HETATM   22  C   UNL     1      21.596  47.650  48.329  1.00  0.00     0.157 A 
HETATM   23  N   UNL     1      22.664  48.364  48.850  1.00  0.00    -0.291 N 
HETATM   24  N   UNL     1      20.673  48.485  47.907  1.00  0.00    -0.130 NA
HETATM   25  C   UNL     1      22.302  49.688  48.725  1.00  0.00     0.130 A 
HETATM   26  C   UNL     1      23.812  47.763  49.369  1.00  0.00     0.117 A 
HETATM   27  C   UNL     1      23.136  50.831  49.158  1.00  0.00     0.094 C 
HETATM   28  N   UNL     1      21.117  49.762  48.154  1.00  0.00    -0.135 NA
ENDBRANCH   1  19
TORSDOF 7
ENDMDL
MODEL 9
REMARK VINA RESULT:      -8.2      4.533      7.232
REMARK  7 active torsions:
REMARK  status: ('A' for Active; 'I' for Inactive)
REMARK    1  A    between atoms: C_7  and  C_8 
REMARK       I    between atoms: C_8  and  N_9 
REMARK    2  A    between atoms: N_9  and  C_10 
REMARK    3  A    between atoms: C_10  and  C_11 
REMARK    4  A    between atoms: C_11  and  O_12 
REMARK    5  A    between atoms: C_11  and  C_13 
REMARK    6  A    between atoms: C_15  and  O_16 
REMARK    7  A    between atoms: O_16  and  C_17 
ROOT
HETATM    1  C   UNL     1      26.262  42.452  51.115  1.00  0.00     0.253 C 
HETATM    2  N   UNL     1      26.214  43.193  52.270  1.00  0.00    -0.354 N 
HETATM    3  O   UNL     1      25.490  42.618  50.178  1.00  0.00    -0.268 OA
HETATM    4  H   UNL     1      26.782  42.948  53.069  1.00  0.00     0.162 HD
ENDROOT
BRANCH   2   5
HETATM    5  C   UNL     1      25.277  44.304  52.412  1.00  0.00     0.159 C 
BRANCH   5   6
HETATM    6  C   UNL     1      25.145  44.797  53.866  1.00  0.00     0.169 C 
BRANCH   6   7
HETATM    7  O   UNL     1      24.822  43.685  54.713  1.00  0.00    -0.389 OA
HETATM    8  H   UNL     1      24.728  44.059  55.605  1.00  0.00     0.210 HD
ENDBRANCH   6   7
BRANCH   6   9
HETATM    9  C   UNL     1      26.425  45.452  54.341  1.00  0.00    -0.025 A 
HETATM   10  C   UNL     1      27.534  44.692  54.755  1.00  0.00     0.046 A 
HETATM   11  C   UNL     1      28.712  45.317  55.171  1.00  0.00     0.075 A 
HETATM   12  C   UNL     1      28.797  46.711  55.138  1.00  0.00     0.037 A 
HETATM   13  C   UNL     1      27.709  47.478  54.722  1.00  0.00     0.003 A 
HETATM   14  C   UNL     1      26.528  46.851  54.328  1.00  0.00     0.010 A 
BRANCH  11  15
HETATM   15  O   UNL     1      29.844  44.684  55.600  1.00  0.00    -0.290 OA
BRANCH  15  16
HETATM   16  C   UNL     1      30.061  43.383  55.081  1.00  0.00     0.505 C 
HETATM   17  F   UNL     1      30.354  43.476  53.759  1.00  0.00    -0.184 F 
HETATM   18  F   UNL     1      31.172  42.888  55.686  1.00  0.00    -0.184 F 
ENDBRANCH  15  16
ENDBRANCH  11  15
ENDBRANCH   6   9
ENDBRANCH   5   6
ENDBRANCH   2   5
BRANCH   1  19
HETATM   19  C   UNL     1      27.281  41.360  51.096  1.00  0.00     0.048 A 
HETATM   20  C   UNL     1      28.139  41.153  52.263  1.00  0.00     0.022 A 
HETATM   21  C   UNL     1      29.048  40.160  52.308  1.00  0.00     0.054 A 
HETATM   22  C   UNL     1      29.174  39.278  51.202  1.00  0.00     0.157 A 
HETATM   23  N   UNL     1      28.329  39.477  50.121  1.00  0.00    -0.291 N 
HETATM   24  N   UNL     1      29.956  38.249  50.966  1.00  0.00    -0.130 NA
HETATM   25  C   UNL     1      28.652  38.478  49.228  1.00  0.00     0.130 A 
HETATM   26  C   UNL     1      27.386  40.504  50.059  1.00  0.00     0.117 A 
HETATM   27  C   UNL     1      28.001  38.283  47.914  1.00  0.00     0.094 C 
HETATM   28  N   UNL     1      29.630  37.749  49.727  1.00  0.00    -0.135 NA
ENDBRANCH   1  19
TORSDOF 7
ENDMDL
MODEL 10
REMARK VINA RESULT:      -8.0      2.737      3.898
REMARK  7 active torsions:
REMARK  status: ('A' for Active; 'I' for Inactive)
REMARK    1  A    between atoms: C_7  and  C_8 
REMARK       I    between atoms: C_8  and  N_9 
REMARK    2  A    between atoms: N_9  and  C_10 
REMARK    3  A    between atoms: C_10  and  C_11 
REMARK    4  A    between atoms: C_11  and  O_12 
REMARK    5  A    between atoms: C_11  and  C_13 
REMARK    6  A    between atoms: C_15  and  O_16 
REMARK    7  A    between atoms: O_16  and  C_17 
ROOT
HETATM    1  C   UNL     1      24.487  48.154  49.688  1.00  0.00     0.253 C 
HETATM    2  N   UNL     1      24.222  47.167  50.605  1.00  0.00    -0.354 N 
HETATM    3  O   UNL     1      25.618  48.427  49.303  1.00  0.00    -0.268 OA
HETATM    4  H   UNL     1      23.295  47.053  50.993  1.00  0.00     0.162 HD
ENDROOT
BRANCH   2   5
HETATM    5  C   UNL     1      25.287  46.310  51.116  1.00  0.00     0.159 C 
BRANCH   5   6
HETATM    6  C   UNL     1      25.007  45.788  52.540  1.00  0.00     0.169 C 
BRANCH   6   7
HETATM    7  O   UNL     1      24.720  44.384  52.477  1.00  0.00    -0.389 OA
HETATM    8  H   UNL     1      24.216  44.260  51.655  1.00  0.00     0.210 HD
ENDBRANCH   6   7
BRANCH   6   9
HETATM    9  C   UNL     1      26.190  46.032  53.454  1.00  0.00    -0.025 A 
HETATM   10  C   UNL     1      27.162  45.042  53.685  1.00  0.00     0.046 A 
HETATM   11  C   UNL     1      28.254  45.295  54.517  1.00  0.00     0.075 A 
HETATM   12  C   UNL     1      28.399  46.559  55.094  1.00  0.00     0.037 A 
HETATM   13  C   UNL     1      27.448  47.554  54.868  1.00  0.00     0.003 A 
HETATM   14  C   UNL     1      26.347  47.290  54.055  1.00  0.00     0.010 A 
BRANCH  11  15
HETATM   15  O   UNL     1      29.251  44.410  54.819  1.00  0.00    -0.290 OA
BRANCH  15  16
HETATM   16  C   UNL     1      29.431  43.343  53.903  1.00  0.00     0.505 C 
HETATM   17  F   UNL     1      30.758  43.153  53.698  1.00  0.00    -0.184 F 
HETATM   18  F   UNL     1      28.971  42.215  54.504  1.00  0.00    -0.184 F 
ENDBRANCH  15  16
ENDBRANCH  11  15
ENDBRANCH   6   9
ENDBRANCH   5   6
ENDBRANCH   2   5
BRANCH   1  19
HETATM   19  C   UNL     1      23.302  48.943  49.234  1.00  0.00     0.048 A 
HETATM   20  C   UNL     1      23.483  50.324  48.784  1.00  0.00     0.022 A 
HETATM   21  C   UNL     1      22.451  51.063  48.333  1.00  0.00     0.054 A 
HETATM   22  C   UNL     1      21.154  50.490  48.277  1.00  0.00     0.157 A 
HETATM   23  N   UNL     1      21.014  49.170  48.681  1.00  0.00    -0.291 N 
HETATM   24  N   UNL     1      19.987  50.959  47.897  1.00  0.00    -0.130 NA
HETATM   25  C   UNL     1      19.679  48.881  48.497  1.00  0.00     0.130 A 
HETATM   26  C   UNL     1      22.072  48.394  49.155  1.00  0.00     0.117 A 
HETATM   27  C   UNL     1      19.055  47.572  48.790  1.00  0.00     0.094 C 
HETATM   28  N   UNL     1      19.063  49.951  48.036  1.00  0.00    -0.135 NA
ENDBRANCH   1  19
TORSDOF 7
ENDMDL
