MODEL 1
REMARK VINA RESULT:      -8.5      0.000      0.000
REMARK  10 active torsions:
REMARK  status: ('A' for Active; 'I' for Inactive)
REMARK    1  A    between atoms: O_2  and  C_3 
REMARK    2  A    between atoms: C_4  and  C_5 
REMARK       I    between atoms: C_5  and  N_6 
REMARK    3  A    between atoms: N_6  and  C_7 
REMARK    4  A    between atoms: C_7  and  N_8 
REMARK    5  A    between atoms: N_8  and  C_9 
REMARK    6  A    between atoms: C_10  and  C_11 
REMARK       I    between atoms: C_11  and  N_12 
REMARK    7  A    between atoms: N_12  and  C_13 
REMARK    8  A    between atoms: C_13  and  C_14 
REMARK    9  A    between atoms: C_14  and  C_15 
REMARK   10  A    between atoms: C_15  and  O_16 
ROOT
HETATM    1  N   UNL     1      23.597  48.155  49.850  1.00  0.00    -0.332 N 
HETATM    2  H   UNL     1      23.492  48.151  50.861  1.00  0.00     0.168 HD
ENDROOT
BRANCH   1   3
HETATM    3  C   UNL     1      22.430  48.064  49.175  1.00  0.00     0.179 C 
HETATM    4  S   UNL     1      22.339  47.049  47.848  1.00  0.00    -0.040 SA
BRANCH   3   5
HETATM    5  N   UNL     1      21.348  48.824  49.491  1.00  0.00    -0.299 N 
HETATM    6  C   UNL     1      21.360  50.193  49.747  1.00  0.00     0.260 C 
HETATM    7  O   UNL     1      22.332  50.823  50.154  1.00  0.00    -0.267 OA
HETATM    8  H   UNL     1      20.521  48.521  48.986  1.00  0.00     0.171 HD
BRANCH   6   9
HETATM    9  C   UNL     1      20.065  50.924  49.525  1.00  0.00     0.065 A 
HETATM   10  C   UNL     1      18.868  50.638  50.219  1.00  0.00     0.084 A 
HETATM   11  C   UNL     1      17.707  51.358  49.907  1.00  0.00     0.038 A 
HETATM   12  C   UNL     1      17.723  52.340  48.913  1.00  0.00     0.003 A 
HETATM   13  C   UNL     1      18.897  52.618  48.223  1.00  0.00     0.001 A 
HETATM   14  C   UNL     1      20.061  51.912  48.526  1.00  0.00     0.020 A 
BRANCH  10  15
HETATM   15  O   UNL     1      18.912  49.661  51.180  1.00  0.00    -0.355 OA
HETATM   16  C   UNL     1      18.281  48.416  50.892  1.00  0.00     0.210 C 
ENDBRANCH  10  15
ENDBRANCH   6   9
ENDBRANCH   3   5
ENDBRANCH   1   3
BRANCH   1  17
HETATM   17  C   UNL     1      24.896  48.505  49.398  1.00  0.00     0.050 A 
HETATM   18  C   UNL     1      26.019  47.823  49.915  1.00  0.00     0.058 A 
HETATM   19  C   UNL     1      27.317  48.257  49.610  1.00  0.00     0.019 A 
HETATM   20  C   UNL     1      27.508  49.349  48.766  1.00  0.00     0.001 A 
HETATM   21  C   UNL     1      26.407  50.008  48.228  1.00  0.00     0.002 A 
HETATM   22  C   UNL     1      25.108  49.594  48.543  1.00  0.00     0.030 A 
BRANCH  18  23
HETATM   23  C   UNL     1      25.897  46.609  50.771  1.00  0.00     0.253 C 
HETATM   24  N   UNL     1      26.017  46.830  52.128  1.00  0.00    -0.357 N 
HETATM   25  H   UNL     1      25.929  47.795  52.443  1.00  0.00     0.162 HD
HETATM   26  O   UNL     1      25.687  45.509  50.273  1.00  0.00    -0.268 OA
BRANCH  24  27
HETATM   27  C   UNL     1      25.830  45.772  53.098  1.00  0.00     0.125 C 
BRANCH  27  28
HETATM   28  C   UNL     1      26.276  46.228  54.480  1.00  0.00     0.046 C 
BRANCH  28  29
HETATM   29  C   UNL     1      26.661  47.699  54.486  1.00  0.00     0.165 C 
BRANCH  29  30
HETATM   30  O   UNL     1      25.503  48.499  54.687  1.00  0.00    -0.401 OA
HETATM   31  H   UNL     1      24.760  47.899  54.877  1.00  0.00     0.209 HD
ENDBRANCH  29  30
ENDBRANCH  28  29
ENDBRANCH  27  28
ENDBRANCH  24  27
ENDBRANCH  18  23
ENDBRANCH   1  17
TORSDOF 10
ENDMDL
MODEL 2
REMARK VINA RESULT:      -8.5      1.451      2.011
REMARK  10 active torsions:
REMARK  status: ('A' for Active; 'I' for Inactive)
REMARK    1  A    between atoms: O_2  and  C_3 
REMARK    2  A    between atoms: C_4  and  C_5 
REMARK       I    between atoms: C_5  and  N_6 
REMARK    3  A    between atoms: N_6  and  C_7 
REMARK    4  A    between atoms: C_7  and  N_8 
REMARK    5  A    between atoms: N_8  and  C_9 
REMARK    6  A    between atoms: C_10  and  C_11 
REMARK       I    between atoms: C_11  and  N_12 
REMARK    7  A    between atoms: N_12  and  C_13 
REMARK    8  A    between atoms: C_13  and  C_14 
REMARK    9  A    between atoms: C_14  and  C_15 
REMARK   10  A    between atoms: C_15  and  O_16 
ROOT
HETATM    1  N   UNL     1      23.534  48.010  49.839  1.00  0.00    -0.332 N 
HETATM    2  H   UNL     1      23.438  47.926  50.849  1.00  0.00     0.168 HD
ENDROOT
BRANCH   1   3
HETATM    3  C   UNL     1      22.362  47.959  49.170  1.00  0.00     0.179 C 
HETATM    4  S   UNL     1      22.232  46.953  47.839  1.00  0.00    -0.040 SA
BRANCH   3   5
HETATM    5  N   UNL     1      21.306  48.753  49.493  1.00  0.00    -0.299 N 
HETATM    6  C   UNL     1      21.360  50.124  49.730  1.00  0.00     0.260 C 
HETATM    7  O   UNL     1      22.356  50.733  50.111  1.00  0.00    -0.267 OA
HETATM    8  H   UNL     1      20.463  48.465  49.006  1.00  0.00     0.171 HD
BRANCH   6   9
HETATM    9  C   UNL     1      20.081  50.887  49.519  1.00  0.00     0.065 A 
HETATM   10  C   UNL     1      18.884  50.631  50.223  1.00  0.00     0.084 A 
HETATM   11  C   UNL     1      17.738  51.379  49.922  1.00  0.00     0.038 A 
HETATM   12  C   UNL     1      17.770  52.361  48.929  1.00  0.00     0.003 A 
HETATM   13  C   UNL     1      18.944  52.611  48.229  1.00  0.00     0.001 A 
HETATM   14  C   UNL     1      20.093  51.875  48.521  1.00  0.00     0.020 A 
BRANCH  10  15
HETATM   15  O   UNL     1      18.912  49.652  51.184  1.00  0.00    -0.355 OA
HETATM   16  C   UNL     1      18.313  48.397  50.873  1.00  0.00     0.210 C 
ENDBRANCH  10  15
ENDBRANCH   6   9
ENDBRANCH   3   5
ENDBRANCH   1   3
BRANCH   1  17
HETATM   17  C   UNL     1      24.825  48.407  49.406  1.00  0.00     0.050 A 
HETATM   18  C   UNL     1      25.965  47.767  49.939  1.00  0.00     0.058 A 
HETATM   19  C   UNL     1      27.250  48.248  49.650  1.00  0.00     0.019 A 
HETATM   20  C   UNL     1      27.413  49.346  48.808  1.00  0.00     0.001 A 
HETATM   21  C   UNL     1      26.296  49.964  48.255  1.00  0.00     0.002 A 
HETATM   22  C   UNL     1      25.009  49.503  48.553  1.00  0.00     0.030 A 
BRANCH  18  23
HETATM   23  C   UNL     1      25.877  46.549  50.794  1.00  0.00     0.253 C 
HETATM   24  N   UNL     1      26.708  45.510  50.428  1.00  0.00    -0.357 N 
HETATM   25  H   UNL     1      27.467  45.737  49.787  1.00  0.00     0.162 HD
HETATM   26  O   UNL     1      25.121  46.514  51.757  1.00  0.00    -0.268 OA
BRANCH  24  27
HETATM   27  C   UNL     1      26.810  44.296  51.209  1.00  0.00     0.125 C 
BRANCH  27  28
HETATM   28  C   UNL     1      26.083  43.152  50.518  1.00  0.00     0.046 C 
BRANCH  28  29
HETATM   29  C   UNL     1      24.645  43.032  51.000  1.00  0.00     0.165 C 
BRANCH  29  30
HETATM   30  O   UNL     1      24.518  43.622  52.287  1.00  0.00    -0.401 OA
HETATM   31  H   UNL     1      23.753  43.211  52.725  1.00  0.00     0.209 HD
ENDBRANCH  29  30
ENDBRANCH  28  29
ENDBRANCH  27  28
ENDBRANCH  24  27
ENDBRANCH  18  23
ENDBRANCH   1  17
TORSDOF 10
ENDMDL
MODEL 3
REMARK VINA RESULT:      -8.2      1.949      7.783
REMARK  10 active torsions:
REMARK  status: ('A' for Active; 'I' for Inactive)
REMARK    1  A    between atoms: O_2  and  C_3 
REMARK    2  A    between atoms: C_4  and  C_5 
REMARK       I    between atoms: C_5  and  N_6 
REMARK    3  A    between atoms: N_6  and  C_7 
REMARK    4  A    between atoms: C_7  and  N_8 
REMARK    5  A    between atoms: N_8  and  C_9 
REMARK    6  A    between atoms: C_10  and  C_11 
REMARK       I    between atoms: C_11  and  N_12 
REMARK    7  A    between atoms: N_12  and  C_13 
REMARK    8  A    between atoms: C_13  and  C_14 
REMARK    9  A    between atoms: C_14  and  C_15 
REMARK   10  A    between atoms: C_15  and  O_16 
ROOT
HETATM    1  N   UNL     1      24.078  46.991  50.306  1.00  0.00    -0.332 N 
HETATM    2  H   UNL     1      23.069  46.911  50.410  1.00  0.00     0.168 HD
ENDROOT
BRANCH   1   3
HETATM    3  C   UNL     1      24.759  45.890  50.691  1.00  0.00     0.179 C 
HETATM    4  S   UNL     1      24.194  44.384  50.229  1.00  0.00    -0.040 SA
BRANCH   3   5
HETATM    5  N   UNL     1      25.847  45.956  51.506  1.00  0.00    -0.299 N 
HETATM    6  C   UNL     1      25.911  46.622  52.728  1.00  0.00     0.260 C 
HETATM    7  O   UNL     1      25.204  47.573  53.048  1.00  0.00    -0.267 OA
HETATM    8  H   UNL     1      26.371  45.087  51.497  1.00  0.00     0.171 HD
BRANCH   6   9
HETATM    9  C   UNL     1      26.951  46.133  53.698  1.00  0.00     0.065 A 
HETATM   10  C   UNL     1      27.267  44.771  53.896  1.00  0.00     0.084 A 
HETATM   11  C   UNL     1      28.230  44.423  54.854  1.00  0.00     0.038 A 
HETATM   12  C   UNL     1      28.864  45.407  55.616  1.00  0.00     0.003 A 
HETATM   13  C   UNL     1      28.549  46.749  55.429  1.00  0.00     0.001 A 
HETATM   14  C   UNL     1      27.596  47.109  54.477  1.00  0.00     0.020 A 
BRANCH  10  15
HETATM   15  O   UNL     1      26.609  43.849  53.122  1.00  0.00    -0.355 OA
HETATM   16  C   UNL     1      27.368  42.768  52.586  1.00  0.00     0.210 C 
ENDBRANCH  10  15
ENDBRANCH   6   9
ENDBRANCH   3   5
ENDBRANCH   1   3
BRANCH   1  17
HETATM   17  C   UNL     1      24.502  48.121  49.561  1.00  0.00     0.050 A 
HETATM   18  C   UNL     1      23.557  48.850  48.806  1.00  0.00     0.058 A 
HETATM   19  C   UNL     1      23.975  49.868  47.936  1.00  0.00     0.019 A 
HETATM   20  C   UNL     1      25.327  50.188  47.833  1.00  0.00     0.001 A 
HETATM   21  C   UNL     1      26.262  49.494  48.596  1.00  0.00     0.002 A 
HETATM   22  C   UNL     1      25.856  48.464  49.452  1.00  0.00     0.030 A 
BRANCH  18  23
HETATM   23  C   UNL     1      22.089  48.612  48.910  1.00  0.00     0.253 C 
HETATM   24  N   UNL     1      21.325  49.735  49.152  1.00  0.00    -0.357 N 
HETATM   25  H   UNL     1      21.775  50.636  48.994  1.00  0.00     0.162 HD
HETATM   26  O   UNL     1      21.626  47.487  48.767  1.00  0.00    -0.268 OA
BRANCH  24  27
HETATM   27  C   UNL     1      19.879  49.687  49.186  1.00  0.00     0.125 C 
BRANCH  27  28
HETATM   28  C   UNL     1      19.368  49.963  50.593  1.00  0.00     0.046 C 
BRANCH  28  29
HETATM   29  C   UNL     1      18.672  48.748  51.183  1.00  0.00     0.165 C 
BRANCH  29  30
HETATM   30  O   UNL     1      18.732  48.802  52.603  1.00  0.00    -0.401 OA
HETATM   31  H   UNL     1      18.479  47.925  52.942  1.00  0.00     0.209 HD
ENDBRANCH  29  30
ENDBRANCH  28  29
ENDBRANCH  27  28
ENDBRANCH  24  27
ENDBRANCH  18  23
ENDBRANCH   1  17
TORSDOF 10
ENDMDL
MODEL 4
REMARK VINA RESULT:      -8.2      3.821      6.555
REMARK  10 active torsions:
REMARK  status: ('A' for Active; 'I' for Inactive)
REMARK    1  A    between atoms: O_2  and  C_3 
REMARK    2  A    between atoms: C_4  and  C_5 
REMARK       I    between atoms: C_5  and  N_6 
REMARK    3  A    between atoms: N_6  and  C_7 
REMARK    4  A    between atoms: C_7  and  N_8 
REMARK    5  A    between atoms: N_8  and  C_9 
REMARK    6  A    between atoms: C_10  and  C_11 
REMARK       I    between atoms: C_11  and  N_12 
REMARK    7  A    between atoms: N_12  and  C_13 
REMARK    8  A    between atoms: C_13  and  C_14 
REMARK    9  A    between atoms: C_14  and  C_15 
REMARK   10  A    between atoms: C_15  and  O_16 
ROOT
HETATM    1  N   UNL     1      26.484  45.264  53.133  1.00  0.00    -0.332 N 
HETATM    2  H   UNL     1      25.661  44.718  53.377  1.00  0.00     0.168 HD
ENDROOT
BRANCH   1   3
HETATM    3  C   UNL     1      26.240  46.582  52.966  1.00  0.00     0.179 C 
HETATM    4  S   UNL     1      26.036  47.546  54.318  1.00  0.00    -0.040 SA
BRANCH   3   5
HETATM    5  N   UNL     1      26.079  47.140  51.736  1.00  0.00    -0.299 N 
HETATM    6  C   UNL     1      25.058  46.848  50.835  1.00  0.00     0.260 C 
HETATM    7  O   UNL     1      24.435  45.790  50.798  1.00  0.00    -0.267 OA
HETATM    8  H   UNL     1      26.342  48.121  51.736  1.00  0.00     0.171 HD
BRANCH   6   9
HETATM    9  C   UNL     1      24.734  47.916  49.827  1.00  0.00     0.065 A 
HETATM   10  C   UNL     1      25.704  48.714  49.182  1.00  0.00     0.084 A 
HETATM   11  C   UNL     1      25.288  49.707  48.285  1.00  0.00     0.038 A 
HETATM   12  C   UNL     1      23.930  49.917  48.035  1.00  0.00     0.003 A 
HETATM   13  C   UNL     1      22.972  49.138  48.674  1.00  0.00     0.001 A 
HETATM   14  C   UNL     1      23.372  48.145  49.567  1.00  0.00     0.020 A 
BRANCH  10  15
HETATM   15  O   UNL     1      27.022  48.464  49.470  1.00  0.00    -0.355 OA
HETATM   16  C   UNL     1      27.981  49.450  49.100  1.00  0.00     0.210 C 
ENDBRANCH  10  15
ENDBRANCH   6   9
ENDBRANCH   3   5
ENDBRANCH   1   3
BRANCH   1  17
HETATM   17  C   UNL     1      27.711  44.565  53.273  1.00  0.00     0.050 A 
HETATM   18  C   UNL     1      28.183  43.768  52.207  1.00  0.00     0.058 A 
HETATM   19  C   UNL     1      29.303  42.943  52.379  1.00  0.00     0.019 A 
HETATM   20  C   UNL     1      29.980  42.927  53.597  1.00  0.00     0.001 A 
HETATM   21  C   UNL     1      29.539  43.733  54.643  1.00  0.00     0.002 A 
HETATM   22  C   UNL     1      28.410  44.545  54.486  1.00  0.00     0.030 A 
BRANCH  18  23
HETATM   23  C   UNL     1      27.553  43.778  50.856  1.00  0.00     0.253 C 
HETATM   24  N   UNL     1      26.899  42.615  50.502  1.00  0.00    -0.357 N 
HETATM   25  H   UNL     1      26.688  41.963  51.255  1.00  0.00     0.162 HD
HETATM   26  O   UNL     1      27.614  44.773  50.144  1.00  0.00    -0.268 OA
BRANCH  24  27
HETATM   27  C   UNL     1      26.158  42.498  49.264  1.00  0.00     0.125 C 
BRANCH  27  28
HETATM   28  C   UNL     1      24.881  41.699  49.479  1.00  0.00     0.046 C 
BRANCH  28  29
HETATM   29  C   UNL     1      23.778  42.558  50.077  1.00  0.00     0.165 C 
BRANCH  29  30
HETATM   30  O   UNL     1      24.075  42.843  51.438  1.00  0.00    -0.401 OA
HETATM   31  H   UNL     1      24.629  43.643  51.458  1.00  0.00     0.209 HD
ENDBRANCH  29  30
ENDBRANCH  28  29
ENDBRANCH  27  28
ENDBRANCH  24  27
ENDBRANCH  18  23
ENDBRANCH   1  17
TORSDOF 10
ENDMDL
MODEL 5
REMARK VINA RESULT:      -8.1      2.134      7.950
REMARK  10 active torsions:
REMARK  status: ('A' for Active; 'I' for Inactive)
REMARK    1  A    between atoms: O_2  and  C_3 
REMARK    2  A    between atoms: C_4  and  C_5 
REMARK       I    between atoms: C_5  and  N_6 
REMARK    3  A    between atoms: N_6  and  C_7 
REMARK    4  A    between atoms: C_7  and  N_8 
REMARK    5  A    between atoms: N_8  and  C_9 
REMARK    6  A    between atoms: C_10  and  C_11 
REMARK       I    between atoms: C_11  and  N_12 
REMARK    7  A    between atoms: N_12  and  C_13 
REMARK    8  A    between atoms: C_13  and  C_14 
REMARK    9  A    between atoms: C_14  and  C_15 
REMARK   10  A    between atoms: C_15  and  O_16 
ROOT
HETATM    1  N   UNL     1      24.325  46.778  50.334  1.00  0.00    -0.332 N 
HETATM    2  H   UNL     1      23.430  47.014  50.755  1.00  0.00     0.168 HD
ENDROOT
BRANCH   1   3
HETATM    3  C   UNL     1      24.547  45.450  50.222  1.00  0.00     0.179 C 
HETATM    4  S   UNL     1      23.732  44.590  49.040  1.00  0.00    -0.040 SA
BRANCH   3   5
HETATM    5  N   UNL     1      25.352  44.772  51.084  1.00  0.00    -0.299 N 
HETATM    6  C   UNL     1      26.724  44.586  50.942  1.00  0.00     0.260 C 
HETATM    7  O   UNL     1      27.329  44.600  49.873  1.00  0.00    -0.267 OA
HETATM    8  H   UNL     1      25.066  44.915  52.048  1.00  0.00     0.171 HD
BRANCH   6   9
HETATM    9  C   UNL     1      27.495  44.323  52.207  1.00  0.00     0.065 A 
HETATM   10  C   UNL     1      27.235  44.966  53.437  1.00  0.00     0.084 A 
HETATM   11  C   UNL     1      28.040  44.673  54.547  1.00  0.00     0.038 A 
HETATM   12  C   UNL     1      29.095  43.764  54.441  1.00  0.00     0.003 A 
HETATM   13  C   UNL     1      29.358  43.135  53.229  1.00  0.00     0.001 A 
HETATM   14  C   UNL     1      28.564  43.416  52.117  1.00  0.00     0.020 A 
BRANCH  10  15
HETATM   15  O   UNL     1      26.188  45.852  53.480  1.00  0.00    -0.355 OA
HETATM   16  C   UNL     1      26.491  47.230  53.677  1.00  0.00     0.210 C 
ENDBRANCH  10  15
ENDBRANCH   6   9
ENDBRANCH   3   5
ENDBRANCH   1   3
BRANCH   1  17
HETATM   17  C   UNL     1      25.003  47.877  49.747  1.00  0.00     0.050 A 
HETATM   18  C   UNL     1      24.273  48.823  48.994  1.00  0.00     0.058 A 
HETATM   19  C   UNL     1      24.939  49.823  48.271  1.00  0.00     0.019 A 
HETATM   20  C   UNL     1      26.328  49.910  48.316  1.00  0.00     0.001 A 
HETATM   21  C   UNL     1      27.054  49.000  49.080  1.00  0.00     0.002 A 
HETATM   22  C   UNL     1      26.399  47.987  49.789  1.00  0.00     0.030 A 
BRANCH  18  23
HETATM   23  C   UNL     1      22.783  48.835  48.949  1.00  0.00     0.253 C 
HETATM   24  N   UNL     1      22.204  50.088  48.957  1.00  0.00    -0.357 N 
HETATM   25  H   UNL     1      22.816  50.875  48.745  1.00  0.00     0.162 HD
HETATM   26  O   UNL     1      22.149  47.789  48.890  1.00  0.00    -0.268 OA
BRANCH  24  27
HETATM   27  C   UNL     1      20.775  50.275  48.822  1.00  0.00     0.125 C 
BRANCH  27  28
HETATM   28  C   UNL     1      20.171  50.748  50.136  1.00  0.00     0.046 C 
BRANCH  28  29
HETATM   29  C   UNL     1      19.243  49.702  50.734  1.00  0.00     0.165 C 
BRANCH  29  30
HETATM   30  O   UNL     1      19.637  48.407  50.302  1.00  0.00    -0.401 OA
HETATM   31  H   UNL     1      20.570  48.284  50.550  1.00  0.00     0.209 HD
ENDBRANCH  29  30
ENDBRANCH  28  29
ENDBRANCH  27  28
ENDBRANCH  24  27
ENDBRANCH  18  23
ENDBRANCH   1  17
TORSDOF 10
ENDMDL
MODEL 6
REMARK VINA RESULT:      -7.9      3.387      6.104
REMARK  10 active torsions:
REMARK  status: ('A' for Active; 'I' for Inactive)
REMARK    1  A    between atoms: O_2  and  C_3 
REMARK    2  A    between atoms: C_4  and  C_5 
REMARK       I    between atoms: C_5  and  N_6 
REMARK    3  A    between atoms: N_6  and  C_7 
REMARK    4  A    between atoms: C_7  and  N_8 
REMARK    5  A    between atoms: N_8  and  C_9 
REMARK    6  A    between atoms: C_10  and  C_11 
REMARK       I    between atoms: C_11  and  N_12 
REMARK    7  A    between atoms: N_12  and  C_13 
REMARK    8  A    between atoms: C_13  and  C_14 
REMARK    9  A    between atoms: C_14  and  C_15 
REMARK   10  A    between atoms: C_15  and  O_16 
ROOT
HETATM    1  N   UNL     1      26.806  44.249  51.287  1.00  0.00    -0.332 N 
HETATM    2  H   UNL     1      27.488  44.950  51.009  1.00  0.00     0.168 HD
ENDROOT
BRANCH   1   3
HETATM    3  C   UNL     1      25.551  44.503  50.858  1.00  0.00     0.179 C 
HETATM    4  S   UNL     1      24.406  43.286  50.937  1.00  0.00    -0.040 SA
BRANCH   3   5
HETATM    5  N   UNL     1      25.203  45.691  50.294  1.00  0.00    -0.299 N 
HETATM    6  C   UNL     1      25.492  46.953  50.806  1.00  0.00     0.260 C 
HETATM    7  O   UNL     1      25.693  47.201  51.992  1.00  0.00    -0.267 OA
HETATM    8  H   UNL     1      25.256  45.650  49.281  1.00  0.00     0.171 HD
BRANCH   6   9
HETATM    9  C   UNL     1      25.530  48.082  49.814  1.00  0.00     0.065 A 
HETATM   10  C   UNL     1      24.388  48.604  49.168  1.00  0.00     0.084 A 
HETATM   11  C   UNL     1      24.541  49.635  48.231  1.00  0.00     0.038 A 
HETATM   12  C   UNL     1      25.808  50.137  47.926  1.00  0.00     0.003 A 
HETATM   13  C   UNL     1      26.936  49.620  48.554  1.00  0.00     0.001 A 
HETATM   14  C   UNL     1      26.797  48.596  49.491  1.00  0.00     0.020 A 
BRANCH  10  15
HETATM   15  O   UNL     1      23.170  48.068  49.504  1.00  0.00    -0.355 OA
HETATM   16  C   UNL     1      22.179  47.977  48.484  1.00  0.00     0.210 C 
ENDBRANCH  10  15
ENDBRANCH   6   9
ENDBRANCH   3   5
ENDBRANCH   1   3
BRANCH   1  17
HETATM   17  C   UNL     1      27.372  43.067  51.831  1.00  0.00     0.050 A 
HETATM   18  C   UNL     1      27.696  43.019  53.204  1.00  0.00     0.058 A 
HETATM   19  C   UNL     1      28.402  41.927  53.730  1.00  0.00     0.019 A 
HETATM   20  C   UNL     1      28.763  40.865  52.904  1.00  0.00     0.001 A 
HETATM   21  C   UNL     1      28.420  40.890  51.555  1.00  0.00     0.002 A 
HETATM   22  C   UNL     1      27.733  41.984  51.018  1.00  0.00     0.030 A 
BRANCH  18  23
HETATM   23  C   UNL     1      27.289  44.085  54.163  1.00  0.00     0.253 C 
HETATM   24  N   UNL     1      28.329  44.725  54.808  1.00  0.00    -0.357 N 
HETATM   25  H   UNL     1      29.258  44.602  54.410  1.00  0.00     0.162 HD
HETATM   26  O   UNL     1      26.108  44.361  54.329  1.00  0.00    -0.268 OA
BRANCH  24  27
HETATM   27  C   UNL     1      28.106  45.845  55.698  1.00  0.00     0.125 C 
BRANCH  27  28
HETATM   28  C   UNL     1      28.199  47.159  54.937  1.00  0.00     0.046 C 
BRANCH  28  29
HETATM   29  C   UNL     1      26.965  48.020  55.157  1.00  0.00     0.165 C 
BRANCH  29  30
HETATM   30  O   UNL     1      25.795  47.268  54.862  1.00  0.00    -0.401 OA
HETATM   31  H   UNL     1      25.990  46.334  55.052  1.00  0.00     0.209 HD
ENDBRANCH  29  30
ENDBRANCH  28  29
ENDBRANCH  27  28
ENDBRANCH  24  27
ENDBRANCH  18  23
ENDBRANCH   1  17
TORSDOF 10
ENDMDL
MODEL 7
REMARK VINA RESULT:      -7.8      4.731      7.552
REMARK  10 active torsions:
REMARK  status: ('A' for Active; 'I' for Inactive)
REMARK    1  A    between atoms: O_2  and  C_3 
REMARK    2  A    between atoms: C_4  and  C_5 
REMARK       I    between atoms: C_5  and  N_6 
REMARK    3  A    between atoms: N_6  and  C_7 
REMARK    4  A    between atoms: C_7  and  N_8 
REMARK    5  A    between atoms: N_8  and  C_9 
REMARK    6  A    between atoms: C_10  and  C_11 
REMARK       I    between atoms: C_11  and  N_12 
REMARK    7  A    between atoms: N_12  and  C_13 
REMARK    8  A    between atoms: C_13  and  C_14 
REMARK    9  A    between atoms: C_14  and  C_15 
REMARK   10  A    between atoms: C_15  and  O_16 
ROOT
HETATM    1  N   UNL     1      27.193  43.931  51.095  1.00  0.00    -0.332 N 
HETATM    2  H   UNL     1      27.331  43.558  50.158  1.00  0.00     0.168 HD
ENDROOT
BRANCH   1   3
HETATM    3  C   UNL     1      26.087  44.694  51.225  1.00  0.00     0.179 C 
HETATM    4  S   UNL     1      24.657  43.972  51.708  1.00  0.00    -0.040 SA
BRANCH   3   5
HETATM    5  N   UNL     1      26.074  46.016  50.904  1.00  0.00    -0.299 N 
HETATM    6  C   UNL     1      26.684  46.590  49.791  1.00  0.00     0.260 C 
HETATM    7  O   UNL     1      27.649  46.118  49.196  1.00  0.00    -0.267 OA
HETATM    8  H   UNL     1      25.185  46.446  51.138  1.00  0.00     0.171 HD
BRANCH   6   9
HETATM    9  C   UNL     1      26.112  47.899  49.321  1.00  0.00     0.065 A 
HETATM   10  C   UNL     1      24.730  48.186  49.276  1.00  0.00     0.084 A 
HETATM   11  C   UNL     1      24.303  49.428  48.784  1.00  0.00     0.038 A 
HETATM   12  C   UNL     1      25.229  50.371  48.332  1.00  0.00     0.003 A 
HETATM   13  C   UNL     1      26.590  50.088  48.368  1.00  0.00     0.001 A 
HETATM   14  C   UNL     1      27.029  48.858  48.857  1.00  0.00     0.020 A 
BRANCH  10  15
HETATM   15  O   UNL     1      23.868  47.221  49.730  1.00  0.00    -0.355 OA
HETATM   16  C   UNL     1      23.053  46.553  48.770  1.00  0.00     0.210 C 
ENDBRANCH  10  15
ENDBRANCH   6   9
ENDBRANCH   3   5
ENDBRANCH   1   3
BRANCH   1  17
HETATM   17  C   UNL     1      28.042  43.364  52.080  1.00  0.00     0.050 A 
HETATM   18  C   UNL     1      28.332  41.983  52.038  1.00  0.00     0.058 A 
HETATM   19  C   UNL     1      29.031  41.371  53.088  1.00  0.00     0.019 A 
HETATM   20  C   UNL     1      29.474  42.130  54.169  1.00  0.00     0.001 A 
HETATM   21  C   UNL     1      29.219  43.498  54.204  1.00  0.00     0.002 A 
HETATM   22  C   UNL     1      28.504  44.113  53.170  1.00  0.00     0.030 A 
BRANCH  18  23
HETATM   23  C   UNL     1      27.949  41.117  50.887  1.00  0.00     0.253 C 
HETATM   24  N   UNL     1      28.952  40.300  50.405  1.00  0.00    -0.357 N 
HETATM   25  H   UNL     1      29.764  40.171  51.007  1.00  0.00     0.162 HD
HETATM   26  O   UNL     1      26.810  41.140  50.437  1.00  0.00    -0.268 OA
BRANCH  24  27
HETATM   27  C   UNL     1      28.716  39.333  49.354  1.00  0.00     0.125 C 
BRANCH  27  28
HETATM   28  C   UNL     1      28.834  37.916  49.894  1.00  0.00     0.046 C 
BRANCH  28  29
HETATM   29  C   UNL     1      30.171  37.689  50.582  1.00  0.00     0.165 C 
BRANCH  29  30
HETATM   30  O   UNL     1      31.208  38.314  49.836  1.00  0.00    -0.401 OA
HETATM   31  H   UNL     1      32.057  37.988  50.182  1.00  0.00     0.209 HD
ENDBRANCH  29  30
ENDBRANCH  28  29
ENDBRANCH  27  28
ENDBRANCH  24  27
ENDBRANCH  18  23
ENDBRANCH   1  17
TORSDOF 10
ENDMDL
MODEL 8
REMARK VINA RESULT:      -7.7      4.874      9.817
REMARK  10 active torsions:
REMARK  status: ('A' for Active; 'I' for Inactive)
REMARK    1  A    between atoms: O_2  and  C_3 
REMARK    2  A    between atoms: C_4  and  C_5 
REMARK       I    between atoms: C_5  and  N_6 
REMARK    3  A    between atoms: N_6  and  C_7 
REMARK    4  A    between atoms: C_7  and  N_8 
REMARK    5  A    between atoms: N_8  and  C_9 
REMARK    6  A    between atoms: C_10  and  C_11 
REMARK       I    between atoms: C_11  and  N_12 
REMARK    7  A    between atoms: N_12  and  C_13 
REMARK    8  A    between atoms: C_13  and  C_14 
REMARK    9  A    between atoms: C_14  and  C_15 
REMARK   10  A    between atoms: C_15  and  O_16 
ROOT
HETATM    1  N   UNL     1      27.091  43.843  51.739  1.00  0.00    -0.332 N 
HETATM    2  H   UNL     1      28.042  44.042  51.435  1.00  0.00     0.168 HD
ENDROOT
BRANCH   1   3
HETATM    3  C   UNL     1      26.833  44.210  53.013  1.00  0.00     0.179 C 
HETATM    4  S   UNL     1      25.471  45.128  53.331  1.00  0.00    -0.040 SA
BRANCH   3   5
HETATM    5  N   UNL     1      27.681  43.924  54.037  1.00  0.00    -0.299 N 
HETATM    6  C   UNL     1      29.066  43.810  53.941  1.00  0.00     0.260 C 
HETATM    7  O   UNL     1      29.678  43.516  52.918  1.00  0.00    -0.267 OA
HETATM    8  H   UNL     1      27.376  44.356  54.903  1.00  0.00     0.171 HD
BRANCH   6   9
HETATM    9  C   UNL     1      29.843  44.046  55.207  1.00  0.00     0.065 A 
HETATM   10  C   UNL     1      29.839  45.265  55.920  1.00  0.00     0.084 A 
HETATM   11  C   UNL     1      30.629  45.388  57.071  1.00  0.00     0.038 A 
HETATM   12  C   UNL     1      31.423  44.325  57.507  1.00  0.00     0.003 A 
HETATM   13  C   UNL     1      31.435  43.126  56.803  1.00  0.00     0.001 A 
HETATM   14  C   UNL     1      30.651  42.988  55.658  1.00  0.00     0.020 A 
BRANCH  10  15
HETATM   15  O   UNL     1      29.044  46.275  55.442  1.00  0.00    -0.355 OA
HETATM   16  C   UNL     1      27.991  46.746  56.280  1.00  0.00     0.210 C 
ENDBRANCH  10  15
ENDBRANCH   6   9
ENDBRANCH   3   5
ENDBRANCH   1   3
BRANCH   1  17
HETATM   17  C   UNL     1      26.210  43.466  50.693  1.00  0.00     0.050 A 
HETATM   18  C   UNL     1      25.839  44.419  49.719  1.00  0.00     0.058 A 
HETATM   19  C   UNL     1      24.848  44.120  48.774  1.00  0.00     0.019 A 
HETATM   20  C   UNL     1      24.242  42.866  48.768  1.00  0.00     0.001 A 
HETATM   21  C   UNL     1      24.624  41.909  49.706  1.00  0.00     0.002 A 
HETATM   22  C   UNL     1      25.598  42.206  50.665  1.00  0.00     0.030 A 
BRANCH  18  23
HETATM   23  C   UNL     1      26.486  45.759  49.619  1.00  0.00     0.253 C 
HETATM   24  N   UNL     1      25.679  46.828  49.951  1.00  0.00    -0.357 N 
HETATM   25  H   UNL     1      24.823  46.614  50.460  1.00  0.00     0.162 HD
HETATM   26  O   UNL     1      27.658  45.865  49.280  1.00  0.00    -0.268 OA
BRANCH  24  27
HETATM   27  C   UNL     1      26.183  48.185  49.996  1.00  0.00     0.125 C 
BRANCH  27  28
HETATM   28  C   UNL     1      25.516  49.038  48.927  1.00  0.00     0.046 C 
BRANCH  28  29
HETATM   29  C   UNL     1      26.524  49.921  48.207  1.00  0.00     0.165 C 
BRANCH  29  30
HETATM   30  O   UNL     1      27.758  49.915  48.913  1.00  0.00    -0.401 OA
HETATM   31  H   UNL     1      28.342  49.269  48.480  1.00  0.00     0.209 HD
ENDBRANCH  29  30
ENDBRANCH  28  29
ENDBRANCH  27  28
ENDBRANCH  24  27
ENDBRANCH  18  23
ENDBRANCH   1  17
TORSDOF 10
ENDMDL
MODEL 9
REMARK VINA RESULT:      -7.6      2.577      8.523
REMARK  10 active torsions:
REMARK  status: ('A' for Active; 'I' for Inactive)
REMARK    1  A    between atoms: O_2  and  C_3 
REMARK    2  A    between atoms: C_4  and  C_5 
REMARK       I    between atoms: C_5  and  N_6 
REMARK    3  A    between atoms: N_6  and  C_7 
REMARK    4  A    between atoms: C_7  and  N_8 
REMARK    5  A    between atoms: N_8  and  C_9 
REMARK    6  A    between atoms: C_10  and  C_11 
REMARK       I    between atoms: C_11  and  N_12 
REMARK    7  A    between atoms: N_12  and  C_13 
REMARK    8  A    between atoms: C_13  and  C_14 
REMARK    9  A    between atoms: C_14  and  C_15 
REMARK   10  A    between atoms: C_15  and  O_16 
ROOT
HETATM    1  N   UNL     1      24.439  47.008  50.577  1.00  0.00    -0.332 N 
HETATM    2  H   UNL     1      23.456  47.176  50.778  1.00  0.00     0.168 HD
ENDROOT
BRANCH   1   3
HETATM    3  C   UNL     1      24.852  45.754  50.861  1.00  0.00     0.179 C 
HETATM    4  S   UNL     1      23.900  44.461  50.390  1.00  0.00    -0.040 SA
BRANCH   3   5
HETATM    5  N   UNL     1      25.977  45.506  51.584  1.00  0.00    -0.299 N 
HETATM    6  C   UNL     1      26.017  45.068  52.905  1.00  0.00     0.260 C 
HETATM    7  O   UNL     1      25.130  45.252  53.734  1.00  0.00    -0.267 OA
HETATM    8  H   UNL     1      26.707  45.100  51.007  1.00  0.00     0.171 HD
BRANCH   6   9
HETATM    9  C   UNL     1      27.264  44.340  53.328  1.00  0.00     0.065 A 
HETATM   10  C   UNL     1      27.636  43.067  52.845  1.00  0.00     0.084 A 
HETATM   11  C   UNL     1      28.803  42.462  53.334  1.00  0.00     0.038 A 
HETATM   12  C   UNL     1      29.586  43.102  54.297  1.00  0.00     0.003 A 
HETATM   13  C   UNL     1      29.218  44.353  54.780  1.00  0.00     0.001 A 
HETATM   14  C   UNL     1      28.062  44.967  54.300  1.00  0.00     0.020 A 
BRANCH  10  15
HETATM   15  O   UNL     1      26.826  42.485  51.903  1.00  0.00    -0.355 OA
HETATM   16  C   UNL     1      27.423  42.071  50.677  1.00  0.00     0.210 C 
ENDBRANCH  10  15
ENDBRANCH   6   9
ENDBRANCH   3   5
ENDBRANCH   1   3
BRANCH   1  17
HETATM   17  C   UNL     1      25.065  48.035  49.825  1.00  0.00     0.050 A 
HETATM   18  C   UNL     1      24.270  48.962  49.117  1.00  0.00     0.058 A 
HETATM   19  C   UNL     1      24.862  49.882  48.240  1.00  0.00     0.019 A 
HETATM   20  C   UNL     1      26.247  49.908  48.083  1.00  0.00     0.001 A 
HETATM   21  C   UNL     1      27.040  49.017  48.801  1.00  0.00     0.002 A 
HETATM   22  C   UNL     1      26.456  48.083  49.663  1.00  0.00     0.030 A 
BRANCH  18  23
HETATM   23  C   UNL     1      22.791  49.040  49.279  1.00  0.00     0.253 C 
HETATM   24  N   UNL     1      22.315  50.235  49.782  1.00  0.00    -0.357 N 
HETATM   25  H   UNL     1      22.958  51.025  49.765  1.00  0.00     0.162 HD
HETATM   26  O   UNL     1      22.075  48.099  48.960  1.00  0.00    -0.268 OA
BRANCH  24  27
HETATM   27  C   UNL     1      20.899  50.504  49.911  1.00  0.00     0.125 C 
BRANCH  27  28
HETATM   28  C   UNL     1      20.420  51.400  48.778  1.00  0.00     0.046 C 
BRANCH  28  29
HETATM   29  C   UNL     1      19.038  51.967  49.060  1.00  0.00     0.165 C 
BRANCH  29  30
HETATM   30  O   UNL     1      18.718  52.959  48.093  1.00  0.00    -0.401 OA
HETATM   31  H   UNL     1      18.345  53.722  48.567  1.00  0.00     0.209 HD
ENDBRANCH  29  30
ENDBRANCH  28  29
ENDBRANCH  27  28
ENDBRANCH  24  27
ENDBRANCH  18  23
ENDBRANCH   1  17
TORSDOF 10
ENDMDL
MODEL 10
REMARK VINA RESULT:      -7.6      3.055      8.733
REMARK  10 active torsions:
REMARK  status: ('A' for Active; 'I' for Inactive)
REMARK    1  A    between atoms: O_2  and  C_3 
REMARK    2  A    between atoms: C_4  and  C_5 
REMARK       I    between atoms: C_5  and  N_6 
REMARK    3  A    between atoms: N_6  and  C_7 
REMARK    4  A    between atoms: C_7  and  N_8 
REMARK    5  A    between atoms: N_8  and  C_9 
REMARK    6  A    between atoms: C_10  and  C_11 
REMARK       I    between atoms: C_11  and  N_12 
REMARK    7  A    between atoms: N_12  and  C_13 
REMARK    8  A    between atoms: C_13  and  C_14 
REMARK    9  A    between atoms: C_14  and  C_15 
REMARK   10  A    between atoms: C_15  and  O_16 
ROOT
HETATM    1  N   UNL     1      25.192  46.719  50.462  1.00  0.00    -0.332 N 
HETATM    2  H   UNL     1      24.606  46.105  49.901  1.00  0.00     0.168 HD
ENDROOT
BRANCH   1   3
HETATM    3  C   UNL     1      25.627  46.164  51.613  1.00  0.00     0.179 C 
HETATM    4  S   UNL     1      25.738  47.119  52.983  1.00  0.00    -0.040 SA
BRANCH   3   5
HETATM    5  N   UNL     1      26.051  44.873  51.682  1.00  0.00    -0.299 N 
HETATM    6  C   UNL     1      27.088  44.315  50.938  1.00  0.00     0.260 C 
HETATM    7  O   UNL     1      27.472  44.727  49.847  1.00  0.00    -0.267 OA
HETATM    8  H   UNL     1      26.005  44.517  52.632  1.00  0.00     0.171 HD
BRANCH   6   9
HETATM    9  C   UNL     1      27.752  43.101  51.528  1.00  0.00     0.065 A 
HETATM   10  C   UNL     1      28.550  43.126  52.693  1.00  0.00     0.084 A 
HETATM   11  C   UNL     1      29.152  41.940  53.136  1.00  0.00     0.038 A 
HETATM   12  C   UNL     1      28.978  40.747  52.432  1.00  0.00     0.003 A 
HETATM   13  C   UNL     1      28.199  40.721  51.281  1.00  0.00     0.001 A 
HETATM   14  C   UNL     1      27.592  41.892  50.830  1.00  0.00     0.020 A 
BRANCH  10  15
HETATM   15  O   UNL     1      28.688  44.327  53.340  1.00  0.00    -0.355 OA
HETATM   16  C   UNL     1      28.161  44.436  54.660  1.00  0.00     0.210 C 
ENDBRANCH  10  15
ENDBRANCH   6   9
ENDBRANCH   3   5
ENDBRANCH   1   3
BRANCH   1  17
HETATM   17  C   UNL     1      25.611  47.898  49.793  1.00  0.00     0.050 A 
HETATM   18  C   UNL     1      24.661  48.679  49.099  1.00  0.00     0.058 A 
HETATM   19  C   UNL     1      25.073  49.754  48.298  1.00  0.00     0.019 A 
HETATM   20  C   UNL     1      26.424  50.079  48.205  1.00  0.00     0.001 A 
HETATM   21  C   UNL     1      27.365  49.333  48.911  1.00  0.00     0.002 A 
HETATM   22  C   UNL     1      26.964  48.247  49.697  1.00  0.00     0.030 A 
BRANCH  18  23
HETATM   23  C   UNL     1      23.194  48.435  49.198  1.00  0.00     0.253 C 
HETATM   24  N   UNL     1      22.438  49.529  49.570  1.00  0.00    -0.357 N 
HETATM   25  H   UNL     1      22.890  50.439  49.504  1.00  0.00     0.162 HD
HETATM   26  O   UNL     1      22.723  47.333  48.942  1.00  0.00    -0.268 OA
BRANCH  24  27
HETATM   27  C   UNL     1      20.992  49.481  49.621  1.00  0.00     0.125 C 
BRANCH  27  28
HETATM   28  C   UNL     1      20.414  50.886  49.710  1.00  0.00     0.046 C 
BRANCH  28  29
HETATM   29  C   UNL     1      18.963  50.924  49.258  1.00  0.00     0.165 C 
BRANCH  29  30
HETATM   30  O   UNL     1      18.105  50.867  50.390  1.00  0.00    -0.401 OA
HETATM   31  H   UNL     1      18.579  51.266  51.139  1.00  0.00     0.209 HD
ENDBRANCH  29  30
ENDBRANCH  28  29
ENDBRANCH  27  28
ENDBRANCH  24  27
ENDBRANCH  18  23
ENDBRANCH   1  17
TORSDOF 10
ENDMDL
