MODEL 1
REMARK VINA RESULT:     -10.0      0.000      0.000
REMARK  6 active torsions:
REMARK  status: ('A' for Active; 'I' for Inactive)
REMARK    1  A    between atoms: O_2  and  C_3 
REMARK    2  A    between atoms: C_5  and  C_6 
REMARK    3  A    between atoms: C_12  and  C_13 
REMARK       I    between atoms: C_13  and  N_14 
REMARK    4  A    between atoms: N_14  and  C_15 
REMARK    5  A    between atoms: C_17  and  O_18 
REMARK    6  A    between atoms: C_23  and  C_24 
ROOT
HETATM    1  C   UNL     1      27.793  44.703  53.209  1.00  0.00     0.118 C 
HETATM    2  N   UNL     1      27.414  43.485  52.476  1.00  0.00    -0.365 N 
HETATM    3  C   UNL     1      26.199  43.413  51.857  1.00  0.00     0.138 A 
HETATM    4  N   UNL     1      25.254  44.396  52.047  1.00  0.00    -0.240 N 
HETATM    5  N   UNL     1      24.092  44.177  51.419  1.00  0.00    -0.181 NA
HETATM    6  C   UNL     1      24.325  43.053  50.740  1.00  0.00     0.160 A 
HETATM    7  C   UNL     1      25.615  42.513  50.980  1.00  0.00     0.096 A 
HETATM    8  C   UNL     1      25.455  45.597  52.834  1.00  0.00     0.221 C 
HETATM    9  C   UNL     1      26.559  45.347  53.864  1.00  0.00     0.066 C 
HETATM   10  H   UNL     1      28.222  43.057  52.022  1.00  0.00     0.161 HD
ENDROOT
BRANCH   7  11
HETATM   11  C   UNL     1      26.125  41.289  50.383  1.00  0.00     0.261 C 
HETATM   12  N   UNL     1      27.478  41.080  50.574  1.00  0.00    -0.323 N 
HETATM   13  H   UNL     1      27.934  41.727  51.207  1.00  0.00     0.169 HD
HETATM   14  O   UNL     1      25.361  40.530  49.797  1.00  0.00    -0.267 OA
BRANCH  12  15
HETATM   15  C   UNL     1      28.263  40.030  50.053  1.00  0.00     0.037 A 
HETATM   16  C   UNL     1      28.899  39.067  50.844  1.00  0.00     0.066 A 
HETATM   17  C   UNL     1      29.650  38.057  50.244  1.00  0.00     0.067 A 
HETATM   18  C   UNL     1      29.777  37.982  48.864  1.00  0.00     0.036 A 
HETATM   19  C   UNL     1      29.144  38.933  48.068  1.00  0.00     0.005 A 
HETATM   20  C   UNL     1      28.392  39.953  48.660  1.00  0.00     0.029 A 
BRANCH  17  21
HETATM   21  O   UNL     1      30.285  37.108  50.993  1.00  0.00    -0.361 OA
HETATM   22  H   UNL     1      30.067  37.260  51.929  1.00  0.00     0.217 HD
ENDBRANCH  17  21
ENDBRANCH  12  15
ENDBRANCH   7  11
BRANCH   1  23
HETATM   23  C   UNL     1      28.835  44.387  54.264  1.00  0.00    -0.033 A 
HETATM   24  C   UNL     1      29.102  45.274  55.322  1.00  0.00     0.046 A 
HETATM   25  C   UNL     1      30.147  45.038  56.220  1.00  0.00     0.068 A 
HETATM   26  C   UNL     1      30.915  43.883  56.090  1.00  0.00     0.037 A 
HETATM   27  C   UNL     1      30.650  42.980  55.059  1.00  0.00     0.003 A 
HETATM   28  C   UNL     1      29.623  43.231  54.147  1.00  0.00     0.009 A 
BRANCH  25  29
HETATM   29  O   UNL     1      30.315  46.005  57.173  1.00  0.00    -0.356 OA
HETATM   30  C   UNL     1      30.635  45.552  58.484  1.00  0.00     0.210 C 
ENDBRANCH  25  29
ENDBRANCH   1  23
BRANCH   8  31
HETATM   31  C   UNL     1      25.766  46.764  51.921  1.00  0.00     0.409 C 
HETATM   32  F   UNL     1      26.476  46.405  50.828  1.00  0.00    -0.169 F 
HETATM   33  F   UNL     1      24.664  47.417  51.499  1.00  0.00    -0.169 F 
HETATM   34  F   UNL     1      26.524  47.676  52.585  1.00  0.00    -0.169 F 
ENDBRANCH   8  31
TORSDOF 6
ENDMDL
MODEL 2
REMARK VINA RESULT:     -10.0      3.917      7.117
REMARK  6 active torsions:
REMARK  status: ('A' for Active; 'I' for Inactive)
REMARK    1  A    between atoms: O_2  and  C_3 
REMARK    2  A    between atoms: C_5  and  C_6 
REMARK    3  A    between atoms: C_12  and  C_13 
REMARK       I    between atoms: C_13  and  N_14 
REMARK    4  A    between atoms: N_14  and  C_15 
REMARK    5  A    between atoms: C_17  and  O_18 
REMARK    6  A    between atoms: C_23  and  C_24 
ROOT
HETATM    1  C   UNL     1      27.767  44.239  53.554  1.00  0.00     0.118 C 
HETATM    2  N   UNL     1      27.048  45.250  52.763  1.00  0.00    -0.365 N 
HETATM    3  C   UNL     1      26.773  45.015  51.446  1.00  0.00     0.138 A 
HETATM    4  N   UNL     1      27.304  43.920  50.801  1.00  0.00    -0.240 N 
HETATM    5  N   UNL     1      26.991  43.837  49.502  1.00  0.00    -0.181 NA
HETATM    6  C   UNL     1      26.169  44.872  49.324  1.00  0.00     0.160 A 
HETATM    7  C   UNL     1      26.002  45.660  50.492  1.00  0.00     0.096 A 
HETATM    8  C   UNL     1      28.120  42.903  51.433  1.00  0.00     0.221 C 
HETATM    9  C   UNL     1      28.788  43.492  52.678  1.00  0.00     0.066 C 
HETATM   10  H   UNL     1      26.354  45.741  53.329  1.00  0.00     0.161 HD
ENDROOT
BRANCH   7  11
HETATM   11  C   UNL     1      25.174  46.852  50.576  1.00  0.00     0.261 C 
HETATM   12  N   UNL     1      24.542  47.194  49.395  1.00  0.00    -0.323 N 
HETATM   13  H   UNL     1      24.621  46.515  48.646  1.00  0.00     0.169 HD
HETATM   14  O   UNL     1      25.062  47.446  51.643  1.00  0.00    -0.267 OA
BRANCH  12  15
HETATM   15  C   UNL     1      23.743  48.331  49.150  1.00  0.00     0.037 A 
HETATM   16  C   UNL     1      22.348  48.338  49.253  1.00  0.00     0.066 A 
HETATM   17  C   UNL     1      21.637  49.511  49.001  1.00  0.00     0.067 A 
HETATM   18  C   UNL     1      22.290  50.685  48.653  1.00  0.00     0.036 A 
HETATM   19  C   UNL     1      23.679  50.688  48.553  1.00  0.00     0.005 A 
HETATM   20  C   UNL     1      24.402  49.516  48.800  1.00  0.00     0.029 A 
BRANCH  17  21
HETATM   21  O   UNL     1      20.274  49.544  49.088  1.00  0.00    -0.361 OA
HETATM   22  H   UNL     1      19.909  49.526  48.187  1.00  0.00     0.217 HD
ENDBRANCH  17  21
ENDBRANCH  12  15
ENDBRANCH   7  11
BRANCH   1  23
HETATM   23  C   UNL     1      28.469  44.886  54.733  1.00  0.00    -0.033 A 
HETATM   24  C   UNL     1      29.711  44.417  55.195  1.00  0.00     0.046 A 
HETATM   25  C   UNL     1      30.294  44.933  56.355  1.00  0.00     0.068 A 
HETATM   26  C   UNL     1      29.653  45.960  57.047  1.00  0.00     0.037 A 
HETATM   27  C   UNL     1      28.430  46.453  56.589  1.00  0.00     0.003 A 
HETATM   28  C   UNL     1      27.837  45.917  55.445  1.00  0.00     0.009 A 
BRANCH  25  29
HETATM   29  O   UNL     1      31.483  44.355  56.708  1.00  0.00    -0.356 OA
HETATM   30  C   UNL     1      31.437  42.974  57.050  1.00  0.00     0.210 C 
ENDBRANCH  25  29
ENDBRANCH   1  23
BRANCH   8  31
HETATM   31  C   UNL     1      27.275  41.687  51.749  1.00  0.00     0.409 C 
HETATM   32  F   UNL     1      27.570  41.135  52.947  1.00  0.00    -0.169 F 
HETATM   33  F   UNL     1      25.951  41.942  51.729  1.00  0.00    -0.169 F 
HETATM   34  F   UNL     1      27.496  40.721  50.818  1.00  0.00    -0.169 F 
ENDBRANCH   8  31
TORSDOF 6
ENDMDL
MODEL 3
REMARK VINA RESULT:      -9.7      2.099      7.267
REMARK  6 active torsions:
REMARK  status: ('A' for Active; 'I' for Inactive)
REMARK    1  A    between atoms: O_2  and  C_3 
REMARK    2  A    between atoms: C_5  and  C_6 
REMARK    3  A    between atoms: C_12  and  C_13 
REMARK       I    between atoms: C_13  and  N_14 
REMARK    4  A    between atoms: N_14  and  C_15 
REMARK    5  A    between atoms: C_17  and  O_18 
REMARK    6  A    between atoms: C_23  and  C_24 
ROOT
HETATM    1  C   UNL     1      26.844  41.041  50.023  1.00  0.00     0.118 C 
HETATM    2  N   UNL     1      27.521  41.622  51.192  1.00  0.00    -0.365 N 
HETATM    3  C   UNL     1      27.253  42.909  51.564  1.00  0.00     0.138 A 
HETATM    4  N   UNL     1      26.486  43.727  50.764  1.00  0.00    -0.240 N 
HETATM    5  N   UNL     1      26.342  44.975  51.225  1.00  0.00    -0.181 NA
HETATM    6  C   UNL     1      26.973  44.937  52.399  1.00  0.00     0.160 A 
HETATM    7  C   UNL     1      27.580  43.682  52.666  1.00  0.00     0.096 A 
HETATM    8  C   UNL     1      25.849  43.315  49.529  1.00  0.00     0.221 C 
HETATM    9  C   UNL     1      26.601  42.115  48.948  1.00  0.00     0.066 C 
HETATM   10  H   UNL     1      27.672  40.923  51.921  1.00  0.00     0.161 HD
ENDROOT
BRANCH   7  11
HETATM   11  C   UNL     1      28.343  43.369  53.864  1.00  0.00     0.261 C 
HETATM   12  N   UNL     1      28.963  44.457  54.447  1.00  0.00    -0.323 N 
HETATM   13  H   UNL     1      28.719  45.360  54.057  1.00  0.00     0.169 HD
HETATM   14  O   UNL     1      28.370  42.219  54.288  1.00  0.00    -0.267 OA
BRANCH  12  15
HETATM   15  C   UNL     1      29.826  44.452  55.565  1.00  0.00     0.037 A 
HETATM   16  C   UNL     1      29.855  45.464  56.530  1.00  0.00     0.066 A 
HETATM   17  C   UNL     1      30.734  45.375  57.608  1.00  0.00     0.067 A 
HETATM   18  C   UNL     1      31.586  44.288  57.749  1.00  0.00     0.036 A 
HETATM   19  C   UNL     1      31.561  43.274  56.796  1.00  0.00     0.005 A 
HETATM   20  C   UNL     1      30.686  43.356  55.708  1.00  0.00     0.029 A 
BRANCH  17  21
HETATM   21  O   UNL     1      30.787  46.352  58.561  1.00  0.00    -0.361 OA
HETATM   22  H   UNL     1      30.492  45.971  59.406  1.00  0.00     0.217 HD
ENDBRANCH  17  21
ENDBRANCH  12  15
ENDBRANCH   7  11
BRANCH   1  23
HETATM   23  C   UNL     1      27.664  39.904  49.444  1.00  0.00    -0.033 A 
HETATM   24  C   UNL     1      28.624  39.224  50.214  1.00  0.00     0.046 A 
HETATM   25  C   UNL     1      29.462  38.262  49.643  1.00  0.00     0.068 A 
HETATM   26  C   UNL     1      29.320  37.942  48.294  1.00  0.00     0.037 A 
HETATM   27  C   UNL     1      28.356  38.591  47.520  1.00  0.00     0.003 A 
HETATM   28  C   UNL     1      27.539  39.570  48.086  1.00  0.00     0.009 A 
BRANCH  25  29
HETATM   29  O   UNL     1      30.375  37.712  50.502  1.00  0.00    -0.356 OA
HETATM   30  C   UNL     1      29.865  36.793  51.462  1.00  0.00     0.210 C 
ENDBRANCH  25  29
ENDBRANCH   1  23
BRANCH   8  31
HETATM   31  C   UNL     1      24.386  43.018  49.779  1.00  0.00     0.409 C 
HETATM   32  F   UNL     1      23.893  42.063  48.959  1.00  0.00    -0.169 F 
HETATM   33  F   UNL     1      24.130  42.641  51.048  1.00  0.00    -0.169 F 
HETATM   34  F   UNL     1      23.645  44.135  49.552  1.00  0.00    -0.169 F 
ENDBRANCH   8  31
TORSDOF 6
ENDMDL
MODEL 4
REMARK VINA RESULT:      -9.5      3.796      6.700
REMARK  6 active torsions:
REMARK  status: ('A' for Active; 'I' for Inactive)
REMARK    1  A    between atoms: O_2  and  C_3 
REMARK    2  A    between atoms: C_5  and  C_6 
REMARK    3  A    between atoms: C_12  and  C_13 
REMARK       I    between atoms: C_13  and  N_14 
REMARK    4  A    between atoms: N_14  and  C_15 
REMARK    5  A    between atoms: C_17  and  O_18 
REMARK    6  A    between atoms: C_23  and  C_24 
ROOT
HETATM    1  C   UNL     1      28.029  43.370  53.462  1.00  0.00     0.118 C 
HETATM    2  N   UNL     1      27.014  44.069  52.660  1.00  0.00    -0.365 N 
HETATM    3  C   UNL     1      26.781  43.685  51.370  1.00  0.00     0.138 A 
HETATM    4  N   UNL     1      27.598  42.764  50.753  1.00  0.00    -0.240 N 
HETATM    5  N   UNL     1      27.284  42.513  49.476  1.00  0.00    -0.181 NA
HETATM    6  C   UNL     1      26.182  43.241  49.289  1.00  0.00     0.160 A 
HETATM    7  C   UNL     1      25.821  44.010  50.425  1.00  0.00     0.096 A 
HETATM    8  C   UNL     1      28.703  42.077  51.392  1.00  0.00     0.221 C 
HETATM    9  C   UNL     1      29.200  42.913  52.574  1.00  0.00     0.066 C 
HETATM   10  H   UNL     1      26.223  44.362  53.235  1.00  0.00     0.161 HD
ENDROOT
BRANCH   7  11
HETATM   11  C   UNL     1      24.675  44.902  50.492  1.00  0.00     0.261 C 
HETATM   12  N   UNL     1      24.556  45.761  49.416  1.00  0.00    -0.323 N 
HETATM   13  H   UNL     1      25.196  45.592  48.649  1.00  0.00     0.169 HD
HETATM   14  O   UNL     1      23.897  44.829  51.437  1.00  0.00    -0.267 OA
BRANCH  12  15
HETATM   15  C   UNL     1      23.597  46.783  49.239  1.00  0.00     0.037 A 
HETATM   16  C   UNL     1      23.805  48.117  49.605  1.00  0.00     0.066 A 
HETATM   17  C   UNL     1      22.805  49.063  49.385  1.00  0.00     0.067 A 
HETATM   18  C   UNL     1      21.598  48.708  48.800  1.00  0.00     0.036 A 
HETATM   19  C   UNL     1      21.384  47.384  48.428  1.00  0.00     0.005 A 
HETATM   20  C   UNL     1      22.379  46.425  48.648  1.00  0.00     0.029 A 
BRANCH  17  21
HETATM   21  O   UNL     1      22.980  50.371  49.738  1.00  0.00    -0.361 OA
HETATM   22  H   UNL     1      23.896  50.486  50.046  1.00  0.00     0.217 HD
ENDBRANCH  17  21
ENDBRANCH  12  15
ENDBRANCH   7  11
BRANCH   1  23
HETATM   23  C   UNL     1      28.540  44.266  54.574  1.00  0.00    -0.033 A 
HETATM   24  C   UNL     1      27.829  45.408  54.982  1.00  0.00     0.046 A 
HETATM   25  C   UNL     1      28.363  46.298  55.919  1.00  0.00     0.068 A 
HETATM   26  C   UNL     1      29.605  46.028  56.490  1.00  0.00     0.037 A 
HETATM   27  C   UNL     1      30.314  44.886  56.113  1.00  0.00     0.003 A 
HETATM   28  C   UNL     1      29.791  44.014  55.157  1.00  0.00     0.009 A 
BRANCH  25  29
HETATM   29  O   UNL     1      27.579  47.386  56.190  1.00  0.00    -0.356 OA
HETATM   30  C   UNL     1      26.682  47.791  55.161  1.00  0.00     0.210 C 
ENDBRANCH  25  29
ENDBRANCH   1  23
BRANCH   8  31
HETATM   31  C   UNL     1      28.275  40.685  51.805  1.00  0.00     0.409 C 
HETATM   32  F   UNL     1      28.814  40.294  52.981  1.00  0.00    -0.169 F 
HETATM   33  F   UNL     1      26.937  40.548  51.900  1.00  0.00    -0.169 F 
HETATM   34  F   UNL     1      28.690  39.783  50.876  1.00  0.00    -0.169 F 
ENDBRANCH   8  31
TORSDOF 6
ENDMDL
MODEL 5
REMARK VINA RESULT:      -9.3      3.374      7.661
REMARK  6 active torsions:
REMARK  status: ('A' for Active; 'I' for Inactive)
REMARK    1  A    between atoms: O_2  and  C_3 
REMARK    2  A    between atoms: C_5  and  C_6 
REMARK    3  A    between atoms: C_12  and  C_13 
REMARK       I    between atoms: C_13  and  N_14 
REMARK    4  A    between atoms: N_14  and  C_15 
REMARK    5  A    between atoms: C_17  and  O_18 
REMARK    6  A    between atoms: C_23  and  C_24 
ROOT
HETATM    1  C   UNL     1      28.461  41.734  51.628  1.00  0.00     0.118 C 
HETATM    2  N   UNL     1      27.444  42.751  51.317  1.00  0.00    -0.365 N 
HETATM    3  C   UNL     1      26.988  43.582  52.300  1.00  0.00     0.138 A 
HETATM    4  N   UNL     1      27.339  43.374  53.615  1.00  0.00    -0.240 N 
HETATM    5  N   UNL     1      26.785  44.233  54.479  1.00  0.00    -0.181 NA
HETATM    6  C   UNL     1      26.115  45.069  53.684  1.00  0.00     0.160 A 
HETATM    7  C   UNL     1      26.185  44.711  52.313  1.00  0.00     0.096 A 
HETATM    8  C   UNL     1      28.245  42.341  54.077  1.00  0.00     0.221 C 
HETATM    9  C   UNL     1      28.270  41.199  53.058  1.00  0.00     0.066 C 
HETATM   10  H   UNL     1      27.571  43.128  50.376  1.00  0.00     0.161 HD
ENDROOT
BRANCH   7  11
HETATM   11  C   UNL     1      25.536  45.437  51.233  1.00  0.00     0.261 C 
HETATM   12  N   UNL     1      26.004  46.724  51.047  1.00  0.00    -0.323 N 
HETATM   13  H   UNL     1      26.823  46.973  51.590  1.00  0.00     0.169 HD
HETATM   14  O   UNL     1      24.672  44.887  50.559  1.00  0.00    -0.267 OA
BRANCH  12  15
HETATM   15  C   UNL     1      25.521  47.687  50.135  1.00  0.00     0.037 A 
HETATM   16  C   UNL     1      26.346  48.489  49.340  1.00  0.00     0.066 A 
HETATM   17  C   UNL     1      25.782  49.410  48.458  1.00  0.00     0.067 A 
HETATM   18  C   UNL     1      24.406  49.546  48.347  1.00  0.00     0.036 A 
HETATM   19  C   UNL     1      23.576  48.749  49.131  1.00  0.00     0.005 A 
HETATM   20  C   UNL     1      24.131  47.824  50.022  1.00  0.00     0.029 A 
BRANCH  17  21
HETATM   21  O   UNL     1      26.565  50.209  47.674  1.00  0.00    -0.361 OA
HETATM   22  H   UNL     1      26.188  50.222  46.777  1.00  0.00     0.217 HD
ENDBRANCH  17  21
ENDBRANCH  12  15
ENDBRANCH   7  11
BRANCH   1  23
HETATM   23  C   UNL     1      28.394  40.592  50.633  1.00  0.00    -0.033 A 
HETATM   24  C   UNL     1      29.117  39.403  50.831  1.00  0.00     0.046 A 
HETATM   25  C   UNL     1      29.151  38.404  49.853  1.00  0.00     0.068 A 
HETATM   26  C   UNL     1      28.425  38.572  48.676  1.00  0.00     0.037 A 
HETATM   27  C   UNL     1      27.684  39.737  48.473  1.00  0.00     0.003 A 
HETATM   28  C   UNL     1      27.673  40.744  49.439  1.00  0.00     0.009 A 
BRANCH  25  29
HETATM   29  O   UNL     1      29.927  37.321  50.165  1.00  0.00    -0.356 OA
HETATM   30  C   UNL     1      29.925  36.913  51.529  1.00  0.00     0.210 C 
ENDBRANCH  25  29
ENDBRANCH   1  23
BRANCH   8  31
HETATM   31  C   UNL     1      29.618  42.931  54.319  1.00  0.00     0.409 C 
HETATM   32  F   UNL     1      30.553  42.465  53.462  1.00  0.00    -0.169 F 
HETATM   33  F   UNL     1      29.636  44.278  54.253  1.00  0.00    -0.169 F 
HETATM   34  F   UNL     1      30.046  42.601  55.567  1.00  0.00    -0.169 F 
ENDBRANCH   8  31
TORSDOF 6
ENDMDL
MODEL 6
REMARK VINA RESULT:      -9.3      5.226      9.312
REMARK  6 active torsions:
REMARK  status: ('A' for Active; 'I' for Inactive)
REMARK    1  A    between atoms: O_2  and  C_3 
REMARK    2  A    between atoms: C_5  and  C_6 
REMARK    3  A    between atoms: C_12  and  C_13 
REMARK       I    between atoms: C_13  and  N_14 
REMARK    4  A    between atoms: N_14  and  C_15 
REMARK    5  A    between atoms: C_17  and  O_18 
REMARK    6  A    between atoms: C_23  and  C_24 
ROOT
HETATM    1  C   UNL     1      20.955  48.308  48.945  1.00  0.00     0.118 C 
HETATM    2  N   UNL     1      22.048  47.495  49.500  1.00  0.00    -0.365 N 
HETATM    3  C   UNL     1      23.343  47.904  49.355  1.00  0.00     0.138 A 
HETATM    4  N   UNL     1      23.655  48.978  48.552  1.00  0.00    -0.240 N 
HETATM    5  N   UNL     1      24.964  49.241  48.462  1.00  0.00    -0.181 NA
HETATM    6  C   UNL     1      25.507  48.354  49.297  1.00  0.00     0.160 A 
HETATM    7  C   UNL     1      24.553  47.476  49.876  1.00  0.00     0.096 A 
HETATM    8  C   UNL     1      22.685  49.802  47.857  1.00  0.00     0.221 C 
HETATM    9  C   UNL     1      21.400  48.998  47.643  1.00  0.00     0.066 C 
HETATM   10  H   UNL     1      21.770  47.046  50.375  1.00  0.00     0.161 HD
ENDROOT
BRANCH   7  11
HETATM   11  C   UNL     1      24.871  46.406  50.807  1.00  0.00     0.261 C 
HETATM   12  N   UNL     1      26.020  46.613  51.545  1.00  0.00    -0.323 N 
HETATM   13  H   UNL     1      26.441  47.530  51.451  1.00  0.00     0.169 HD
HETATM   14  O   UNL     1      24.123  45.439  50.905  1.00  0.00    -0.267 OA
BRANCH  12  15
HETATM   15  C   UNL     1      26.618  45.724  52.465  1.00  0.00     0.037 A 
HETATM   16  C   UNL     1      27.196  44.503  52.105  1.00  0.00     0.066 A 
HETATM   17  C   UNL     1      27.772  43.690  53.080  1.00  0.00     0.067 A 
HETATM   18  C   UNL     1      27.791  44.074  54.414  1.00  0.00     0.036 A 
HETATM   19  C   UNL     1      27.222  45.290  54.781  1.00  0.00     0.005 A 
HETATM   20  C   UNL     1      26.637  46.111  53.812  1.00  0.00     0.029 A 
BRANCH  17  21
HETATM   21  O   UNL     1      28.338  42.490  52.756  1.00  0.00    -0.361 OA
HETATM   22  H   UNL     1      29.306  42.596  52.765  1.00  0.00     0.217 HD
ENDBRANCH  17  21
ENDBRANCH  12  15
ENDBRANCH   7  11
BRANCH   1  23
HETATM   23  C   UNL     1      19.731  47.451  48.686  1.00  0.00    -0.033 A 
HETATM   24  C   UNL     1      19.847  46.108  48.286  1.00  0.00     0.046 A 
HETATM   25  C   UNL     1      18.722  45.359  47.929  1.00  0.00     0.068 A 
HETATM   26  C   UNL     1      17.457  45.940  48.008  1.00  0.00     0.037 A 
HETATM   27  C   UNL     1      17.323  47.265  48.425  1.00  0.00     0.003 A 
HETATM   28  C   UNL     1      18.450  48.019  48.755  1.00  0.00     0.009 A 
BRANCH  25  29
HETATM   29  O   UNL     1      18.989  44.080  47.522  1.00  0.00    -0.356 OA
HETATM   30  C   UNL     1      19.632  43.940  46.259  1.00  0.00     0.210 C 
ENDBRANCH  25  29
ENDBRANCH   1  23
BRANCH   8  31
HETATM   31  C   UNL     1      22.447  51.081  48.630  1.00  0.00     0.409 C 
HETATM   32  F   UNL     1      21.222  51.609  48.414  1.00  0.00    -0.169 F 
HETATM   33  F   UNL     1      22.602  50.933  49.962  1.00  0.00    -0.169 F 
HETATM   34  F   UNL     1      23.344  52.026  48.241  1.00  0.00    -0.169 F 
ENDBRANCH   8  31
TORSDOF 6
ENDMDL
MODEL 7
REMARK VINA RESULT:      -9.2      3.621      6.434
REMARK  6 active torsions:
REMARK  status: ('A' for Active; 'I' for Inactive)
REMARK    1  A    between atoms: O_2  and  C_3 
REMARK    2  A    between atoms: C_5  and  C_6 
REMARK    3  A    between atoms: C_12  and  C_13 
REMARK       I    between atoms: C_13  and  N_14 
REMARK    4  A    between atoms: N_14  and  C_15 
REMARK    5  A    between atoms: C_17  and  O_18 
REMARK    6  A    between atoms: C_23  and  C_24 
ROOT
HETATM    1  C   UNL     1      27.925  43.367  53.318  1.00  0.00     0.118 C 
HETATM    2  N   UNL     1      26.810  43.890  52.513  1.00  0.00    -0.365 N 
HETATM    3  C   UNL     1      26.573  43.381  51.268  1.00  0.00     0.138 A 
HETATM    4  N   UNL     1      27.460  42.505  50.685  1.00  0.00    -0.240 N 
HETATM    5  N   UNL     1      27.128  42.122  49.446  1.00  0.00    -0.181 NA
HETATM    6  C   UNL     1      25.948  42.712  49.255  1.00  0.00     0.160 A 
HETATM    7  C   UNL     1      25.549  43.528  50.346  1.00  0.00     0.096 A 
HETATM    8  C   UNL     1      28.656  41.991  51.323  1.00  0.00     0.221 C 
HETATM    9  C   UNL     1      29.104  42.966  52.415  1.00  0.00     0.066 C 
HETATM   10  H   UNL     1      26.014  44.143  53.100  1.00  0.00     0.161 HD
ENDROOT
BRANCH   7  11
HETATM   11  C   UNL     1      24.316  44.297  50.397  1.00  0.00     0.261 C 
HETATM   12  N   UNL     1      23.669  44.423  49.183  1.00  0.00    -0.323 N 
HETATM   13  H   UNL     1      24.051  43.868  48.426  1.00  0.00     0.169 HD
HETATM   14  O   UNL     1      23.920  44.746  51.467  1.00  0.00    -0.267 OA
BRANCH  12  15
HETATM   15  C   UNL     1      22.503  45.168  48.908  1.00  0.00     0.037 A 
HETATM   16  C   UNL     1      21.213  44.626  48.913  1.00  0.00     0.066 A 
HETATM   17  C   UNL     1      20.114  45.439  48.637  1.00  0.00     0.067 A 
HETATM   18  C   UNL     1      20.273  46.790  48.362  1.00  0.00     0.036 A 
HETATM   19  C   UNL     1      21.552  47.340  48.360  1.00  0.00     0.005 A 
HETATM   20  C   UNL     1      22.662  46.532  48.630  1.00  0.00     0.029 A 
BRANCH  17  21
HETATM   21  O   UNL     1      18.845  44.934  48.630  1.00  0.00    -0.361 OA
HETATM   22  H   UNL     1      18.525  44.899  49.548  1.00  0.00     0.217 HD
ENDBRANCH  17  21
ENDBRANCH  12  15
ENDBRANCH   7  11
BRANCH   1  23
HETATM   23  C   UNL     1      28.376  44.397  54.335  1.00  0.00    -0.033 A 
HETATM   24  C   UNL     1      29.545  44.216  55.095  1.00  0.00     0.046 A 
HETATM   25  C   UNL     1      29.891  45.105  56.117  1.00  0.00     0.068 A 
HETATM   26  C   UNL     1      29.084  46.215  56.362  1.00  0.00     0.037 A 
HETATM   27  C   UNL     1      27.932  46.422  55.602  1.00  0.00     0.003 A 
HETATM   28  C   UNL     1      27.575  45.518  54.600  1.00  0.00     0.009 A 
BRANCH  25  29
HETATM   29  O   UNL     1      31.032  44.781  56.799  1.00  0.00    -0.356 OA
HETATM   30  C   UNL     1      31.394  43.404  56.808  1.00  0.00     0.210 C 
ENDBRANCH  25  29
ENDBRANCH   1  23
BRANCH   8  31
HETATM   31  C   UNL     1      28.397  40.599  51.858  1.00  0.00     0.409 C 
HETATM   32  F   UNL     1      29.043  40.351  53.019  1.00  0.00    -0.169 F 
HETATM   33  F   UNL     1      27.088  40.340  52.053  1.00  0.00    -0.169 F 
HETATM   34  F   UNL     1      28.845  39.675  50.968  1.00  0.00    -0.169 F 
ENDBRANCH   8  31
TORSDOF 6
ENDMDL
MODEL 8
REMARK VINA RESULT:      -9.0      4.449      8.162
REMARK  6 active torsions:
REMARK  status: ('A' for Active; 'I' for Inactive)
REMARK    1  A    between atoms: O_2  and  C_3 
REMARK    2  A    between atoms: C_5  and  C_6 
REMARK    3  A    between atoms: C_12  and  C_13 
REMARK       I    between atoms: C_13  and  N_14 
REMARK    4  A    between atoms: N_14  and  C_15 
REMARK    5  A    between atoms: C_17  and  O_18 
REMARK    6  A    between atoms: C_23  and  C_24 
ROOT
HETATM    1  C   UNL     1      23.043  46.792  48.732  1.00  0.00     0.118 C 
HETATM    2  N   UNL     1      23.975  46.432  49.811  1.00  0.00    -0.365 N 
HETATM    3  C   UNL     1      24.025  45.146  50.268  1.00  0.00     0.138 A 
HETATM    4  N   UNL     1      23.099  44.216  49.852  1.00  0.00    -0.240 N 
HETATM    5  N   UNL     1      23.237  43.008  50.413  1.00  0.00    -0.181 NA
HETATM    6  C   UNL     1      24.335  43.146  51.158  1.00  0.00     0.160 A 
HETATM    7  C   UNL     1      24.869  44.460  51.127  1.00  0.00     0.096 A 
HETATM    8  C   UNL     1      22.058  44.464  48.875  1.00  0.00     0.221 C 
HETATM    9  C   UNL     1      21.750  45.963  48.835  1.00  0.00     0.066 C 
HETATM   10  H   UNL     1      24.845  46.963  49.743  1.00  0.00     0.161 HD
ENDROOT
BRANCH   7  11
HETATM   11  C   UNL     1      26.050  44.892  51.857  1.00  0.00     0.261 C 
HETATM   12  N   UNL     1      26.608  43.922  52.666  1.00  0.00    -0.323 N 
HETATM   13  H   UNL     1      26.216  42.992  52.568  1.00  0.00     0.169 HD
HETATM   14  O   UNL     1      26.484  46.028  51.701  1.00  0.00    -0.267 OA
BRANCH  12  15
HETATM   15  C   UNL     1      27.704  44.066  53.544  1.00  0.00     0.037 A 
HETATM   16  C   UNL     1      27.801  45.074  54.509  1.00  0.00     0.066 A 
HETATM   17  C   UNL     1      28.918  45.137  55.342  1.00  0.00     0.067 A 
HETATM   18  C   UNL     1      29.943  44.207  55.237  1.00  0.00     0.036 A 
HETATM   19  C   UNL     1      29.853  43.197  54.283  1.00  0.00     0.005 A 
HETATM   20  C   UNL     1      28.739  43.128  53.440  1.00  0.00     0.029 A 
BRANCH  17  21
HETATM   21  O   UNL     1      29.040  46.114  56.288  1.00  0.00    -0.361 OA
HETATM   22  H   UNL     1      28.775  46.961  55.890  1.00  0.00     0.217 HD
ENDBRANCH  17  21
ENDBRANCH  12  15
ENDBRANCH   7  11
BRANCH   1  23
HETATM   23  C   UNL     1      22.715  48.272  48.781  1.00  0.00    -0.033 A 
HETATM   24  C   UNL     1      21.443  48.730  49.163  1.00  0.00     0.046 A 
HETATM   25  C   UNL     1      21.108  50.085  49.087  1.00  0.00     0.068 A 
HETATM   26  C   UNL     1      22.065  51.006  48.663  1.00  0.00     0.037 A 
HETATM   27  C   UNL     1      23.341  50.570  48.302  1.00  0.00     0.003 A 
HETATM   28  C   UNL     1      23.664  49.213  48.353  1.00  0.00     0.009 A 
BRANCH  25  29
HETATM   29  O   UNL     1      19.822  50.381  49.452  1.00  0.00    -0.356 OA
HETATM   30  C   UNL     1      19.088  49.337  50.082  1.00  0.00     0.210 C 
ENDBRANCH  25  29
ENDBRANCH   1  23
BRANCH   8  31
HETATM   31  C   UNL     1      22.477  43.921  47.526  1.00  0.00     0.409 C 
HETATM   32  F   UNL     1      21.947  44.611  46.491  1.00  0.00    -0.169 F 
HETATM   33  F   UNL     1      23.815  43.892  47.358  1.00  0.00    -0.169 F 
HETATM   34  F   UNL     1      22.044  42.640  47.392  1.00  0.00    -0.169 F 
ENDBRANCH   8  31
TORSDOF 6
ENDMDL
MODEL 9
REMARK VINA RESULT:      -8.7      3.368      7.611
REMARK  6 active torsions:
REMARK  status: ('A' for Active; 'I' for Inactive)
REMARK    1  A    between atoms: O_2  and  C_3 
REMARK    2  A    between atoms: C_5  and  C_6 
REMARK    3  A    between atoms: C_12  and  C_13 
REMARK       I    between atoms: C_13  and  N_14 
REMARK    4  A    between atoms: N_14  and  C_15 
REMARK    5  A    between atoms: C_17  and  O_18 
REMARK    6  A    between atoms: C_23  and  C_24 
ROOT
HETATM    1  C   UNL     1      26.207  43.839  49.528  1.00  0.00     0.118 C 
HETATM    2  N   UNL     1      27.117  43.730  50.679  1.00  0.00    -0.365 N 
HETATM    3  C   UNL     1      27.568  42.503  51.077  1.00  0.00     0.138 A 
HETATM    4  N   UNL     1      27.052  41.352  50.526  1.00  0.00    -0.240 N 
HETATM    5  N   UNL     1      27.549  40.220  51.040  1.00  0.00    -0.181 NA
HETATM    6  C   UNL     1      28.471  40.660  51.898  1.00  0.00     0.160 A 
HETATM    7  C   UNL     1      28.524  42.076  51.983  1.00  0.00     0.096 A 
HETATM    8  C   UNL     1      26.069  41.312  49.461  1.00  0.00     0.221 C 
HETATM    9  C   UNL     1      25.272  42.618  49.461  1.00  0.00     0.066 C 
HETATM   10  H   UNL     1      27.756  44.526  50.724  1.00  0.00     0.161 HD
ENDROOT
BRANCH   7  11
HETATM   11  C   UNL     1      29.425  42.820  52.849  1.00  0.00     0.261 C 
HETATM   12  N   UNL     1      28.950  43.023  54.130  1.00  0.00    -0.323 N 
HETATM   13  H   UNL     1      28.095  42.529  54.362  1.00  0.00     0.169 HD
HETATM   14  O   UNL     1      30.517  43.185  52.426  1.00  0.00    -0.267 OA
BRANCH  12  15
HETATM   15  C   UNL     1      29.560  43.768  55.162  1.00  0.00     0.037 A 
HETATM   16  C   UNL     1      30.614  43.290  55.948  1.00  0.00     0.066 A 
HETATM   17  C   UNL     1      31.164  44.099  56.942  1.00  0.00     0.067 A 
HETATM   18  C   UNL     1      30.689  45.384  57.165  1.00  0.00     0.036 A 
HETATM   19  C   UNL     1      29.644  45.869  56.384  1.00  0.00     0.005 A 
HETATM   20  C   UNL     1      29.081  45.065  55.387  1.00  0.00     0.029 A 
BRANCH  17  21
HETATM   21  O   UNL     1      32.189  43.655  57.727  1.00  0.00    -0.361 OA
HETATM   22  H   UNL     1      32.712  44.425  58.012  1.00  0.00     0.217 HD
ENDBRANCH  17  21
ENDBRANCH  12  15
ENDBRANCH   7  11
BRANCH   1  23
HETATM   23  C   UNL     1      25.391  45.114  49.614  1.00  0.00    -0.033 A 
HETATM   24  C   UNL     1      24.104  45.202  49.054  1.00  0.00     0.046 A 
HETATM   25  C   UNL     1      23.407  46.413  49.025  1.00  0.00     0.068 A 
HETATM   26  C   UNL     1      23.979  47.547  49.598  1.00  0.00     0.037 A 
HETATM   27  C   UNL     1      25.246  47.472  50.179  1.00  0.00     0.003 A 
HETATM   28  C   UNL     1      25.951  46.268  50.182  1.00  0.00     0.009 A 
BRANCH  25  29
HETATM   29  O   UNL     1      22.184  46.358  48.413  1.00  0.00    -0.356 OA
HETATM   30  C   UNL     1      22.019  45.352  47.420  1.00  0.00     0.210 C 
ENDBRANCH  25  29
ENDBRANCH   1  23
BRANCH   8  31
HETATM   31  C   UNL     1      26.754  41.050  48.137  1.00  0.00     0.409 C 
HETATM   32  F   UNL     1      26.077  41.555  47.083  1.00  0.00    -0.169 F 
HETATM   33  F   UNL     1      28.013  41.531  48.086  1.00  0.00    -0.169 F 
HETATM   34  F   UNL     1      26.845  39.710  47.925  1.00  0.00    -0.169 F 
ENDBRANCH   8  31
TORSDOF 6
ENDMDL
MODEL 10
REMARK VINA RESULT:      -8.4      3.798      8.715
REMARK  6 active torsions:
REMARK  status: ('A' for Active; 'I' for Inactive)
REMARK    1  A    between atoms: O_2  and  C_3 
REMARK    2  A    between atoms: C_5  and  C_6 
REMARK    3  A    between atoms: C_12  and  C_13 
REMARK       I    between atoms: C_13  and  N_14 
REMARK    4  A    between atoms: N_14  and  C_15 
REMARK    5  A    between atoms: C_17  and  O_18 
REMARK    6  A    between atoms: C_23  and  C_24 
ROOT
HETATM    1  C   UNL     1      26.499  40.508  48.713  1.00  0.00     0.118 C 
HETATM    2  N   UNL     1      26.718  41.551  49.727  1.00  0.00    -0.365 N 
HETATM    3  C   UNL     1      27.637  41.355  50.718  1.00  0.00     0.138 A 
HETATM    4  N   UNL     1      28.242  40.130  50.884  1.00  0.00    -0.240 N 
HETATM    5  N   UNL     1      29.086  40.064  51.921  1.00  0.00    -0.181 NA
HETATM    6  C   UNL     1      29.080  41.312  52.392  1.00  0.00     0.160 A 
HETATM    7  C   UNL     1      28.184  42.166  51.699  1.00  0.00     0.096 A 
HETATM    8  C   UNL     1      28.036  38.981  50.023  1.00  0.00     0.221 C 
HETATM    9  C   UNL     1      26.678  39.109  49.328  1.00  0.00     0.066 C 
HETATM   10  H   UNL     1      26.619  42.485  49.327  1.00  0.00     0.161 HD
ENDROOT
BRANCH   7  11
HETATM   11  C   UNL     1      27.968  43.570  52.013  1.00  0.00     0.261 C 
HETATM   12  N   UNL     1      28.000  43.865  53.362  1.00  0.00    -0.323 N 
HETATM   13  H   UNL     1      28.292  43.108  53.968  1.00  0.00     0.169 HD
HETATM   14  O   UNL     1      27.806  44.381  51.107  1.00  0.00    -0.267 OA
BRANCH  12  15
HETATM   15  C   UNL     1      27.750  45.115  53.970  1.00  0.00     0.037 A 
HETATM   16  C   UNL     1      26.650  45.922  53.667  1.00  0.00     0.066 A 
HETATM   17  C   UNL     1      26.476  47.140  54.324  1.00  0.00     0.067 A 
HETATM   18  C   UNL     1      27.379  47.569  55.287  1.00  0.00     0.036 A 
HETATM   19  C   UNL     1      28.475  46.770  55.599  1.00  0.00     0.005 A 
HETATM   20  C   UNL     1      28.661  45.549  54.943  1.00  0.00     0.029 A 
BRANCH  17  21
HETATM   21  O   UNL     1      25.414  47.950  54.043  1.00  0.00    -0.361 OA
HETATM   22  H   UNL     1      25.447  48.182  53.099  1.00  0.00     0.217 HD
ENDBRANCH  17  21
ENDBRANCH  12  15
ENDBRANCH   7  11
BRANCH   1  23
HETATM   23  C   UNL     1      25.115  40.635  48.108  1.00  0.00    -0.033 A 
HETATM   24  C   UNL     1      24.214  41.626  48.535  1.00  0.00     0.046 A 
HETATM   25  C   UNL     1      22.899  41.662  48.064  1.00  0.00     0.068 A 
HETATM   26  C   UNL     1      22.481  40.723  47.122  1.00  0.00     0.037 A 
HETATM   27  C   UNL     1      23.369  39.745  46.671  1.00  0.00     0.003 A 
HETATM   28  C   UNL     1      24.674  39.695  47.163  1.00  0.00     0.009 A 
BRANCH  25  29
HETATM   29  O   UNL     1      22.124  42.657  48.597  1.00  0.00    -0.356 OA
HETATM   30  C   UNL     1      22.693  43.391  49.676  1.00  0.00     0.210 C 
ENDBRANCH  25  29
ENDBRANCH   1  23
BRANCH   8  31
HETATM   31  C   UNL     1      29.182  38.862  49.041  1.00  0.00     0.409 C 
HETATM   32  F   UNL     1      29.608  40.058  48.578  1.00  0.00    -0.169 F 
HETATM   33  F   UNL     1      30.250  38.213  49.548  1.00  0.00    -0.169 F 
HETATM   34  F   UNL     1      28.781  38.152  47.953  1.00  0.00    -0.169 F 
ENDBRANCH   8  31
TORSDOF 6
ENDMDL
