MODEL 1
REMARK VINA RESULT:     -11.0      0.000      0.000
REMARK  7 active torsions:
REMARK  status: ('A' for Active; 'I' for Inactive)
REMARK    1  A    between atoms: C_3  and  C_4 
REMARK       I    between atoms: C_4  and  N_5 
REMARK    2  A    between atoms: N_5  and  C_6 
REMARK    3  A    between atoms: C_6  and  C_7 
REMARK    4  A    between atoms: N_23  and  C_24 
REMARK    5  A    between atoms: C_24  and  C_25 
REMARK       I    between atoms: C_25  and  N_26 
REMARK    6  A    between atoms: N_26  and  C_27 
REMARK    7  A    between atoms: C_29  and  C_30 
ROOT
HETATM    1  C   UNL     1      25.670  47.907  50.007  1.00  0.00     0.051 C 
HETATM    2  C   UNL     1      24.696  46.792  49.770  1.00  0.00    -0.021 A 
HETATM    3  C   UNL     1      23.442  46.949  49.179  1.00  0.00     0.081 A 
HETATM    4  S   UNL     1      22.635  45.441  49.011  1.00  0.00    -0.063 SA
HETATM    5  C   UNL     1      23.906  44.581  49.729  1.00  0.00     0.116 A 
HETATM    6  C   UNL     1      24.925  45.412  50.136  1.00  0.00     0.075 A 
HETATM    7  C   UNL     1      26.050  44.797  50.829  1.00  0.00     0.262 A 
HETATM    8  O   UNL     1      26.958  45.445  51.338  1.00  0.00    -0.267 OA
HETATM    9  N   UNL     1      25.980  43.406  50.902  1.00  0.00    -0.299 N 
HETATM   10  C   UNL     1      24.898  42.704  50.402  1.00  0.00     0.214 A 
HETATM   11  N   UNL     1      23.854  43.232  49.853  1.00  0.00    -0.235 NA
ENDROOT
BRANCH   3  12
HETATM   12  C   UNL     1      22.801  48.187  48.723  1.00  0.00     0.259 C 
HETATM   13  N   UNL     1      21.784  48.662  49.524  1.00  0.00    -0.354 N 
HETATM   14  H   UNL     1      21.646  48.193  50.412  1.00  0.00     0.162 HD
HETATM   15  O   UNL     1      23.138  48.796  47.710  1.00  0.00    -0.267 OA
BRANCH  13  16
HETATM   16  C   UNL     1      21.157  49.948  49.301  1.00  0.00     0.157 C 
BRANCH  16  17
HETATM   17  C   UNL     1      19.909  50.239  50.158  1.00  0.00     0.171 C 
HETATM   18  O   UNL     1      19.109  49.055  50.315  1.00  0.00    -0.339 OA
HETATM   19  C   UNL     1      18.070  48.964  49.426  1.00  0.00     0.102 A 
HETATM   20  C   UNL     1      17.710  49.988  48.547  1.00  0.00     0.102 A 
HETATM   21  C   UNL     1      17.382  47.752  49.399  1.00  0.00     0.039 A 
HETATM   22  O   UNL     1      18.362  51.191  48.496  1.00  0.00    -0.346 OA
HETATM   23  C   UNL     1      16.693  49.788  47.616  1.00  0.00     0.039 A 
HETATM   24  C   UNL     1      19.079  51.439  49.706  1.00  0.00     0.209 C 
HETATM   25  C   UNL     1      16.013  48.569  47.582  1.00  0.00     0.003 A 
HETATM   26  C   UNL     1      16.354  47.555  48.476  1.00  0.00     0.003 A 
ENDBRANCH  16  17
ENDBRANCH  13  16
ENDBRANCH   3  12
BRANCH   9  27
HETATM   27  C   UNL     1      27.102  42.673  51.475  1.00  0.00     0.236 C 
BRANCH  27  28
HETATM   28  C   UNL     1      27.438  43.014  52.933  1.00  0.00     0.240 C 
HETATM   29  N   UNL     1      28.653  43.644  53.129  1.00  0.00    -0.326 N 
HETATM   30  H   UNL     1      29.292  43.660  52.343  1.00  0.00     0.169 HD
HETATM   31  O   UNL     1      26.621  42.747  53.812  1.00  0.00    -0.271 OA
BRANCH  29  32
HETATM   32  C   UNL     1      29.125  44.248  54.314  1.00  0.00     0.035 A 
HETATM   33  C   UNL     1      30.077  43.673  55.161  1.00  0.00     0.045 A 
HETATM   34  C   UNL     1      30.472  44.313  56.349  1.00  0.00     0.050 A 
HETATM   35  C   UNL     1      29.896  45.548  56.683  1.00  0.00     0.016 A 
HETATM   36  C   UNL     1      28.949  46.129  55.844  1.00  0.00     0.003 A 
HETATM   37  C   UNL     1      28.566  45.483  54.667  1.00  0.00     0.029 A 
BRANCH  34  38
HETATM   38  C   UNL     1      31.490  43.687  57.271  1.00  0.00     0.417 C 
HETATM   39  F   UNL     1      31.159  42.437  57.698  1.00  0.00    -0.166 F 
HETATM   40  F   UNL     1      32.717  43.570  56.690  1.00  0.00    -0.166 F 
HETATM   41  F   UNL     1      31.684  44.426  58.401  1.00  0.00    -0.166 F 
ENDBRANCH  34  38
ENDBRANCH  29  32
ENDBRANCH  27  28
ENDBRANCH   9  27
TORSDOF 7
ENDMDL
MODEL 2
REMARK VINA RESULT:     -10.5      1.612      2.664
REMARK  7 active torsions:
REMARK  status: ('A' for Active; 'I' for Inactive)
REMARK    1  A    between atoms: C_3  and  C_4 
REMARK       I    between atoms: C_4  and  N_5 
REMARK    2  A    between atoms: N_5  and  C_6 
REMARK    3  A    between atoms: C_6  and  C_7 
REMARK    4  A    between atoms: N_23  and  C_24 
REMARK    5  A    between atoms: C_24  and  C_25 
REMARK       I    between atoms: C_25  and  N_26 
REMARK    6  A    between atoms: N_26  and  C_27 
REMARK    7  A    between atoms: C_29  and  C_30 
ROOT
HETATM    1  C   UNL     1      22.267  44.630  48.264  1.00  0.00     0.051 C 
HETATM    2  C   UNL     1      23.045  45.761  48.870  1.00  0.00    -0.021 A 
HETATM    3  C   UNL     1      22.819  47.110  48.600  1.00  0.00     0.081 A 
HETATM    4  S   UNL     1      23.858  48.117  49.528  1.00  0.00    -0.063 SA
HETATM    5  C   UNL     1      24.622  46.797  50.267  1.00  0.00     0.116 A 
HETATM    6  C   UNL     1      24.138  45.595  49.800  1.00  0.00     0.075 A 
HETATM    7  C   UNL     1      24.762  44.383  50.313  1.00  0.00     0.262 A 
HETATM    8  O   UNL     1      24.497  43.262  49.889  1.00  0.00    -0.267 OA
HETATM    9  N   UNL     1      25.723  44.610  51.298  1.00  0.00    -0.299 N 
HETATM   10  C   UNL     1      26.072  45.890  51.693  1.00  0.00     0.214 A 
HETATM   11  N   UNL     1      25.588  46.981  51.200  1.00  0.00    -0.235 NA
ENDROOT
BRANCH   3  12
HETATM   12  C   UNL     1      21.851  47.703  47.671  1.00  0.00     0.259 C 
HETATM   13  N   UNL     1      20.768  46.911  47.351  1.00  0.00    -0.354 N 
HETATM   14  H   UNL     1      20.667  46.046  47.871  1.00  0.00     0.162 HD
HETATM   15  O   UNL     1      21.958  48.836  47.206  1.00  0.00    -0.267 OA
BRANCH  13  16
HETATM   16  C   UNL     1      19.648  47.402  46.577  1.00  0.00     0.157 C 
BRANCH  16  17
HETATM   17  C   UNL     1      18.377  47.738  47.382  1.00  0.00     0.171 C 
HETATM   18  O   UNL     1      17.951  49.087  47.127  1.00  0.00    -0.339 OA
HETATM   19  C   UNL     1      18.381  49.992  48.060  1.00  0.00     0.102 A 
HETATM   20  C   UNL     1      19.039  49.636  49.239  1.00  0.00     0.102 A 
HETATM   21  C   UNL     1      18.168  51.337  47.762  1.00  0.00     0.039 A 
HETATM   22  O   UNL     1      19.311  48.338  49.579  1.00  0.00    -0.346 OA
HETATM   23  C   UNL     1      19.518  50.623  50.099  1.00  0.00     0.039 A 
HETATM   24  C   UNL     1      18.458  47.433  48.876  1.00  0.00     0.209 C 
HETATM   25  C   UNL     1      19.315  51.969  49.794  1.00  0.00     0.003 A 
HETATM   26  C   UNL     1      18.636  52.326  48.630  1.00  0.00     0.003 A 
ENDBRANCH  16  17
ENDBRANCH  13  16
ENDBRANCH   3  12
BRANCH   9  27
HETATM   27  C   UNL     1      26.336  43.468  51.963  1.00  0.00     0.236 C 
BRANCH  27  28
HETATM   28  C   UNL     1      26.884  43.739  53.370  1.00  0.00     0.240 C 
HETATM   29  N   UNL     1      28.241  43.992  53.440  1.00  0.00    -0.326 N 
HETATM   30  H   UNL     1      28.785  43.797  52.607  1.00  0.00     0.169 HD
HETATM   31  O   UNL     1      26.105  43.748  54.323  1.00  0.00    -0.271 OA
BRANCH  29  32
HETATM   32  C   UNL     1      28.970  44.466  54.551  1.00  0.00     0.035 A 
HETATM   33  C   UNL     1      29.934  43.718  55.233  1.00  0.00     0.045 A 
HETATM   34  C   UNL     1      30.594  44.240  56.360  1.00  0.00     0.050 A 
HETATM   35  C   UNL     1      30.273  45.533  56.801  1.00  0.00     0.016 A 
HETATM   36  C   UNL     1      29.316  46.286  56.125  1.00  0.00     0.003 A 
HETATM   37  C   UNL     1      28.669  45.756  55.007  1.00  0.00     0.029 A 
BRANCH  34  38
HETATM   38  C   UNL     1      31.625  43.428  57.106  1.00  0.00     0.417 C 
HETATM   39  F   UNL     1      31.148  42.260  57.617  1.00  0.00    -0.166 F 
HETATM   40  F   UNL     1      32.686  43.087  56.321  1.00  0.00    -0.166 F 
HETATM   41  F   UNL     1      32.150  44.110  58.164  1.00  0.00    -0.166 F 
ENDBRANCH  34  38
ENDBRANCH  29  32
ENDBRANCH  27  28
ENDBRANCH   9  27
TORSDOF 7
ENDMDL
MODEL 3
REMARK VINA RESULT:     -10.4      1.848      2.758
REMARK  7 active torsions:
REMARK  status: ('A' for Active; 'I' for Inactive)
REMARK    1  A    between atoms: C_3  and  C_4 
REMARK       I    between atoms: C_4  and  N_5 
REMARK    2  A    between atoms: N_5  and  C_6 
REMARK    3  A    between atoms: C_6  and  C_7 
REMARK    4  A    between atoms: N_23  and  C_24 
REMARK    5  A    between atoms: C_24  and  C_25 
REMARK       I    between atoms: C_25  and  N_26 
REMARK    6  A    between atoms: N_26  and  C_27 
REMARK    7  A    between atoms: C_29  and  C_30 
ROOT
HETATM    1  C   UNL     1      22.574  43.947  48.846  1.00  0.00     0.051 C 
HETATM    2  C   UNL     1      23.462  45.058  49.322  1.00  0.00    -0.021 A 
HETATM    3  C   UNL     1      23.205  46.415  49.126  1.00  0.00     0.081 A 
HETATM    4  S   UNL     1      24.406  47.394  49.870  1.00  0.00    -0.063 SA
HETATM    5  C   UNL     1      25.277  46.053  50.430  1.00  0.00     0.116 A 
HETATM    6  C   UNL     1      24.704  44.865  50.035  1.00  0.00     0.075 A 
HETATM    7  C   UNL     1      25.398  43.637  50.400  1.00  0.00     0.262 A 
HETATM    8  O   UNL     1      25.049  42.528  50.009  1.00  0.00    -0.267 OA
HETATM    9  N   UNL     1      26.525  43.837  51.198  1.00  0.00    -0.299 N 
HETATM   10  C   UNL     1      26.953  45.105  51.549  1.00  0.00     0.214 A 
HETATM   11  N   UNL     1      26.399  46.210  51.175  1.00  0.00    -0.235 NA
ENDROOT
BRANCH   3  12
HETATM   12  C   UNL     1      22.090  47.034  48.401  1.00  0.00     0.259 C 
HETATM   13  N   UNL     1      21.066  47.523  49.185  1.00  0.00    -0.354 N 
HETATM   14  H   UNL     1      21.221  47.525  50.186  1.00  0.00     0.162 HD
HETATM   15  O   UNL     1      22.051  47.145  47.177  1.00  0.00    -0.267 OA
BRANCH  13  16
HETATM   16  C   UNL     1      19.973  48.299  48.639  1.00  0.00     0.157 C 
BRANCH  16  17
HETATM   17  C   UNL     1      18.638  48.199  49.401  1.00  0.00     0.171 C 
HETATM   18  O   UNL     1      17.544  48.637  48.579  1.00  0.00    -0.339 OA
HETATM   19  C   UNL     1      17.181  49.942  48.785  1.00  0.00     0.102 A 
HETATM   20  C   UNL     1      17.708  50.741  49.802  1.00  0.00     0.102 A 
HETATM   21  C   UNL     1      16.265  50.480  47.883  1.00  0.00     0.039 A 
HETATM   22  O   UNL     1      18.636  50.289  50.702  1.00  0.00    -0.346 OA
HETATM   23  C   UNL     1      17.349  52.085  49.895  1.00  0.00     0.039 A 
HETATM   24  C   UNL     1      18.626  48.863  50.777  1.00  0.00     0.209 C 
HETATM   25  C   UNL     1      16.441  52.625  48.984  1.00  0.00     0.003 A 
HETATM   26  C   UNL     1      15.895  51.823  47.983  1.00  0.00     0.003 A 
ENDBRANCH  16  17
ENDBRANCH  13  16
ENDBRANCH   3  12
BRANCH   9  27
HETATM   27  C   UNL     1      27.236  42.676  51.717  1.00  0.00     0.236 C 
BRANCH  27  28
HETATM   28  C   UNL     1      27.695  42.781  53.178  1.00  0.00     0.240 C 
HETATM   29  N   UNL     1      28.980  43.258  53.363  1.00  0.00    -0.326 N 
HETATM   30  H   UNL     1      29.567  43.319  52.540  1.00  0.00     0.169 HD
HETATM   31  O   UNL     1      26.909  42.477  54.074  1.00  0.00    -0.271 OA
BRANCH  29  32
HETATM   32  C   UNL     1      29.584  43.646  54.577  1.00  0.00     0.035 A 
HETATM   33  C   UNL     1      29.090  44.653  55.412  1.00  0.00     0.045 A 
HETATM   34  C   UNL     1      29.768  45.017  56.589  1.00  0.00     0.050 A 
HETATM   35  C   UNL     1      30.959  44.355  56.923  1.00  0.00     0.016 A 
HETATM   36  C   UNL     1      31.457  43.350  56.099  1.00  0.00     0.003 A 
HETATM   37  C   UNL     1      30.774  42.997  54.933  1.00  0.00     0.029 A 
BRANCH  34  38
HETATM   38  C   UNL     1      29.242  46.112  57.485  1.00  0.00     0.417 C 
HETATM   39  F   UNL     1      28.483  47.040  56.839  1.00  0.00    -0.166 F 
HETATM   40  F   UNL     1      28.463  45.630  58.495  1.00  0.00    -0.166 F 
HETATM   41  F   UNL     1      30.245  46.808  58.090  1.00  0.00    -0.166 F 
ENDBRANCH  34  38
ENDBRANCH  29  32
ENDBRANCH  27  28
ENDBRANCH   9  27
TORSDOF 7
ENDMDL
MODEL 4
REMARK VINA RESULT:     -10.1      2.190      3.609
REMARK  7 active torsions:
REMARK  status: ('A' for Active; 'I' for Inactive)
REMARK    1  A    between atoms: C_3  and  C_4 
REMARK       I    between atoms: C_4  and  N_5 
REMARK    2  A    between atoms: N_5  and  C_6 
REMARK    3  A    between atoms: C_6  and  C_7 
REMARK    4  A    between atoms: N_23  and  C_24 
REMARK    5  A    between atoms: C_24  and  C_25 
REMARK       I    between atoms: C_25  and  N_26 
REMARK    6  A    between atoms: N_26  and  C_27 
REMARK    7  A    between atoms: C_29  and  C_30 
ROOT
HETATM    1  C   UNL     1      20.281  47.262  47.983  1.00  0.00     0.051 C 
HETATM    2  C   UNL     1      21.407  48.134  48.455  1.00  0.00    -0.021 A 
HETATM    3  C   UNL     1      21.340  49.523  48.562  1.00  0.00     0.081 A 
HETATM    4  S   UNL     1      22.798  50.173  49.201  1.00  0.00    -0.063 SA
HETATM    5  C   UNL     1      23.529  48.648  49.319  1.00  0.00     0.116 A 
HETATM    6  C   UNL     1      22.711  47.647  48.847  1.00  0.00     0.075 A 
HETATM    7  C   UNL     1      23.252  46.295  48.834  1.00  0.00     0.262 A 
HETATM    8  O   UNL     1      22.664  45.342  48.333  1.00  0.00    -0.267 OA
HETATM    9  N   UNL     1      24.522  46.185  49.402  1.00  0.00    -0.299 N 
HETATM   10  C   UNL     1      25.204  47.291  49.877  1.00  0.00     0.214 A 
HETATM   11  N   UNL     1      24.777  48.510  49.830  1.00  0.00    -0.235 NA
ENDROOT
BRANCH   3  12
HETATM   12  C   UNL     1      20.228  50.410  48.208  1.00  0.00     0.259 C 
HETATM   13  N   UNL     1      19.770  51.228  49.220  1.00  0.00    -0.354 N 
HETATM   14  H   UNL     1      20.312  51.237  50.076  1.00  0.00     0.162 HD
HETATM   15  O   UNL     1      19.727  50.461  47.086  1.00  0.00    -0.267 OA
BRANCH  13  16
HETATM   16  C   UNL     1      18.789  52.268  48.994  1.00  0.00     0.157 C 
BRANCH  16  17
HETATM   17  C   UNL     1      17.374  51.978  49.533  1.00  0.00     0.171 C 
HETATM   18  O   UNL     1      17.098  50.568  49.515  1.00  0.00    -0.339 OA
HETATM   19  C   UNL     1      16.402  50.151  48.411  1.00  0.00     0.102 A 
HETATM   20  C   UNL     1      15.867  51.021  47.459  1.00  0.00     0.102 A 
HETATM   21  C   UNL     1      16.279  48.774  48.240  1.00  0.00     0.039 A 
HETATM   22  O   UNL     1      15.980  52.383  47.545  1.00  0.00    -0.346 OA
HETATM   23  C   UNL     1      15.243  50.516  46.320  1.00  0.00     0.039 A 
HETATM   24  C   UNL     1      16.256  52.792  48.886  1.00  0.00     0.209 C 
HETATM   25  C   UNL     1      15.130  49.136  46.144  1.00  0.00     0.003 A 
HETATM   26  C   UNL     1      15.642  48.266  47.106  1.00  0.00     0.003 A 
ENDBRANCH  16  17
ENDBRANCH  13  16
ENDBRANCH   3  12
BRANCH   9  27
HETATM   27  C   UNL     1      25.119  44.864  49.545  1.00  0.00     0.236 C 
BRANCH  27  28
HETATM   28  C   UNL     1      26.395  44.805  50.396  1.00  0.00     0.240 C 
HETATM   29  N   UNL     1      26.196  44.599  51.749  1.00  0.00    -0.326 N 
HETATM   30  H   UNL     1      25.246  44.690  52.090  1.00  0.00     0.169 HD
HETATM   31  O   UNL     1      27.488  44.908  49.842  1.00  0.00    -0.271 OA
BRANCH  29  32
HETATM   32  C   UNL     1      27.171  44.302  52.725  1.00  0.00     0.035 A 
HETATM   33  C   UNL     1      27.620  45.212  53.687  1.00  0.00     0.045 A 
HETATM   34  C   UNL     1      28.626  44.860  54.604  1.00  0.00     0.050 A 
HETATM   35  C   UNL     1      29.185  43.575  54.545  1.00  0.00     0.016 A 
HETATM   36  C   UNL     1      28.743  42.662  53.591  1.00  0.00     0.003 A 
HETATM   37  C   UNL     1      27.742  43.023  52.686  1.00  0.00     0.029 A 
BRANCH  34  38
HETATM   38  C   UNL     1      29.120  45.846  55.635  1.00  0.00     0.417 C 
HETATM   39  F   UNL     1      30.466  45.809  55.839  1.00  0.00    -0.166 F 
HETATM   40  F   UNL     1      28.827  47.135  55.305  1.00  0.00    -0.166 F 
HETATM   41  F   UNL     1      28.553  45.638  56.858  1.00  0.00    -0.166 F 
ENDBRANCH  34  38
ENDBRANCH  29  32
ENDBRANCH  27  28
ENDBRANCH   9  27
TORSDOF 7
ENDMDL
MODEL 5
REMARK VINA RESULT:     -10.0     14.805     17.284
REMARK  7 active torsions:
REMARK  status: ('A' for Active; 'I' for Inactive)
REMARK    1  A    between atoms: C_3  and  C_4 
REMARK       I    between atoms: C_4  and  N_5 
REMARK    2  A    between atoms: N_5  and  C_6 
REMARK    3  A    between atoms: C_6  and  C_7 
REMARK    4  A    between atoms: N_23  and  C_24 
REMARK    5  A    between atoms: C_24  and  C_25 
REMARK       I    between atoms: C_25  and  N_26 
REMARK    6  A    between atoms: N_26  and  C_27 
REMARK    7  A    between atoms: C_29  and  C_30 
ROOT
HETATM    1  C   UNL     1      32.219  51.281  38.367  1.00  0.00     0.051 C 
HETATM    2  C   UNL     1      32.879  50.820  39.634  1.00  0.00    -0.021 A 
HETATM    3  C   UNL     1      32.397  49.798  40.451  1.00  0.00     0.081 A 
HETATM    4  S   UNL     1      33.451  49.504  41.775  1.00  0.00    -0.063 SA
HETATM    5  C   UNL     1      34.529  50.723  41.301  1.00  0.00     0.116 A 
HETATM    6  C   UNL     1      34.094  51.386  40.176  1.00  0.00     0.075 A 
HETATM    7  C   UNL     1      34.903  52.502  39.706  1.00  0.00     0.262 A 
HETATM    8  O   UNL     1      34.560  53.238  38.787  1.00  0.00    -0.267 OA
HETATM    9  N   UNL     1      36.085  52.690  40.424  1.00  0.00    -0.299 N 
HETATM   10  C   UNL     1      36.405  51.904  41.517  1.00  0.00     0.214 A 
HETATM   11  N   UNL     1      35.668  50.959  41.999  1.00  0.00    -0.235 NA
ENDROOT
BRANCH   3  12
HETATM   12  C   UNL     1      31.168  49.013  40.295  1.00  0.00     0.259 C 
HETATM   13  N   UNL     1      30.697  48.891  39.004  1.00  0.00    -0.354 N 
HETATM   14  H   UNL     1      31.295  49.245  38.266  1.00  0.00     0.162 HD
HETATM   15  O   UNL     1      30.584  48.468  41.229  1.00  0.00    -0.267 OA
BRANCH  13  16
HETATM   16  C   UNL     1      29.590  48.023  38.660  1.00  0.00     0.157 C 
BRANCH  16  17
HETATM   17  C   UNL     1      28.247  48.729  38.393  1.00  0.00     0.171 C 
HETATM   18  O   UNL     1      28.455  50.102  38.020  1.00  0.00    -0.339 OA
HETATM   19  C   UNL     1      28.333  50.985  39.060  1.00  0.00     0.102 A 
HETATM   20  C   UNL     1      27.895  50.624  40.336  1.00  0.00     0.102 A 
HETATM   21  C   UNL     1      28.717  52.300  38.804  1.00  0.00     0.039 A 
HETATM   22  O   UNL     1      27.535  49.346  40.667  1.00  0.00    -0.346 OA
HETATM   23  C   UNL     1      27.877  51.566  41.363  1.00  0.00     0.039 A 
HETATM   24  C   UNL     1      27.207  48.585  39.503  1.00  0.00     0.209 C 
HETATM   25  C   UNL     1      28.273  52.879  41.108  1.00  0.00     0.003 A 
HETATM   26  C   UNL     1      28.687  53.248  39.828  1.00  0.00     0.003 A 
ENDBRANCH  16  17
ENDBRANCH  13  16
ENDBRANCH   3  12
BRANCH   9  27
HETATM   27  C   UNL     1      37.028  53.706  39.977  1.00  0.00     0.236 C 
BRANCH  27  28
HETATM   28  C   UNL     1      36.586  55.159  40.196  1.00  0.00     0.240 C 
HETATM   29  N   UNL     1      35.806  55.700  39.190  1.00  0.00    -0.326 N 
HETATM   30  H   UNL     1      35.748  55.175  38.325  1.00  0.00     0.169 HD
HETATM   31  O   UNL     1      36.911  55.732  41.234  1.00  0.00    -0.271 OA
BRANCH  29  32
HETATM   32  C   UNL     1      35.099  56.920  39.214  1.00  0.00     0.035 A 
HETATM   33  C   UNL     1      33.995  57.170  40.034  1.00  0.00     0.045 A 
HETATM   34  C   UNL     1      33.311  58.398  39.977  1.00  0.00     0.050 A 
HETATM   35  C   UNL     1      33.750  59.382  39.078  1.00  0.00     0.016 A 
HETATM   36  C   UNL     1      34.850  59.142  38.258  1.00  0.00     0.003 A 
HETATM   37  C   UNL     1      35.520  57.919  38.326  1.00  0.00     0.029 A 
BRANCH  34  38
HETATM   38  C   UNL     1      32.112  58.664  40.853  1.00  0.00     0.417 C 
HETATM   39  F   UNL     1      31.825  59.985  41.016  1.00  0.00    -0.166 F 
HETATM   40  F   UNL     1      30.974  58.093  40.366  1.00  0.00    -0.166 F 
HETATM   41  F   UNL     1      32.270  58.160  42.110  1.00  0.00    -0.166 F 
ENDBRANCH  34  38
ENDBRANCH  29  32
ENDBRANCH  27  28
ENDBRANCH   9  27
TORSDOF 7
ENDMDL
MODEL 6
REMARK VINA RESULT:     -10.0      6.038     11.939
REMARK  7 active torsions:
REMARK  status: ('A' for Active; 'I' for Inactive)
REMARK    1  A    between atoms: C_3  and  C_4 
REMARK       I    between atoms: C_4  and  N_5 
REMARK    2  A    between atoms: N_5  and  C_6 
REMARK    3  A    between atoms: C_6  and  C_7 
REMARK    4  A    between atoms: N_23  and  C_24 
REMARK    5  A    between atoms: C_24  and  C_25 
REMARK       I    between atoms: C_25  and  N_26 
REMARK    6  A    between atoms: N_26  and  C_27 
REMARK    7  A    between atoms: C_29  and  C_30 
ROOT
HETATM    1  C   UNL     1      24.098  48.458  49.002  1.00  0.00     0.051 C 
HETATM    2  C   UNL     1      23.648  47.036  49.170  1.00  0.00    -0.021 A 
HETATM    3  C   UNL     1      24.298  46.090  49.962  1.00  0.00     0.081 A 
HETATM    4  S   UNL     1      23.456  44.591  49.965  1.00  0.00    -0.063 SA
HETATM    5  C   UNL     1      22.255  45.164  48.915  1.00  0.00     0.116 A 
HETATM    6  C   UNL     1      22.491  46.462  48.522  1.00  0.00     0.075 A 
HETATM    7  C   UNL     1      21.562  47.047  47.565  1.00  0.00     0.262 A 
HETATM    8  O   UNL     1      21.730  48.150  47.056  1.00  0.00    -0.267 OA
HETATM    9  N   UNL     1      20.483  46.223  47.243  1.00  0.00    -0.299 N 
HETATM   10  C   UNL     1      20.363  44.945  47.761  1.00  0.00     0.214 A 
HETATM   11  N   UNL     1      21.213  44.376  48.550  1.00  0.00    -0.235 NA
ENDROOT
BRANCH   3  12
HETATM   12  C   UNL     1      25.536  46.245  50.734  1.00  0.00     0.259 C 
HETATM   13  N   UNL     1      25.373  46.531  52.073  1.00  0.00    -0.354 N 
HETATM   14  H   UNL     1      24.427  46.491  52.435  1.00  0.00     0.162 HD
HETATM   15  O   UNL     1      26.659  46.112  50.253  1.00  0.00    -0.267 OA
BRANCH  13  16
HETATM   16  C   UNL     1      26.483  46.559  53.001  1.00  0.00     0.157 C 
BRANCH  16  17
HETATM   17  C   UNL     1      26.289  45.746  54.296  1.00  0.00     0.171 C 
HETATM   18  O   UNL     1      27.370  45.979  55.214  1.00  0.00    -0.339 OA
HETATM   19  C   UNL     1      28.359  45.032  55.161  1.00  0.00     0.102 A 
HETATM   20  C   UNL     1      28.271  43.861  54.406  1.00  0.00     0.102 A 
HETATM   21  C   UNL     1      29.520  45.309  55.881  1.00  0.00     0.039 A 
HETATM   22  O   UNL     1      27.175  43.542  53.650  1.00  0.00    -0.346 OA
HETATM   23  C   UNL     1      29.354  42.987  54.340  1.00  0.00     0.039 A 
HETATM   24  C   UNL     1      26.020  44.256  54.091  1.00  0.00     0.209 C 
HETATM   25  C   UNL     1      30.520  43.270  55.051  1.00  0.00     0.003 A 
HETATM   26  C   UNL     1      30.601  44.428  55.826  1.00  0.00     0.003 A 
ENDBRANCH  16  17
ENDBRANCH  13  16
ENDBRANCH   3  12
BRANCH   9  27
HETATM   27  C   UNL     1      19.430  46.744  46.381  1.00  0.00     0.236 C 
BRANCH  27  28
HETATM   28  C   UNL     1      18.954  48.166  46.707  1.00  0.00     0.240 C 
HETATM   29  N   UNL     1      18.812  48.451  48.052  1.00  0.00    -0.326 N 
HETATM   30  H   UNL     1      18.849  47.665  48.692  1.00  0.00     0.169 HD
HETATM   31  O   UNL     1      18.763  48.958  45.785  1.00  0.00    -0.271 OA
BRANCH  29  32
HETATM   32  C   UNL     1      18.592  49.712  48.644  1.00  0.00     0.035 A 
HETATM   33  C   UNL     1      17.359  50.371  48.649  1.00  0.00     0.045 A 
HETATM   34  C   UNL     1      17.220  51.648  49.223  1.00  0.00     0.050 A 
HETATM   35  C   UNL     1      18.343  52.264  49.796  1.00  0.00     0.016 A 
HETATM   36  C   UNL     1      19.574  51.614  49.798  1.00  0.00     0.003 A 
HETATM   37  C   UNL     1      19.698  50.346  49.225  1.00  0.00     0.029 A 
BRANCH  34  38
HETATM   38  C   UNL     1      15.893  52.366  49.217  1.00  0.00     0.417 C 
HETATM   39  F   UNL     1      14.880  51.665  49.799  1.00  0.00    -0.166 F 
HETATM   40  F   UNL     1      15.944  53.561  49.870  1.00  0.00    -0.166 F 
HETATM   41  F   UNL     1      15.468  52.652  47.953  1.00  0.00    -0.166 F 
ENDBRANCH  34  38
ENDBRANCH  29  32
ENDBRANCH  27  28
ENDBRANCH   9  27
TORSDOF 7
ENDMDL
MODEL 7
REMARK VINA RESULT:     -10.0      2.580      4.344
REMARK  7 active torsions:
REMARK  status: ('A' for Active; 'I' for Inactive)
REMARK    1  A    between atoms: C_3  and  C_4 
REMARK       I    between atoms: C_4  and  N_5 
REMARK    2  A    between atoms: N_5  and  C_6 
REMARK    3  A    between atoms: C_6  and  C_7 
REMARK    4  A    between atoms: N_23  and  C_24 
REMARK    5  A    between atoms: C_24  and  C_25 
REMARK       I    between atoms: C_25  and  N_26 
REMARK    6  A    between atoms: N_26  and  C_27 
REMARK    7  A    between atoms: C_29  and  C_30 
ROOT
HETATM    1  C   UNL     1      21.144  50.338  48.200  1.00  0.00     0.051 C 
HETATM    2  C   UNL     1      21.104  48.839  48.214  1.00  0.00    -0.021 A 
HETATM    3  C   UNL     1      20.020  48.072  47.788  1.00  0.00     0.081 A 
HETATM    4  S   UNL     1      20.364  46.390  47.887  1.00  0.00    -0.063 SA
HETATM    5  C   UNL     1      21.919  46.656  48.508  1.00  0.00     0.116 A 
HETATM    6  C   UNL     1      22.181  47.996  48.684  1.00  0.00     0.075 A 
HETATM    7  C   UNL     1      23.464  48.351  49.275  1.00  0.00     0.262 A 
HETATM    8  O   UNL     1      23.764  49.500  49.585  1.00  0.00    -0.267 OA
HETATM    9  N   UNL     1      24.308  47.263  49.500  1.00  0.00    -0.299 N 
HETATM   10  C   UNL     1      23.910  45.966  49.227  1.00  0.00     0.214 A 
HETATM   11  N   UNL     1      22.751  45.619  48.775  1.00  0.00    -0.235 NA
ENDROOT
BRANCH   3  12
HETATM   12  C   UNL     1      18.716  48.532  47.300  1.00  0.00     0.259 C 
HETATM   13  N   UNL     1      18.702  49.035  46.016  1.00  0.00    -0.354 N 
HETATM   14  H   UNL     1      19.556  48.934  45.479  1.00  0.00     0.162 HD
HETATM   15  O   UNL     1      17.680  48.468  47.959  1.00  0.00    -0.267 OA
BRANCH  13  16
HETATM   16  C   UNL     1      17.475  49.384  45.332  1.00  0.00     0.157 C 
BRANCH  16  17
HETATM   17  C   UNL     1      17.147  50.889  45.276  1.00  0.00     0.171 C 
HETATM   18  O   UNL     1      17.999  51.632  46.163  1.00  0.00    -0.339 OA
HETATM   19  C   UNL     1      17.438  51.893  47.385  1.00  0.00     0.102 A 
HETATM   20  C   UNL     1      16.108  51.610  47.703  1.00  0.00     0.102 A 
HETATM   21  C   UNL     1      18.283  52.434  48.353  1.00  0.00     0.039 A 
HETATM   22  O   UNL     1      15.231  51.049  46.813  1.00  0.00    -0.346 OA
HETATM   23  C   UNL     1      15.633  51.830  48.995  1.00  0.00     0.039 A 
HETATM   24  C   UNL     1      15.672  51.237  45.468  1.00  0.00     0.209 C 
HETATM   25  C   UNL     1      16.484  52.360  49.966  1.00  0.00     0.003 A 
HETATM   26  C   UNL     1      17.806  52.667  49.644  1.00  0.00     0.003 A 
ENDBRANCH  16  17
ENDBRANCH  13  16
ENDBRANCH   3  12
BRANCH   9  27
HETATM   27  C   UNL     1      25.660  47.507  49.984  1.00  0.00     0.236 C 
BRANCH  27  28
HETATM   28  C   UNL     1      26.316  46.335  50.727  1.00  0.00     0.240 C 
HETATM   29  N   UNL     1      26.137  46.327  52.098  1.00  0.00    -0.326 N 
HETATM   30  H   UNL     1      25.760  47.171  52.514  1.00  0.00     0.169 HD
HETATM   31  O   UNL     1      26.917  45.480  50.079  1.00  0.00    -0.271 OA
BRANCH  29  32
HETATM   32  C   UNL     1      26.446  45.285  52.998  1.00  0.00     0.035 A 
HETATM   33  C   UNL     1      27.689  44.648  53.061  1.00  0.00     0.045 A 
HETATM   34  C   UNL     1      27.915  43.587  53.956  1.00  0.00     0.050 A 
HETATM   35  C   UNL     1      26.871  43.167  54.794  1.00  0.00     0.016 A 
HETATM   36  C   UNL     1      25.631  43.797  54.739  1.00  0.00     0.003 A 
HETATM   37  C   UNL     1      25.420  44.850  53.846  1.00  0.00     0.029 A 
BRANCH  34  38
HETATM   38  C   UNL     1      29.252  42.890  54.017  1.00  0.00     0.417 C 
HETATM   39  F   UNL     1      30.115  43.258  53.031  1.00  0.00    -0.166 F 
HETATM   40  F   UNL     1      29.906  43.118  55.191  1.00  0.00    -0.166 F 
HETATM   41  F   UNL     1      29.131  41.535  53.919  1.00  0.00    -0.166 F 
ENDBRANCH  34  38
ENDBRANCH  29  32
ENDBRANCH  27  28
ENDBRANCH   9  27
TORSDOF 7
ENDMDL
MODEL 8
REMARK VINA RESULT:      -9.7      2.612      3.916
REMARK  7 active torsions:
REMARK  status: ('A' for Active; 'I' for Inactive)
REMARK    1  A    between atoms: C_3  and  C_4 
REMARK       I    between atoms: C_4  and  N_5 
REMARK    2  A    between atoms: N_5  and  C_6 
REMARK    3  A    between atoms: C_6  and  C_7 
REMARK    4  A    between atoms: N_23  and  C_24 
REMARK    5  A    between atoms: C_24  and  C_25 
REMARK       I    between atoms: C_25  and  N_26 
REMARK    6  A    between atoms: N_26  and  C_27 
REMARK    7  A    between atoms: C_29  and  C_30 
ROOT
HETATM    1  C   UNL     1      20.260  43.855  46.977  1.00  0.00     0.051 C 
HETATM    2  C   UNL     1      21.096  45.022  47.413  1.00  0.00    -0.021 A 
HETATM    3  C   UNL     1      20.926  46.330  46.959  1.00  0.00     0.081 A 
HETATM    4  S   UNL     1      22.021  47.408  47.728  1.00  0.00    -0.063 SA
HETATM    5  C   UNL     1      22.737  46.170  48.638  1.00  0.00     0.116 A 
HETATM    6  C   UNL     1      22.195  44.938  48.348  1.00  0.00     0.075 A 
HETATM    7  C   UNL     1      22.772  43.782  49.020  1.00  0.00     0.262 A 
HETATM    8  O   UNL     1      22.452  42.627  48.759  1.00  0.00    -0.267 OA
HETATM    9  N   UNL     1      23.757  44.100  49.956  1.00  0.00    -0.299 N 
HETATM   10  C   UNL     1      24.166  45.405  50.165  1.00  0.00     0.214 A 
HETATM   11  N   UNL     1      23.724  46.439  49.528  1.00  0.00    -0.235 NA
ENDROOT
BRANCH   3  12
HETATM   12  C   UNL     1      19.971  46.830  45.964  1.00  0.00     0.259 C 
HETATM   13  N   UNL     1      19.133  47.837  46.394  1.00  0.00    -0.354 N 
HETATM   14  H   UNL     1      19.324  48.228  47.310  1.00  0.00     0.162 HD
HETATM   15  O   UNL     1      19.911  46.415  44.808  1.00  0.00    -0.267 OA
BRANCH  13  16
HETATM   16  C   UNL     1      18.246  48.546  45.496  1.00  0.00     0.157 C 
BRANCH  16  17
HETATM   17  C   UNL     1      17.716  49.898  46.012  1.00  0.00     0.171 C 
HETATM   18  O   UNL     1      18.798  50.745  46.434  1.00  0.00    -0.339 OA
HETATM   19  C   UNL     1      19.044  50.704  47.781  1.00  0.00     0.102 A 
HETATM   20  C   UNL     1      18.231  50.031  48.696  1.00  0.00     0.102 A 
HETATM   21  C   UNL     1      20.200  51.346  48.220  1.00  0.00     0.039 A 
HETATM   22  O   UNL     1      17.100  49.352  48.332  1.00  0.00    -0.346 OA
HETATM   23  C   UNL     1      18.594  49.967  50.041  1.00  0.00     0.039 A 
HETATM   24  C   UNL     1      16.615  49.802  47.066  1.00  0.00     0.209 C 
HETATM   25  C   UNL     1      19.758  50.600  50.477  1.00  0.00     0.003 A 
HETATM   26  C   UNL     1      20.558  51.293  49.568  1.00  0.00     0.003 A 
ENDBRANCH  16  17
ENDBRANCH  13  16
ENDBRANCH   3  12
BRANCH   9  27
HETATM   27  C   UNL     1      24.328  43.035  50.769  1.00  0.00     0.236 C 
BRANCH  27  28
HETATM   28  C   UNL     1      25.752  43.287  51.281  1.00  0.00     0.240 C 
HETATM   29  N   UNL     1      25.866  43.481  52.646  1.00  0.00    -0.326 N 
HETATM   30  H   UNL     1      25.005  43.626  53.160  1.00  0.00     0.169 HD
HETATM   31  O   UNL     1      26.686  43.272  50.481  1.00  0.00    -0.271 OA
BRANCH  29  32
HETATM   32  C   UNL     1      27.051  43.530  53.410  1.00  0.00     0.035 A 
HETATM   33  C   UNL     1      27.484  44.657  54.114  1.00  0.00     0.045 A 
HETATM   34  C   UNL     1      28.699  44.648  54.823  1.00  0.00     0.050 A 
HETATM   35  C   UNL     1      29.484  43.485  54.816  1.00  0.00     0.016 A 
HETATM   36  C   UNL     1      29.059  42.357  54.119  1.00  0.00     0.003 A 
HETATM   37  C   UNL     1      27.850  42.379  53.420  1.00  0.00     0.029 A 
BRANCH  34  38
HETATM   38  C   UNL     1      29.173  45.868  55.574  1.00  0.00     0.417 C 
HETATM   39  F   UNL     1      29.019  47.035  54.889  1.00  0.00    -0.166 F 
HETATM   40  F   UNL     1      28.518  46.040  56.756  1.00  0.00    -0.166 F 
HETATM   41  F   UNL     1      30.497  45.795  55.891  1.00  0.00    -0.166 F 
ENDBRANCH  34  38
ENDBRANCH  29  32
ENDBRANCH  27  28
ENDBRANCH   9  27
TORSDOF 7
ENDMDL
MODEL 9
REMARK VINA RESULT:      -9.5      5.338     11.848
REMARK  7 active torsions:
REMARK  status: ('A' for Active; 'I' for Inactive)
REMARK    1  A    between atoms: C_3  and  C_4 
REMARK       I    between atoms: C_4  and  N_5 
REMARK    2  A    between atoms: N_5  and  C_6 
REMARK    3  A    between atoms: C_6  and  C_7 
REMARK    4  A    between atoms: N_23  and  C_24 
REMARK    5  A    between atoms: C_24  and  C_25 
REMARK       I    between atoms: C_25  and  N_26 
REMARK    6  A    between atoms: N_26  and  C_27 
REMARK    7  A    between atoms: C_29  and  C_30 
ROOT
HETATM    1  C   UNL     1      24.373  46.416  49.216  1.00  0.00     0.051 C 
HETATM    2  C   UNL     1      24.072  45.013  48.780  1.00  0.00    -0.021 A 
HETATM    3  C   UNL     1      24.868  43.906  49.073  1.00  0.00     0.081 A 
HETATM    4  S   UNL     1      24.172  42.456  48.467  1.00  0.00    -0.063 SA
HETATM    5  C   UNL     1      22.842  43.269  47.800  1.00  0.00     0.116 A 
HETATM    6  C   UNL     1      22.925  44.630  47.988  1.00  0.00     0.075 A 
HETATM    7  C   UNL     1      21.871  45.448  47.403  1.00  0.00     0.262 A 
HETATM    8  O   UNL     1      21.896  46.675  47.404  1.00  0.00    -0.267 OA
HETATM    9  N   UNL     1      20.851  44.714  46.798  1.00  0.00    -0.299 N 
HETATM   10  C   UNL     1      20.892  43.332  46.727  1.00  0.00     0.214 A 
HETATM   11  N   UNL     1      21.852  42.590  47.171  1.00  0.00    -0.235 NA
ENDROOT
BRANCH   3  12
HETATM   12  C   UNL     1      26.144  43.868  49.795  1.00  0.00     0.259 C 
HETATM   13  N   UNL     1      26.122  44.385  51.073  1.00  0.00    -0.354 N 
HETATM   14  H   UNL     1      25.214  44.631  51.449  1.00  0.00     0.162 HD
HETATM   15  O   UNL     1      27.178  43.395  49.327  1.00  0.00    -0.267 OA
BRANCH  13  16
HETATM   16  C   UNL     1      27.252  44.280  51.972  1.00  0.00     0.157 C 
BRANCH  16  17
HETATM   17  C   UNL     1      26.920  43.840  53.412  1.00  0.00     0.171 C 
HETATM   18  O   UNL     1      27.318  44.845  54.359  1.00  0.00    -0.339 OA
HETATM   19  C   UNL     1      28.545  44.620  54.927  1.00  0.00     0.102 A 
HETATM   20  C   UNL     1      29.284  43.451  54.735  1.00  0.00     0.102 A 
HETATM   21  C   UNL     1      29.069  45.655  55.699  1.00  0.00     0.039 A 
HETATM   22  O   UNL     1      28.846  42.409  53.962  1.00  0.00    -0.346 OA
HETATM   23  C   UNL     1      30.561  43.332  55.281  1.00  0.00     0.039 A 
HETATM   24  C   UNL     1      27.428  42.452  53.797  1.00  0.00     0.209 C 
HETATM   25  C   UNL     1      31.090  44.373  56.044  1.00  0.00     0.003 A 
HETATM   26  C   UNL     1      30.343  45.531  56.257  1.00  0.00     0.003 A 
ENDBRANCH  16  17
ENDBRANCH  13  16
ENDBRANCH   3  12
BRANCH   9  27
HETATM   27  C   UNL     1      19.688  45.419  46.275  1.00  0.00     0.236 C 
BRANCH  27  28
HETATM   28  C   UNL     1      18.996  46.371  47.259  1.00  0.00     0.240 C 
HETATM   29  N   UNL     1      18.982  47.702  46.887  1.00  0.00    -0.326 N 
HETATM   30  H   UNL     1      19.578  47.966  46.110  1.00  0.00     0.169 HD
HETATM   31  O   UNL     1      18.480  45.908  48.275  1.00  0.00    -0.271 OA
BRANCH  29  32
HETATM   32  C   UNL     1      18.253  48.753  47.483  1.00  0.00     0.035 A 
HETATM   33  C   UNL     1      18.838  49.870  48.087  1.00  0.00     0.045 A 
HETATM   34  C   UNL     1      18.050  50.860  48.699  1.00  0.00     0.050 A 
HETATM   35  C   UNL     1      16.654  50.718  48.700  1.00  0.00     0.016 A 
HETATM   36  C   UNL     1      16.062  49.610  48.099  1.00  0.00     0.003 A 
HETATM   37  C   UNL     1      16.857  48.634  47.494  1.00  0.00     0.029 A 
BRANCH  34  38
HETATM   38  C   UNL     1      18.681  52.060  49.362  1.00  0.00     0.417 C 
HETATM   39  F   UNL     1      17.802  52.845  50.043  1.00  0.00    -0.166 F 
HETATM   40  F   UNL     1      19.644  51.711  50.262  1.00  0.00    -0.166 F 
HETATM   41  F   UNL     1      19.295  52.882  48.464  1.00  0.00    -0.166 F 
ENDBRANCH  34  38
ENDBRANCH  29  32
ENDBRANCH  27  28
ENDBRANCH   9  27
TORSDOF 7
ENDMDL
MODEL 10
REMARK VINA RESULT:      -9.5      2.581      3.700
REMARK  7 active torsions:
REMARK  status: ('A' for Active; 'I' for Inactive)
REMARK    1  A    between atoms: C_3  and  C_4 
REMARK       I    between atoms: C_4  and  N_5 
REMARK    2  A    between atoms: N_5  and  C_6 
REMARK    3  A    between atoms: C_6  and  C_7 
REMARK    4  A    between atoms: N_23  and  C_24 
REMARK    5  A    between atoms: C_24  and  C_25 
REMARK       I    between atoms: C_25  and  N_26 
REMARK    6  A    between atoms: N_26  and  C_27 
REMARK    7  A    between atoms: C_29  and  C_30 
ROOT
HETATM    1  C   UNL     1      23.905  40.903  47.471  1.00  0.00     0.051 C 
HETATM    2  C   UNL     1      23.849  42.093  48.383  1.00  0.00    -0.021 A 
HETATM    3  C   UNL     1      22.880  43.095  48.317  1.00  0.00     0.081 A 
HETATM    4  S   UNL     1      23.096  44.259  49.563  1.00  0.00    -0.063 SA
HETATM    5  C   UNL     1      24.467  43.475  50.178  1.00  0.00     0.116 A 
HETATM    6  C   UNL     1      24.799  42.362  49.438  1.00  0.00     0.075 A 
HETATM    7  C   UNL     1      26.001  41.637  49.829  1.00  0.00     0.262 A 
HETATM    8  O   UNL     1      26.460  40.703  49.180  1.00  0.00    -0.267 OA
HETATM    9  N   UNL     1      26.612  42.128  50.983  1.00  0.00    -0.299 N 
HETATM   10  C   UNL     1      26.127  43.242  51.645  1.00  0.00     0.214 A 
HETATM   11  N   UNL     1      25.109  43.947  51.275  1.00  0.00    -0.235 NA
ENDROOT
BRANCH   3  12
HETATM   12  C   UNL     1      21.779  43.234  47.358  1.00  0.00     0.259 C 
HETATM   13  N   UNL     1      21.374  44.526  47.097  1.00  0.00    -0.354 N 
HETATM   14  H   UNL     1      21.942  45.269  47.489  1.00  0.00     0.162 HD
HETATM   15  O   UNL     1      21.245  42.283  46.790  1.00  0.00    -0.267 OA
BRANCH  13  16
HETATM   16  C   UNL     1      20.412  44.844  46.063  1.00  0.00     0.157 C 
BRANCH  16  17
HETATM   17  C   UNL     1      19.076  45.435  46.554  1.00  0.00     0.171 C 
HETATM   18  O   UNL     1      18.910  46.784  46.087  1.00  0.00    -0.339 OA
HETATM   19  C   UNL     1      19.284  47.737  46.997  1.00  0.00     0.102 A 
HETATM   20  C   UNL     1      19.647  47.451  48.314  1.00  0.00     0.102 A 
HETATM   21  C   UNL     1      19.333  49.050  46.533  1.00  0.00     0.039 A 
HETATM   22  O   UNL     1      19.655  46.181  48.827  1.00  0.00    -0.346 OA
HETATM   23  C   UNL     1      20.095  48.468  49.155  1.00  0.00     0.039 A 
HETATM   24  C   UNL     1      18.827  45.310  48.056  1.00  0.00     0.209 C 
HETATM   25  C   UNL     1      20.155  49.781  48.686  1.00  0.00     0.003 A 
HETATM   26  C   UNL     1      19.769  50.073  47.377  1.00  0.00     0.003 A 
ENDBRANCH  16  17
ENDBRANCH  13  16
ENDBRANCH   3  12
BRANCH   9  27
HETATM   27  C   UNL     1      27.758  41.416  51.532  1.00  0.00     0.236 C 
BRANCH  27  28
HETATM   28  C   UNL     1      28.194  41.851  52.937  1.00  0.00     0.240 C 
HETATM   29  N   UNL     1      28.976  42.990  52.989  1.00  0.00    -0.326 N 
HETATM   30  H   UNL     1      29.347  43.330  52.110  1.00  0.00     0.169 HD
HETATM   31  O   UNL     1      27.809  41.203  53.910  1.00  0.00    -0.271 OA
BRANCH  29  32
HETATM   32  C   UNL     1      29.346  43.726  54.135  1.00  0.00     0.035 A 
HETATM   33  C   UNL     1      30.296  43.300  55.067  1.00  0.00     0.045 A 
HETATM   34  C   UNL     1      30.586  44.066  56.210  1.00  0.00     0.050 A 
HETATM   35  C   UNL     1      29.906  45.277  56.411  1.00  0.00     0.016 A 
HETATM   36  C   UNL     1      28.959  45.711  55.486  1.00  0.00     0.003 A 
HETATM   37  C   UNL     1      28.681  44.940  54.355  1.00  0.00     0.029 A 
BRANCH  34  38
HETATM   38  C   UNL     1      31.602  43.601  57.224  1.00  0.00     0.417 C 
HETATM   39  F   UNL     1      31.724  44.420  58.305  1.00  0.00    -0.166 F 
HETATM   40  F   UNL     1      31.312  42.365  57.723  1.00  0.00    -0.166 F 
HETATM   41  F   UNL     1      32.853  43.500  56.691  1.00  0.00    -0.166 F 
ENDBRANCH  34  38
ENDBRANCH  29  32
ENDBRANCH  27  28
ENDBRANCH   9  27
TORSDOF 7
ENDMDL
