MODEL 1
REMARK VINA RESULT:      -8.5      0.000      0.000
REMARK  1 active torsions:
REMARK  status: ('A' for Active; 'I' for Inactive)
REMARK    1  A    between atoms: C_8  and  C_9 
ROOT
HETATM    1  C   UNL     1      25.869  43.372  49.072  1.00  0.00     0.073 C 
HETATM    2  C   UNL     1      24.866  44.444  49.296  1.00  0.00     0.062 C 
HETATM    3  N   UNL     1      23.572  44.158  49.117  1.00  0.00    -0.178 NA
HETATM    4  N   UNL     1      22.943  45.293  49.435  1.00  0.00    -0.262 N 
HETATM    5  H   UNL     1      21.931  45.307  49.387  1.00  0.00     0.191 HD
HETATM    6  C   UNL     1      23.793  46.338  49.660  1.00  0.00     0.134 C 
HETATM    7  C   UNL     1      25.067  45.803  49.714  1.00  0.00     0.032 C 
HETATM    8  C   UNL     1      26.362  46.417  50.169  1.00  0.00     0.120 C 
HETATM    9  S   UNL     1      26.716  48.154  49.736  1.00  0.00    -0.141 SA
HETATM   10  C   UNL     1      25.311  48.594  48.670  1.00  0.00     0.136 C 
HETATM   11  C   UNL     1      25.653  49.917  47.980  1.00  0.00     0.031 C 
HETATM   12  C   UNL     1      24.021  48.745  49.482  1.00  0.00     0.236 C 
HETATM   13  O   UNL     1      23.526  49.839  49.763  1.00  0.00    -0.272 OA
HETATM   14  N   UNL     1      23.319  47.616  49.819  1.00  0.00    -0.311 N 
HETATM   15  H   UNL     1      22.359  47.788  50.096  1.00  0.00     0.170 HD
ENDROOT
BRANCH   8  16
HETATM   16  C   UNL     1      26.411  46.193  51.690  1.00  0.00    -0.029 A 
HETATM   17  C   UNL     1      27.079  45.074  52.292  1.00  0.00    -0.018 A 
HETATM   18  C   UNL     1      27.023  44.925  53.706  1.00  0.00    -0.025 A 
HETATM   19  C   UNL     1      27.810  44.084  51.586  1.00  0.00     0.013 A 
HETATM   20  C   UNL     1      27.635  43.831  54.337  1.00  0.00     0.012 A 
HETATM   21  C   UNL     1      26.355  45.871  54.494  1.00  0.00     0.012 A 
HETATM   22  C   UNL     1      28.320  42.867  53.605  1.00  0.00     0.001 A 
HETATM   23  C   UNL     1      28.413  42.998  52.229  1.00  0.00     0.001 A 
HETATM   24  C   UNL     1      25.734  46.967  53.916  1.00  0.00     0.002 A 
HETATM   25  C   UNL     1      25.757  47.122  52.537  1.00  0.00     0.009 A 
ENDBRANCH   8  16
TORSDOF 1
ENDMDL
MODEL 2
REMARK VINA RESULT:      -8.4      4.942      8.125
REMARK  1 active torsions:
REMARK  status: ('A' for Active; 'I' for Inactive)
REMARK    1  A    between atoms: C_8  and  C_9 
ROOT
HETATM    1  C   UNL     1      23.429  50.645  48.011  1.00  0.00     0.073 C 
HETATM    2  C   UNL     1      23.403  49.274  48.584  1.00  0.00     0.062 C 
HETATM    3  N   UNL     1      24.362  48.924  49.449  1.00  0.00    -0.178 NA
HETATM    4  N   UNL     1      24.036  47.678  49.805  1.00  0.00    -0.262 N 
HETATM    5  H   UNL     1      24.625  47.205  50.480  1.00  0.00     0.191 HD
HETATM    6  C   UNL     1      22.997  47.163  49.083  1.00  0.00     0.134 C 
HETATM    7  C   UNL     1      22.460  48.215  48.364  1.00  0.00     0.032 C 
HETATM    8  C   UNL     1      21.171  48.311  47.595  1.00  0.00     0.120 C 
HETATM    9  S   UNL     1      20.625  46.878  46.605  1.00  0.00    -0.141 SA
HETATM   10  C   UNL     1      22.019  45.724  46.771  1.00  0.00     0.136 C 
HETATM   11  C   UNL     1      21.830  44.619  45.728  1.00  0.00     0.031 C 
HETATM   12  C   UNL     1      22.073  45.114  48.175  1.00  0.00     0.236 C 
HETATM   13  O   UNL     1      21.718  43.959  48.422  1.00  0.00    -0.272 OA
HETATM   14  N   UNL     1      22.648  45.840  49.186  1.00  0.00    -0.311 N 
HETATM   15  H   UNL     1      22.907  45.293  49.999  1.00  0.00     0.170 HD
ENDROOT
BRANCH   8  16
HETATM   16  C   UNL     1      20.106  48.724  48.625  1.00  0.00    -0.029 A 
HETATM   17  C   UNL     1      19.577  50.055  48.709  1.00  0.00    -0.018 A 
HETATM   18  C   UNL     1      18.634  50.352  49.732  1.00  0.00    -0.025 A 
HETATM   19  C   UNL     1      19.914  51.123  47.838  1.00  0.00     0.013 A 
HETATM   20  C   UNL     1      18.110  51.647  49.872  1.00  0.00     0.012 A 
HETATM   21  C   UNL     1      18.210  49.355  50.619  1.00  0.00     0.012 A 
HETATM   22  C   UNL     1      18.489  52.674  49.013  1.00  0.00     0.001 A 
HETATM   23  C   UNL     1      19.386  52.409  47.991  1.00  0.00     0.001 A 
HETATM   24  C   UNL     1      18.700  48.061  50.522  1.00  0.00     0.002 A 
HETATM   25  C   UNL     1      19.637  47.753  49.545  1.00  0.00     0.009 A 
ENDBRANCH   8  16
TORSDOF 1
ENDMDL
MODEL 3
REMARK VINA RESULT:      -8.0      6.760      8.483
REMARK  1 active torsions:
REMARK  status: ('A' for Active; 'I' for Inactive)
REMARK    1  A    between atoms: C_8  and  C_9 
ROOT
HETATM    1  C   UNL     1      21.176  46.051  47.158  1.00  0.00     0.073 C 
HETATM    2  C   UNL     1      19.748  46.114  47.561  1.00  0.00     0.062 C 
HETATM    3  N   UNL     1      19.224  45.080  48.229  1.00  0.00    -0.178 NA
HETATM    4  N   UNL     1      17.968  45.459  48.478  1.00  0.00    -0.262 N 
HETATM    5  H   UNL     1      17.373  44.826  48.998  1.00  0.00     0.191 HD
HETATM    6  C   UNL     1      17.622  46.628  47.860  1.00  0.00     0.134 C 
HETATM    7  C   UNL     1      18.793  47.166  47.358  1.00  0.00     0.032 C 
HETATM    8  C   UNL     1      19.074  48.536  46.804  1.00  0.00     0.120 C 
HETATM    9  S   UNL     1      17.822  49.333  45.742  1.00  0.00    -0.141 SA
HETATM   10  C   UNL     1      16.564  48.033  45.563  1.00  0.00     0.136 C 
HETATM   11  C   UNL     1      15.620  48.458  44.436  1.00  0.00     0.031 C 
HETATM   12  C   UNL     1      15.775  47.839  46.862  1.00  0.00     0.236 C 
HETATM   13  O   UNL     1      14.625  48.255  47.020  1.00  0.00    -0.272 OA
HETATM   14  N   UNL     1      16.324  47.071  47.857  1.00  0.00    -0.311 N 
HETATM   15  H   UNL     1      15.659  46.750  48.552  1.00  0.00     0.170 HD
ENDROOT
BRANCH   8  16
HETATM   16  C   UNL     1      19.421  49.409  48.021  1.00  0.00    -0.029 A 
HETATM   17  C   UNL     1      20.748  49.889  48.284  1.00  0.00    -0.018 A 
HETATM   18  C   UNL     1      20.979  50.646  49.466  1.00  0.00    -0.025 A 
HETATM   19  C   UNL     1      21.874  49.675  47.447  1.00  0.00     0.013 A 
HETATM   20  C   UNL     1      22.265  51.112  49.780  1.00  0.00     0.012 A 
HETATM   21  C   UNL     1      19.924  50.943  50.338  1.00  0.00     0.012 A 
HETATM   22  C   UNL     1      23.348  50.856  48.946  1.00  0.00     0.001 A 
HETATM   23  C   UNL     1      23.150  50.142  47.775  1.00  0.00     0.001 A 
HETATM   24  C   UNL     1      18.636  50.503  50.071  1.00  0.00     0.002 A 
HETATM   25  C   UNL     1      18.391  49.744  48.934  1.00  0.00     0.009 A 
ENDBRANCH   8  16
TORSDOF 1
ENDMDL
MODEL 4
REMARK VINA RESULT:      -7.8     18.110     20.314
REMARK  1 active torsions:
REMARK  status: ('A' for Active; 'I' for Inactive)
REMARK    1  A    between atoms: C_8  and  C_9 
ROOT
HETATM    1  C   UNL     1      42.449  43.154  66.452  1.00  0.00     0.073 C 
HETATM    2  C   UNL     1      41.685  43.882  65.407  1.00  0.00     0.062 C 
HETATM    3  N   UNL     1      42.326  44.789  64.660  1.00  0.00    -0.178 NA
HETATM    4  N   UNL     1      41.394  45.220  63.805  1.00  0.00    -0.262 N 
HETATM    5  H   UNL     1      41.661  45.915  63.118  1.00  0.00     0.191 HD
HETATM    6  C   UNL     1      40.145  44.739  64.077  1.00  0.00     0.134 C 
HETATM    7  C   UNL     1      40.305  43.753  65.033  1.00  0.00     0.032 C 
HETATM    8  C   UNL     1      39.335  42.718  65.536  1.00  0.00     0.120 C 
HETATM    9  S   UNL     1      37.591  43.192  65.791  1.00  0.00    -0.141 SA
HETATM   10  C   UNL     1      37.609  44.978  65.451  1.00  0.00     0.136 C 
HETATM   11  C   UNL     1      36.279  45.554  65.943  1.00  0.00     0.031 C 
HETATM   12  C   UNL     1      37.780  45.259  63.955  1.00  0.00     0.236 C 
HETATM   13  O   UNL     1      36.853  45.621  63.227  1.00  0.00    -0.272 OA
HETATM   14  N   UNL     1      39.041  45.217  63.417  1.00  0.00    -0.311 N 
HETATM   15  H   UNL     1      39.127  45.677  62.518  1.00  0.00     0.170 HD
ENDROOT
BRANCH   8  16
HETATM   16  C   UNL     1      39.462  41.530  64.567  1.00  0.00    -0.029 A 
HETATM   17  C   UNL     1      40.093  40.293  64.929  1.00  0.00    -0.018 A 
HETATM   18  C   UNL     1      40.208  39.273  63.944  1.00  0.00    -0.025 A 
HETATM   19  C   UNL     1      40.619  39.990  66.211  1.00  0.00     0.013 A 
HETATM   20  C   UNL     1      40.844  38.057  64.242  1.00  0.00     0.012 A 
HETATM   21  C   UNL     1      39.688  39.463  62.659  1.00  0.00     0.012 A 
HETATM   22  C   UNL     1      41.371  37.810  65.506  1.00  0.00     0.001 A 
HETATM   23  C   UNL     1      41.251  38.775  66.493  1.00  0.00     0.001 A 
HETATM   24  C   UNL     1      39.053  40.647  62.316  1.00  0.00     0.002 A 
HETATM   25  C   UNL     1      38.948  41.666  63.254  1.00  0.00     0.009 A 
ENDBRANCH   8  16
TORSDOF 1
ENDMDL
MODEL 5
REMARK VINA RESULT:      -7.5      2.418      3.657
REMARK  1 active torsions:
REMARK  status: ('A' for Active; 'I' for Inactive)
REMARK    1  A    between atoms: C_8  and  C_9 
ROOT
HETATM    1  C   UNL     1      24.637  41.719  47.956  1.00  0.00     0.073 C 
HETATM    2  C   UNL     1      24.238  42.630  49.060  1.00  0.00     0.062 C 
HETATM    3  N   UNL     1      22.980  42.575  49.513  1.00  0.00    -0.178 NA
HETATM    4  N   UNL     1      22.957  43.463  50.511  1.00  0.00    -0.262 N 
HETATM    5  H   UNL     1      22.092  43.584  51.022  1.00  0.00     0.191 HD
HETATM    6  C   UNL     1      24.106  44.195  50.610  1.00  0.00     0.134 C 
HETATM    7  C   UNL     1      25.027  43.596  49.770  1.00  0.00     0.032 C 
HETATM    8  C   UNL     1      26.512  43.803  49.647  1.00  0.00     0.120 C 
HETATM    9  S   UNL     1      27.180  45.497  49.769  1.00  0.00    -0.141 SA
HETATM   10  C   UNL     1      25.676  46.513  49.876  1.00  0.00     0.136 C 
HETATM   11  C   UNL     1      26.088  47.970  49.657  1.00  0.00     0.031 C 
HETATM   12  C   UNL     1      24.997  46.360  51.240  1.00  0.00     0.236 C 
HETATM   13  O   UNL     1      25.056  47.220  52.122  1.00  0.00    -0.272 OA
HETATM   14  N   UNL     1      24.190  45.272  51.456  1.00  0.00    -0.311 N 
HETATM   15  H   UNL     1      23.561  45.368  52.245  1.00  0.00     0.170 HD
ENDROOT
BRANCH   8  16
HETATM   16  C   UNL     1      27.145  42.869  50.693  1.00  0.00    -0.029 A 
HETATM   17  C   UNL     1      27.707  41.592  50.358  1.00  0.00    -0.018 A 
HETATM   18  C   UNL     1      28.223  40.778  51.405  1.00  0.00    -0.025 A 
HETATM   19  C   UNL     1      27.802  41.061  49.046  1.00  0.00     0.013 A 
HETATM   20  C   UNL     1      28.756  39.508  51.130  1.00  0.00     0.012 A 
HETATM   21  C   UNL     1      28.208  41.230  52.730  1.00  0.00     0.012 A 
HETATM   22  C   UNL     1      28.805  39.013  49.831  1.00  0.00     0.001 A 
HETATM   23  C   UNL     1      28.334  39.794  48.788  1.00  0.00     0.001 A 
HETATM   24  C   UNL     1      27.690  42.475  53.051  1.00  0.00     0.002 A 
HETATM   25  C   UNL     1      27.162  43.279  52.049  1.00  0.00     0.009 A 
ENDBRANCH   8  16
TORSDOF 1
ENDMDL
MODEL 6
REMARK VINA RESULT:      -7.4      6.882     10.651
REMARK  1 active torsions:
REMARK  status: ('A' for Active; 'I' for Inactive)
REMARK    1  A    between atoms: C_8  and  C_9 
ROOT
HETATM    1  C   UNL     1      19.325  51.628  49.681  1.00  0.00     0.073 C 
HETATM    2  C   UNL     1      19.179  50.173  49.941  1.00  0.00     0.062 C 
HETATM    3  N   UNL     1      19.019  49.761  51.204  1.00  0.00    -0.178 NA
HETATM    4  N   UNL     1      18.874  48.437  51.096  1.00  0.00    -0.262 N 
HETATM    5  H   UNL     1      18.721  47.903  51.943  1.00  0.00     0.191 HD
HETATM    6  C   UNL     1      19.091  47.970  49.831  1.00  0.00     0.134 C 
HETATM    7  C   UNL     1      19.161  49.081  49.010  1.00  0.00     0.032 C 
HETATM    8  C   UNL     1      19.141  49.185  47.509  1.00  0.00     0.120 C 
HETATM    9  S   UNL     1      20.054  47.948  46.526  1.00  0.00    -0.141 SA
HETATM   10  C   UNL     1      20.893  46.964  47.803  1.00  0.00     0.136 C 
HETATM   11  C   UNL     1      21.944  46.100  47.102  1.00  0.00     0.031 C 
HETATM   12  C   UNL     1      19.903  46.073  48.560  1.00  0.00     0.236 C 
HETATM   13  O   UNL     1      19.811  44.857  48.371  1.00  0.00    -0.272 OA
HETATM   14  N   UNL     1      19.163  46.624  49.574  1.00  0.00    -0.311 N 
HETATM   15  H   UNL     1      18.751  45.948  50.207  1.00  0.00     0.170 HD
ENDROOT
BRANCH   8  16
HETATM   16  C   UNL     1      17.653  49.230  47.120  1.00  0.00    -0.029 A 
HETATM   17  C   UNL     1      17.041  50.377  46.513  1.00  0.00    -0.018 A 
HETATM   18  C   UNL     1      15.645  50.340  46.239  1.00  0.00    -0.025 A 
HETATM   19  C   UNL     1      17.720  51.568  46.150  1.00  0.00     0.013 A 
HETATM   20  C   UNL     1      14.995  51.448  45.673  1.00  0.00     0.012 A 
HETATM   21  C   UNL     1      14.893  49.194  46.528  1.00  0.00     0.012 A 
HETATM   22  C   UNL     1      15.693  52.609  45.357  1.00  0.00     0.001 A 
HETATM   23  C   UNL     1      17.058  52.665  45.589  1.00  0.00     0.001 A 
HETATM   24  C   UNL     1      15.490  48.075  47.089  1.00  0.00     0.002 A 
HETATM   25  C   UNL     1      16.846  48.096  47.385  1.00  0.00     0.009 A 
ENDBRANCH   8  16
TORSDOF 1
ENDMDL
MODEL 7
REMARK VINA RESULT:      -7.3      4.286      6.803
REMARK  1 active torsions:
REMARK  status: ('A' for Active; 'I' for Inactive)
REMARK    1  A    between atoms: C_8  and  C_9 
ROOT
HETATM    1  C   UNL     1      28.663  43.786  52.187  1.00  0.00     0.073 C 
HETATM    2  C   UNL     1      27.977  42.473  52.078  1.00  0.00     0.062 C 
HETATM    3  N   UNL     1      27.842  41.727  53.181  1.00  0.00    -0.178 NA
HETATM    4  N   UNL     1      27.159  40.657  52.765  1.00  0.00    -0.262 N 
HETATM    5  H   UNL     1      26.922  39.947  53.448  1.00  0.00     0.191 HD
HETATM    6  C   UNL     1      26.990  40.615  51.410  1.00  0.00     0.134 C 
HETATM    7  C   UNL     1      27.389  41.848  50.927  1.00  0.00     0.032 C 
HETATM    8  C   UNL     1      27.204  42.468  49.569  1.00  0.00     0.120 C 
HETATM    9  S   UNL     1      27.391  41.419  48.087  1.00  0.00    -0.141 SA
HETATM   10  C   UNL     1      27.929  39.830  48.788  1.00  0.00     0.136 C 
HETATM   11  C   UNL     1      28.431  38.962  47.631  1.00  0.00     0.031 C 
HETATM   12  C   UNL     1      26.778  39.123  49.511  1.00  0.00     0.236 C 
HETATM   13  O   UNL     1      26.176  38.157  49.036  1.00  0.00    -0.272 OA
HETATM   14  N   UNL     1      26.474  39.503  50.793  1.00  0.00    -0.311 N 
HETATM   15  H   UNL     1      25.916  38.831  51.308  1.00  0.00     0.170 HD
ENDROOT
BRANCH   8  16
HETATM   16  C   UNL     1      25.824  43.146  49.611  1.00  0.00    -0.029 A 
HETATM   17  C   UNL     1      25.657  44.569  49.694  1.00  0.00    -0.018 A 
HETATM   18  C   UNL     1      24.339  45.097  49.781  1.00  0.00    -0.025 A 
HETATM   19  C   UNL     1      26.713  45.516  49.691  1.00  0.00     0.013 A 
HETATM   20  C   UNL     1      24.126  46.480  49.893  1.00  0.00     0.012 A 
HETATM   21  C   UNL     1      23.228  44.245  49.754  1.00  0.00     0.012 A 
HETATM   22  C   UNL     1      25.192  47.374  49.915  1.00  0.00     0.001 A 
HETATM   23  C   UNL     1      26.486  46.891  49.807  1.00  0.00     0.001 A 
HETATM   24  C   UNL     1      23.387  42.872  49.646  1.00  0.00     0.002 A 
HETATM   25  C   UNL     1      24.665  42.332  49.581  1.00  0.00     0.009 A 
ENDBRANCH   8  16
TORSDOF 1
ENDMDL
MODEL 8
REMARK VINA RESULT:      -7.1      2.807      4.469
REMARK  1 active torsions:
REMARK  status: ('A' for Active; 'I' for Inactive)
REMARK    1  A    between atoms: C_8  and  C_9 
ROOT
HETATM    1  C   UNL     1      28.893  40.437  49.402  1.00  0.00     0.073 C 
HETATM    2  C   UNL     1      27.558  40.682  50.007  1.00  0.00     0.062 C 
HETATM    3  N   UNL     1      26.766  39.632  50.255  1.00  0.00    -0.178 NA
HETATM    4  N   UNL     1      25.686  40.172  50.827  1.00  0.00    -0.262 N 
HETATM    5  H   UNL     1      24.941  39.551  51.121  1.00  0.00     0.191 HD
HETATM    6  C   UNL     1      25.689  41.538  50.811  1.00  0.00     0.134 C 
HETATM    7  C   UNL     1      26.955  41.921  50.407  1.00  0.00     0.032 C 
HETATM    8  C   UNL     1      27.619  43.271  50.435  1.00  0.00     0.120 C 
HETATM    9  S   UNL     1      26.636  44.747  50.004  1.00  0.00    -0.141 SA
HETATM   10  C   UNL     1      25.044  44.032  49.494  1.00  0.00     0.136 C 
HETATM   11  C   UNL     1      24.243  45.138  48.803  1.00  0.00     0.031 C 
HETATM   12  C   UNL     1      24.264  43.495  50.698  1.00  0.00     0.236 C 
HETATM   13  O   UNL     1      23.293  44.079  51.187  1.00  0.00    -0.272 OA
HETATM   14  N   UNL     1      24.582  42.255  51.189  1.00  0.00    -0.311 N 
HETATM   15  H   UNL     1      23.869  41.843  51.780  1.00  0.00     0.170 HD
ENDROOT
BRANCH   8  16
HETATM   16  C   UNL     1      28.238  43.395  51.838  1.00  0.00    -0.029 A 
HETATM   17  C   UNL     1      27.761  44.325  52.821  1.00  0.00    -0.018 A 
HETATM   18  C   UNL     1      28.435  44.401  54.072  1.00  0.00    -0.025 A 
HETATM   19  C   UNL     1      26.649  45.189  52.655  1.00  0.00     0.013 A 
HETATM   20  C   UNL     1      28.023  45.315  55.055  1.00  0.00     0.012 A 
HETATM   21  C   UNL     1      29.523  43.562  54.346  1.00  0.00     0.012 A 
HETATM   22  C   UNL     1      26.944  46.166  54.840  1.00  0.00     0.001 A 
HETATM   23  C   UNL     1      26.252  46.097  53.642  1.00  0.00     0.001 A 
HETATM   24  C   UNL     1      29.967  42.644  53.407  1.00  0.00     0.002 A 
HETATM   25  C   UNL     1      29.338  42.567  52.171  1.00  0.00     0.009 A 
ENDBRANCH   8  16
TORSDOF 1
ENDMDL
MODEL 9
REMARK VINA RESULT:      -7.0      2.883      3.617
REMARK  1 active torsions:
REMARK  status: ('A' for Active; 'I' for Inactive)
REMARK    1  A    between atoms: C_8  and  C_9 
ROOT
HETATM    1  C   UNL     1      28.328  41.321  49.702  1.00  0.00     0.073 C 
HETATM    2  C   UNL     1      26.847  41.328  49.824  1.00  0.00     0.062 C 
HETATM    3  N   UNL     1      26.191  40.166  49.723  1.00  0.00    -0.178 NA
HETATM    4  N   UNL     1      24.912  40.501  49.919  1.00  0.00    -0.262 N 
HETATM    5  H   UNL     1      24.218  39.763  49.902  1.00  0.00     0.191 HD
HETATM    6  C   UNL     1      24.708  41.850  49.985  1.00  0.00     0.134 C 
HETATM    7  C   UNL     1      25.961  42.431  50.064  1.00  0.00     0.032 C 
HETATM    8  C   UNL     1      26.359  43.843  50.398  1.00  0.00     0.120 C 
HETATM    9  S   UNL     1      25.358  45.221  49.743  1.00  0.00    -0.141 SA
HETATM   10  C   UNL     1      24.157  44.371  48.676  1.00  0.00     0.136 C 
HETATM   11  C   UNL     1      23.469  45.434  47.817  1.00  0.00     0.031 C 
HETATM   12  C   UNL     1      23.116  43.612  49.505  1.00  0.00     0.236 C 
HETATM   13  O   UNL     1      21.960  44.013  49.663  1.00  0.00    -0.272 OA
HETATM   14  N   UNL     1      23.441  42.376  50.001  1.00  0.00    -0.311 N 
HETATM   15  H   UNL     1      22.646  41.817  50.285  1.00  0.00     0.170 HD
ENDROOT
BRANCH   8  16
HETATM   16  C   UNL     1      26.452  43.892  51.933  1.00  0.00    -0.029 A 
HETATM   17  C   UNL     1      27.669  43.636  52.649  1.00  0.00    -0.018 A 
HETATM   18  C   UNL     1      27.640  43.653  54.071  1.00  0.00    -0.025 A 
HETATM   19  C   UNL     1      28.926  43.367  52.050  1.00  0.00     0.013 A 
HETATM   20  C   UNL     1      28.798  43.379  54.816  1.00  0.00     0.012 A 
HETATM   21  C   UNL     1      26.453  43.944  54.755  1.00  0.00     0.012 A 
HETATM   22  C   UNL     1      30.007  43.093  54.189  1.00  0.00     0.001 A 
HETATM   23  C   UNL     1      30.071  43.094  52.805  1.00  0.00     0.001 A 
HETATM   24  C   UNL     1      25.283  44.219  54.064  1.00  0.00     0.002 A 
HETATM   25  C   UNL     1      25.282  44.187  52.676  1.00  0.00     0.009 A 
ENDBRANCH   8  16
TORSDOF 1
ENDMDL
MODEL 10
REMARK VINA RESULT:      -6.9     18.582     20.278
REMARK  1 active torsions:
REMARK  status: ('A' for Active; 'I' for Inactive)
REMARK    1  A    between atoms: C_8  and  C_9 
ROOT
HETATM    1  C   UNL     1      41.945  46.524  65.815  1.00  0.00     0.073 C 
HETATM    2  C   UNL     1      41.126  45.350  66.211  1.00  0.00     0.062 C 
HETATM    3  N   UNL     1      41.474  44.668  67.308  1.00  0.00    -0.178 NA
HETATM    4  N   UNL     1      40.533  43.724  67.413  1.00  0.00    -0.262 N 
HETATM    5  H   UNL     1      40.584  43.084  68.196  1.00  0.00     0.191 HD
HETATM    6  C   UNL     1      39.689  43.679  66.340  1.00  0.00     0.134 C 
HETATM    7  C   UNL     1      39.951  44.811  65.588  1.00  0.00     0.032 C 
HETATM    8  C   UNL     1      39.184  45.420  64.446  1.00  0.00     0.120 C 
HETATM    9  S   UNL     1      38.436  44.318  63.198  1.00  0.00    -0.141 SA
HETATM   10  C   UNL     1      39.030  42.677  63.707  1.00  0.00     0.136 C 
HETATM   11  C   UNL     1      38.741  41.706  62.559  1.00  0.00     0.031 C 
HETATM   12  C   UNL     1      38.329  42.202  64.983  1.00  0.00     0.236 C 
HETATM   13  O   UNL     1      37.440  41.346  64.985  1.00  0.00    -0.272 OA
HETATM   14  N   UNL     1      38.781  42.661  66.193  1.00  0.00    -0.311 N 
HETATM   15  H   UNL     1      38.479  42.111  66.989  1.00  0.00     0.170 HD
ENDROOT
BRANCH   8  16
HETATM   16  C   UNL     1      38.130  46.331  65.098  1.00  0.00    -0.029 A 
HETATM   17  C   UNL     1      38.334  47.737  65.299  1.00  0.00    -0.018 A 
HETATM   18  C   UNL     1      37.320  48.486  65.960  1.00  0.00    -0.025 A 
HETATM   19  C   UNL     1      39.479  48.464  64.883  1.00  0.00     0.013 A 
HETATM   20  C   UNL     1      37.486  49.858  66.206  1.00  0.00     0.012 A 
HETATM   21  C   UNL     1      36.136  47.866  66.377  1.00  0.00     0.012 A 
HETATM   22  C   UNL     1      38.638  50.527  65.806  1.00  0.00     0.001 A 
HETATM   23  C   UNL     1      39.632  49.830  65.137  1.00  0.00     0.001 A 
HETATM   24  C   UNL     1      35.926  46.513  66.158  1.00  0.00     0.002 A 
HETATM   25  C   UNL     1      36.910  45.757  65.535  1.00  0.00     0.009 A 
ENDBRANCH   8  16
TORSDOF 1
ENDMDL
