MODEL 1
REMARK VINA RESULT:      -8.1      0.000      0.000
REMARK  7 active torsions:
REMARK  status: ('A' for Active; 'I' for Inactive)
REMARK    1  A    between atoms: C_2  and  C_3 
REMARK    2  A    between atoms: C_3  and  N_4 
REMARK    3  A    between atoms: C_7  and  C_8 
REMARK    4  A    between atoms: C_8  and  N_9 
REMARK       I    between atoms: N_9  and  C_10 
REMARK       I    between atoms: C_10  and  N_11 
REMARK    5  A    between atoms: N_11  and  C_12 
REMARK    6  A    between atoms: C_15  and  N_16 
REMARK       I    between atoms: N_16  and  C_17 
REMARK    7  A    between atoms: C_17  and  C_18 
ROOT
HETATM    1  N   UNL     1      25.473  47.559  50.633  1.00  0.00    -0.342 N 
HETATM    2  C   UNL     1      26.020  48.234  49.583  1.00  0.00     0.320 C 
HETATM    3  N   UNL     1      25.164  48.886  48.748  1.00  0.00    -0.309 N 
HETATM    4  O   UNL     1      27.229  48.255  49.363  1.00  0.00    -0.247 OA
HETATM    5  H   UNL     1      24.518  47.280  50.436  1.00  0.00     0.164 HD
HETATM    6  H   UNL     1      25.614  49.141  47.874  1.00  0.00     0.170 HD
ENDROOT
BRANCH   3   7
HETATM    7  C   UNL     1      23.800  49.211  48.864  1.00  0.00     0.036 A 
HETATM    8  C   UNL     1      22.767  48.278  48.774  1.00  0.00     0.032 A 
HETATM    9  C   UNL     1      21.429  48.685  48.834  1.00  0.00     0.032 A 
HETATM   10  C   UNL     1      21.102  50.030  48.997  1.00  0.00     0.035 A 
HETATM   11  C   UNL     1      22.137  50.954  49.165  1.00  0.00     0.032 A 
HETATM   12  C   UNL     1      23.475  50.546  49.112  1.00  0.00     0.032 A 
BRANCH  10  13
HETATM   13  N   UNL     1      19.788  50.527  48.976  1.00  0.00    -0.321 N 
HETATM   14  C   UNL     1      18.800  50.381  49.936  1.00  0.00     0.279 C 
HETATM   15  O   UNL     1      18.952  49.859  51.036  1.00  0.00    -0.265 OA
HETATM   16  H   UNL     1      19.480  50.997  48.130  1.00  0.00     0.169 HD
BRANCH  14  17
HETATM   17  C   UNL     1      17.517  50.902  49.496  1.00  0.00     0.142 A 
HETATM   18  O   UNL     1      16.783  50.193  48.578  1.00  0.00    -0.317 OA
HETATM   19  C   UNL     1      15.630  50.880  48.372  1.00  0.00     0.143 A 
HETATM   20  C   UNL     1      15.605  52.023  49.136  1.00  0.00     0.027 A 
HETATM   21  C   UNL     1      16.823  52.040  49.858  1.00  0.00     0.045 A 
ENDBRANCH  14  17
ENDBRANCH  10  13
ENDBRANCH   3   7
BRANCH   1  22
HETATM   22  C   UNL     1      26.191  46.619  51.478  1.00  0.00     0.130 C 
BRANCH  22  23
HETATM   23  C   UNL     1      25.583  46.269  52.846  1.00  0.00     0.031 C 
HETATM   24  C   UNL     1      26.005  44.913  53.395  1.00  0.00     0.241 C 
HETATM   25  N   UNL     1      27.170  45.190  54.343  1.00  0.00    -0.071 N 
HETATM   26  H   UNL     1      26.846  44.883  55.270  1.00  0.00     0.279 HD
HETATM   27  C   UNL     1      27.359  46.686  54.399  1.00  0.00     0.235 C 
HETATM   28  C   UNL     1      26.028  47.241  53.933  1.00  0.00     0.035 C 
BRANCH  25  29
HETATM   29  C   UNL     1      28.403  44.397  54.002  1.00  0.00     0.234 C 
BRANCH  29  30
HETATM   30  C   UNL     1      29.467  44.496  55.093  1.00  0.00     0.023 C 
HETATM   31  C   UNL     1      30.439  43.324  55.105  1.00  0.00     0.007 C 
ENDBRANCH  29  30
ENDBRANCH  25  29
ENDBRANCH  22  23
ENDBRANCH   1  22
TORSDOF 7
ENDMDL
MODEL 2
REMARK VINA RESULT:      -8.1      2.854     10.656
REMARK  7 active torsions:
REMARK  status: ('A' for Active; 'I' for Inactive)
REMARK    1  A    between atoms: C_2  and  C_3 
REMARK    2  A    between atoms: C_3  and  N_4 
REMARK    3  A    between atoms: C_7  and  C_8 
REMARK    4  A    between atoms: C_8  and  N_9 
REMARK       I    between atoms: N_9  and  C_10 
REMARK       I    between atoms: C_10  and  N_11 
REMARK    5  A    between atoms: N_11  and  C_12 
REMARK    6  A    between atoms: C_15  and  N_16 
REMARK       I    between atoms: N_16  and  C_17 
REMARK    7  A    between atoms: C_17  and  C_18 
ROOT
HETATM    1  N   UNL     1      22.765  46.644  49.158  1.00  0.00    -0.342 N 
HETATM    2  C   UNL     1      22.800  45.493  48.428  1.00  0.00     0.320 C 
HETATM    3  N   UNL     1      23.859  44.661  48.629  1.00  0.00    -0.309 N 
HETATM    4  O   UNL     1      21.938  45.203  47.603  1.00  0.00    -0.247 OA
HETATM    5  H   UNL     1      23.696  46.934  49.436  1.00  0.00     0.164 HD
HETATM    6  H   UNL     1      23.942  43.974  47.886  1.00  0.00     0.170 HD
ENDROOT
BRANCH   3   7
HETATM    7  C   UNL     1      24.850  44.623  49.626  1.00  0.00     0.036 A 
HETATM    8  C   UNL     1      26.140  45.129  49.462  1.00  0.00     0.032 A 
HETATM    9  C   UNL     1      27.095  44.995  50.478  1.00  0.00     0.032 A 
HETATM   10  C   UNL     1      26.772  44.366  51.679  1.00  0.00     0.035 A 
HETATM   11  C   UNL     1      25.458  43.928  51.872  1.00  0.00     0.032 A 
HETATM   12  C   UNL     1      24.502  44.067  50.860  1.00  0.00     0.032 A 
BRANCH  10  13
HETATM   13  N   UNL     1      27.695  44.114  52.707  1.00  0.00    -0.321 N 
HETATM   14  C   UNL     1      27.945  44.870  53.841  1.00  0.00     0.279 C 
HETATM   15  O   UNL     1      27.309  45.862  54.185  1.00  0.00    -0.265 OA
HETATM   16  H   UNL     1      28.318  43.319  52.592  1.00  0.00     0.169 HD
BRANCH  14  17
HETATM   17  C   UNL     1      29.081  44.377  54.599  1.00  0.00     0.142 A 
HETATM   18  O   UNL     1      29.636  45.171  55.571  1.00  0.00    -0.317 OA
HETATM   19  C   UNL     1      30.648  44.463  56.137  1.00  0.00     0.143 A 
HETATM   20  C   UNL     1      30.761  43.227  55.547  1.00  0.00     0.027 A 
HETATM   21  C   UNL     1      29.755  43.171  54.552  1.00  0.00     0.045 A 
ENDBRANCH  14  17
ENDBRANCH  10  13
ENDBRANCH   3   7
BRANCH   1  22
HETATM   22  C   UNL     1      21.859  47.754  48.912  1.00  0.00     0.130 C 
BRANCH  22  23
HETATM   23  C   UNL     1      22.345  48.894  48.002  1.00  0.00     0.031 C 
HETATM   24  C   UNL     1      21.276  49.919  47.649  1.00  0.00     0.241 C 
HETATM   25  N   UNL     1      21.454  51.066  48.642  1.00  0.00    -0.071 N 
HETATM   26  H   UNL     1      21.693  51.887  48.070  1.00  0.00     0.279 HD
HETATM   27  C   UNL     1      22.656  50.742  49.496  1.00  0.00     0.235 C 
HETATM   28  C   UNL     1      23.430  49.733  48.670  1.00  0.00     0.035 C 
BRANCH  25  29
HETATM   29  C   UNL     1      20.193  51.386  49.399  1.00  0.00     0.234 C 
BRANCH  29  30
HETATM   30  C   UNL     1      19.234  52.245  48.578  1.00  0.00     0.023 C 
HETATM   31  C   UNL     1      17.927  52.554  49.294  1.00  0.00     0.007 C 
ENDBRANCH  29  30
ENDBRANCH  25  29
ENDBRANCH  22  23
ENDBRANCH   1  22
TORSDOF 7
ENDMDL
MODEL 3
REMARK VINA RESULT:      -8.1      2.536      9.812
REMARK  7 active torsions:
REMARK  status: ('A' for Active; 'I' for Inactive)
REMARK    1  A    between atoms: C_2  and  C_3 
REMARK    2  A    between atoms: C_3  and  N_4 
REMARK    3  A    between atoms: C_7  and  C_8 
REMARK    4  A    between atoms: C_8  and  N_9 
REMARK       I    between atoms: N_9  and  C_10 
REMARK       I    between atoms: C_10  and  N_11 
REMARK    5  A    between atoms: N_11  and  C_12 
REMARK    6  A    between atoms: C_15  and  N_16 
REMARK       I    between atoms: N_16  and  C_17 
REMARK    7  A    between atoms: C_17  and  C_18 
ROOT
HETATM    1  N   UNL     1      20.216  47.792  49.425  1.00  0.00    -0.342 N 
HETATM    2  C   UNL     1      20.729  47.779  48.162  1.00  0.00     0.320 C 
HETATM    3  N   UNL     1      22.039  47.432  48.025  1.00  0.00    -0.309 N 
HETATM    4  O   UNL     1      20.066  48.082  47.172  1.00  0.00    -0.247 OA
HETATM    5  H   UNL     1      20.941  47.949  50.116  1.00  0.00     0.164 HD
HETATM    6  H   UNL     1      22.401  47.688  47.112  1.00  0.00     0.170 HD
ENDROOT
BRANCH   3   7
HETATM    7  C   UNL     1      22.955  46.846  48.917  1.00  0.00     0.036 A 
HETATM    8  C   UNL     1      23.831  47.573  49.722  1.00  0.00     0.032 A 
HETATM    9  C   UNL     1      24.763  46.919  50.538  1.00  0.00     0.032 A 
HETATM   10  C   UNL     1      24.824  45.526  50.571  1.00  0.00     0.035 A 
HETATM   11  C   UNL     1      23.894  44.798  49.823  1.00  0.00     0.032 A 
HETATM   12  C   UNL     1      22.959  45.453  49.013  1.00  0.00     0.032 A 
BRANCH  10  13
HETATM   13  N   UNL     1      25.785  44.799  51.292  1.00  0.00    -0.321 N 
HETATM   14  C   UNL     1      27.068  44.450  50.902  1.00  0.00     0.279 C 
HETATM   15  O   UNL     1      27.618  44.817  49.867  1.00  0.00    -0.265 OA
HETATM   16  H   UNL     1      25.503  44.410  52.187  1.00  0.00     0.169 HD
BRANCH  14  17
HETATM   17  C   UNL     1      27.715  43.562  51.850  1.00  0.00     0.142 A 
HETATM   18  O   UNL     1      27.510  42.208  51.752  1.00  0.00    -0.317 OA
HETATM   19  C   UNL     1      28.249  41.619  52.727  1.00  0.00     0.143 A 
HETATM   20  C   UNL     1      28.924  42.566  53.460  1.00  0.00     0.027 A 
HETATM   21  C   UNL     1      28.578  43.819  52.898  1.00  0.00     0.045 A 
ENDBRANCH  14  17
ENDBRANCH  10  13
ENDBRANCH   3   7
BRANCH   1  22
HETATM   22  C   UNL     1      18.929  48.361  49.791  1.00  0.00     0.130 C 
BRANCH  22  23
HETATM   23  C   UNL     1      18.920  49.717  50.515  1.00  0.00     0.031 C 
HETATM   24  C   UNL     1      20.239  50.476  50.449  1.00  0.00     0.241 C 
HETATM   25  N   UNL     1      20.098  51.458  49.288  1.00  0.00    -0.071 N 
HETATM   26  H   UNL     1      20.179  52.393  49.709  1.00  0.00     0.279 HD
HETATM   27  C   UNL     1      18.694  51.322  48.749  1.00  0.00     0.235 C 
HETATM   28  C   UNL     1      17.924  50.690  49.892  1.00  0.00     0.035 C 
BRANCH  25  29
HETATM   29  C   UNL     1      21.196  51.318  48.267  1.00  0.00     0.234 C 
BRANCH  29  30
HETATM   30  C   UNL     1      22.538  50.979  48.912  1.00  0.00     0.023 C 
HETATM   31  C   UNL     1      23.644  50.697  47.905  1.00  0.00     0.007 C 
ENDBRANCH  29  30
ENDBRANCH  25  29
ENDBRANCH  22  23
ENDBRANCH   1  22
TORSDOF 7
ENDMDL
MODEL 4
REMARK VINA RESULT:      -7.9     12.159     16.408
REMARK  7 active torsions:
REMARK  status: ('A' for Active; 'I' for Inactive)
REMARK    1  A    between atoms: C_2  and  C_3 
REMARK    2  A    between atoms: C_3  and  N_4 
REMARK    3  A    between atoms: C_7  and  C_8 
REMARK    4  A    between atoms: C_8  and  N_9 
REMARK       I    between atoms: N_9  and  C_10 
REMARK       I    between atoms: C_10  and  N_11 
REMARK    5  A    between atoms: N_11  and  C_12 
REMARK    6  A    between atoms: C_15  and  N_16 
REMARK       I    between atoms: N_16  and  C_17 
REMARK    7  A    between atoms: C_17  and  C_18 
ROOT
HETATM    1  N   UNL     1      29.787  51.766  41.539  1.00  0.00    -0.342 N 
HETATM    2  C   UNL     1      29.751  50.498  42.037  1.00  0.00     0.320 C 
HETATM    3  N   UNL     1      30.918  49.984  42.517  1.00  0.00    -0.309 N 
HETATM    4  O   UNL     1      28.728  49.817  42.048  1.00  0.00    -0.247 OA
HETATM    5  H   UNL     1      30.715  52.007  41.209  1.00  0.00     0.164 HD
HETATM    6  H   UNL     1      30.865  48.976  42.629  1.00  0.00     0.170 HD
ENDROOT
BRANCH   3   7
HETATM    7  C   UNL     1      32.153  50.582  42.825  1.00  0.00     0.036 A 
HETATM    8  C   UNL     1      33.306  50.427  42.055  1.00  0.00     0.032 A 
HETATM    9  C   UNL     1      34.518  51.000  42.461  1.00  0.00     0.032 A 
HETATM   10  C   UNL     1      34.594  51.746  43.635  1.00  0.00     0.035 A 
HETATM   11  C   UNL     1      33.421  51.965  44.365  1.00  0.00     0.032 A 
HETATM   12  C   UNL     1      32.209  51.399  43.956  1.00  0.00     0.032 A 
BRANCH  10  13
HETATM   13  N   UNL     1      35.787  52.275  44.155  1.00  0.00    -0.321 N 
HETATM   14  C   UNL     1      36.697  53.113  43.532  1.00  0.00     0.279 C 
HETATM   15  O   UNL     1      36.550  53.620  42.423  1.00  0.00    -0.265 OA
HETATM   16  H   UNL     1      36.074  51.961  45.077  1.00  0.00     0.169 HD
BRANCH  14  17
HETATM   17  C   UNL     1      37.893  53.326  44.329  1.00  0.00     0.142 A 
HETATM   18  O   UNL     1      39.110  53.424  43.702  1.00  0.00    -0.317 OA
HETATM   19  C   UNL     1      40.039  53.652  44.665  1.00  0.00     0.143 A 
HETATM   20  C   UNL     1      39.448  53.697  45.905  1.00  0.00     0.027 A 
HETATM   21  C   UNL     1      38.065  53.483  45.690  1.00  0.00     0.045 A 
ENDBRANCH  14  17
ENDBRANCH  10  13
ENDBRANCH   3   7
BRANCH   1  22
HETATM   22  C   UNL     1      28.717  52.386  40.774  1.00  0.00     0.130 C 
BRANCH  22  23
HETATM   23  C   UNL     1      28.912  52.541  39.257  1.00  0.00     0.031 C 
HETATM   24  C   UNL     1      30.292  52.138  38.754  1.00  0.00     0.241 C 
HETATM   25  N   UNL     1      30.153  50.698  38.265  1.00  0.00    -0.071 N 
HETATM   26  H   UNL     1      30.367  50.730  37.259  1.00  0.00     0.279 HD
HETATM   27  C   UNL     1      28.702  50.310  38.409  1.00  0.00     0.235 C 
HETATM   28  C   UNL     1      27.972  51.637  38.466  1.00  0.00     0.035 C 
BRANCH  25  29
HETATM   29  C   UNL     1      31.138  49.762  38.914  1.00  0.00     0.234 C 
BRANCH  29  30
HETATM   30  C   UNL     1      30.605  48.333  38.990  1.00  0.00     0.023 C 
HETATM   31  C   UNL     1      31.260  47.495  40.079  1.00  0.00     0.007 C 
ENDBRANCH  29  30
ENDBRANCH  25  29
ENDBRANCH  22  23
ENDBRANCH   1  22
TORSDOF 7
ENDMDL
MODEL 5
REMARK VINA RESULT:      -7.8      2.620      3.914
REMARK  7 active torsions:
REMARK  status: ('A' for Active; 'I' for Inactive)
REMARK    1  A    between atoms: C_2  and  C_3 
REMARK    2  A    between atoms: C_3  and  N_4 
REMARK    3  A    between atoms: C_7  and  C_8 
REMARK    4  A    between atoms: C_8  and  N_9 
REMARK       I    between atoms: N_9  and  C_10 
REMARK       I    between atoms: C_10  and  N_11 
REMARK    5  A    between atoms: N_11  and  C_12 
REMARK    6  A    between atoms: C_15  and  N_16 
REMARK       I    between atoms: N_16  and  C_17 
REMARK    7  A    between atoms: C_17  and  C_18 
ROOT
HETATM    1  N   UNL     1      27.080  44.200  50.949  1.00  0.00    -0.342 N 
HETATM    2  C   UNL     1      26.800  43.448  49.847  1.00  0.00     0.320 C 
HETATM    3  N   UNL     1      25.712  43.803  49.109  1.00  0.00    -0.309 N 
HETATM    4  O   UNL     1      27.473  42.473  49.520  1.00  0.00    -0.247 OA
HETATM    5  H   UNL     1      26.245  44.648  51.311  1.00  0.00     0.164 HD
HETATM    6  H   UNL     1      25.432  43.063  48.473  1.00  0.00     0.170 HD
ENDROOT
BRANCH   3   7
HETATM    7  C   UNL     1      24.909  44.958  49.113  1.00  0.00     0.036 A 
HETATM    8  C   UNL     1      25.295  46.173  49.681  1.00  0.00     0.032 A 
HETATM    9  C   UNL     1      24.415  47.262  49.706  1.00  0.00     0.032 A 
HETATM   10  C   UNL     1      23.140  47.159  49.152  1.00  0.00     0.035 A 
HETATM   11  C   UNL     1      22.783  45.967  48.514  1.00  0.00     0.032 A 
HETATM   12  C   UNL     1      23.665  44.880  48.484  1.00  0.00     0.032 A 
BRANCH  10  13
HETATM   13  N   UNL     1      22.171  48.173  49.216  1.00  0.00    -0.321 N 
HETATM   14  C   UNL     1      22.093  49.335  48.466  1.00  0.00     0.279 C 
HETATM   15  O   UNL     1      22.831  49.624  47.528  1.00  0.00    -0.265 OA
HETATM   16  H   UNL     1      21.467  48.101  49.946  1.00  0.00     0.169 HD
BRANCH  14  17
HETATM   17  C   UNL     1      21.036  50.221  48.922  1.00  0.00     0.142 A 
HETATM   18  O   UNL     1      20.421  49.972  50.123  1.00  0.00    -0.317 OA
HETATM   19  C   UNL     1      19.508  50.958  50.317  1.00  0.00     0.143 A 
HETATM   20  C   UNL     1      19.516  51.839  49.262  1.00  0.00     0.027 A 
HETATM   21  C   UNL     1      20.498  51.363  48.359  1.00  0.00     0.045 A 
ENDBRANCH  14  17
ENDBRANCH  10  13
ENDBRANCH   3   7
BRANCH   1  22
HETATM   22  C   UNL     1      28.039  43.837  51.978  1.00  0.00     0.130 C 
BRANCH  22  23
HETATM   23  C   UNL     1      27.495  43.374  53.340  1.00  0.00     0.031 C 
HETATM   24  C   UNL     1      28.402  43.688  54.522  1.00  0.00     0.241 C 
HETATM   25  N   UNL     1      27.877  44.993  55.116  1.00  0.00    -0.071 N 
HETATM   26  H   UNL     1      27.581  44.757  56.073  1.00  0.00     0.279 HD
HETATM   27  C   UNL     1      26.641  45.377  54.340  1.00  0.00     0.235 C 
HETATM   28  C   UNL     1      26.191  44.078  53.702  1.00  0.00     0.035 C 
BRANCH  25  29
HETATM   29  C   UNL     1      28.934  46.060  55.213  1.00  0.00     0.234 C 
BRANCH  29  30
HETATM   30  C   UNL     1      29.785  45.911  56.472  1.00  0.00     0.023 C 
HETATM   31  C   UNL     1      28.998  46.083  57.764  1.00  0.00     0.007 C 
ENDBRANCH  29  30
ENDBRANCH  25  29
ENDBRANCH  22  23
ENDBRANCH   1  22
TORSDOF 7
ENDMDL
MODEL 6
REMARK VINA RESULT:      -7.7      3.492      5.903
REMARK  7 active torsions:
REMARK  status: ('A' for Active; 'I' for Inactive)
REMARK    1  A    between atoms: C_2  and  C_3 
REMARK    2  A    between atoms: C_3  and  N_4 
REMARK    3  A    between atoms: C_7  and  C_8 
REMARK    4  A    between atoms: C_8  and  N_9 
REMARK       I    between atoms: N_9  and  C_10 
REMARK       I    between atoms: C_10  and  N_11 
REMARK    5  A    between atoms: N_11  and  C_12 
REMARK    6  A    between atoms: C_15  and  N_16 
REMARK       I    between atoms: N_16  and  C_17 
REMARK    7  A    between atoms: C_17  and  C_18 
ROOT
HETATM    1  N   UNL     1      26.898  41.575  51.503  1.00  0.00    -0.342 N 
HETATM    2  C   UNL     1      26.239  40.754  50.636  1.00  0.00     0.320 C 
HETATM    3  N   UNL     1      25.145  41.264  50.005  1.00  0.00    -0.309 N 
HETATM    4  O   UNL     1      26.584  39.593  50.428  1.00  0.00    -0.247 OA
HETATM    5  H   UNL     1      26.281  42.286  51.879  1.00  0.00     0.164 HD
HETATM    6  H   UNL     1      24.579  40.532  49.587  1.00  0.00     0.170 HD
ENDROOT
BRANCH   3   7
HETATM    7  C   UNL     1      24.657  42.577  49.881  1.00  0.00     0.036 A 
HETATM    8  C   UNL     1      23.367  42.966  50.244  1.00  0.00     0.032 A 
HETATM    9  C   UNL     1      22.929  44.279  50.029  1.00  0.00     0.032 A 
HETATM   10  C   UNL     1      23.778  45.227  49.461  1.00  0.00     0.035 A 
HETATM   11  C   UNL     1      25.095  44.857  49.170  1.00  0.00     0.032 A 
HETATM   12  C   UNL     1      25.534  43.547  49.390  1.00  0.00     0.032 A 
BRANCH  10  13
HETATM   13  N   UNL     1      23.387  46.536  49.132  1.00  0.00    -0.321 N 
HETATM   14  C   UNL     1      23.783  47.724  49.724  1.00  0.00     0.279 C 
HETATM   15  O   UNL     1      24.643  47.831  50.594  1.00  0.00    -0.265 OA
HETATM   16  H   UNL     1      22.670  46.644  48.421  1.00  0.00     0.169 HD
BRANCH  14  17
HETATM   17  C   UNL     1      23.048  48.869  49.217  1.00  0.00     0.142 A 
HETATM   18  O   UNL     1      22.984  50.014  49.971  1.00  0.00    -0.317 OA
HETATM   19  C   UNL     1      22.273  50.925  49.257  1.00  0.00     0.143 A 
HETATM   20  C   UNL     1      21.871  50.390  48.056  1.00  0.00     0.027 A 
HETATM   21  C   UNL     1      22.366  49.063  48.031  1.00  0.00     0.045 A 
ENDBRANCH  14  17
ENDBRANCH  10  13
ENDBRANCH   3   7
BRANCH   1  22
HETATM   22  C   UNL     1      27.924  41.141  52.436  1.00  0.00     0.130 C 
BRANCH  22  23
HETATM   23  C   UNL     1      29.080  42.109  52.737  1.00  0.00     0.031 C 
HETATM   24  C   UNL     1      28.895  43.509  52.169  1.00  0.00     0.241 C 
HETATM   25  N   UNL     1      28.321  44.350  53.307  1.00  0.00    -0.071 N 
HETATM   26  H   UNL     1      29.023  45.079  53.489  1.00  0.00     0.279 HD
HETATM   27  C   UNL     1      28.254  43.467  54.530  1.00  0.00     0.235 C 
HETATM   28  C   UNL     1      29.242  42.357  54.234  1.00  0.00     0.035 C 
BRANCH  25  29
HETATM   29  C   UNL     1      27.033  45.035  52.936  1.00  0.00     0.234 C 
BRANCH  29  30
HETATM   30  C   UNL     1      25.814  44.164  53.235  1.00  0.00     0.023 C 
HETATM   31  C   UNL     1      24.999  44.644  54.428  1.00  0.00     0.007 C 
ENDBRANCH  29  30
ENDBRANCH  25  29
ENDBRANCH  22  23
ENDBRANCH   1  22
TORSDOF 7
ENDMDL
MODEL 7
REMARK VINA RESULT:      -7.7     11.836     16.099
REMARK  7 active torsions:
REMARK  status: ('A' for Active; 'I' for Inactive)
REMARK    1  A    between atoms: C_2  and  C_3 
REMARK    2  A    between atoms: C_3  and  N_4 
REMARK    3  A    between atoms: C_7  and  C_8 
REMARK    4  A    between atoms: C_8  and  N_9 
REMARK       I    between atoms: N_9  and  C_10 
REMARK       I    between atoms: C_10  and  N_11 
REMARK    5  A    between atoms: N_11  and  C_12 
REMARK    6  A    between atoms: C_15  and  N_16 
REMARK       I    between atoms: N_16  and  C_17 
REMARK    7  A    between atoms: C_17  and  C_18 
ROOT
HETATM    1  N   UNL     1      29.927  49.409  40.621  1.00  0.00    -0.342 N 
HETATM    2  C   UNL     1      29.918  48.688  41.778  1.00  0.00     0.320 C 
HETATM    3  N   UNL     1      31.005  48.801  42.591  1.00  0.00    -0.309 N 
HETATM    4  O   UNL     1      28.991  47.944  42.090  1.00  0.00    -0.247 OA
HETATM    5  H   UNL     1      30.873  49.601  40.313  1.00  0.00     0.164 HD
HETATM    6  H   UNL     1      31.033  48.059  43.283  1.00  0.00     0.170 HD
ENDROOT
BRANCH   3   7
HETATM    7  C   UNL     1      32.080  49.707  42.603  1.00  0.00     0.036 A 
HETATM    8  C   UNL     1      33.162  49.644  41.725  1.00  0.00     0.032 A 
HETATM    9  C   UNL     1      34.230  50.542  41.840  1.00  0.00     0.032 A 
HETATM   10  C   UNL     1      34.228  51.527  42.827  1.00  0.00     0.035 A 
HETATM   11  C   UNL     1      33.108  51.639  43.656  1.00  0.00     0.032 A 
HETATM   12  C   UNL     1      32.038  50.745  43.537  1.00  0.00     0.032 A 
BRANCH  10  13
HETATM   13  N   UNL     1      35.298  52.405  43.063  1.00  0.00    -0.321 N 
HETATM   14  C   UNL     1      36.617  52.092  43.350  1.00  0.00     0.279 C 
HETATM   15  O   UNL     1      37.094  50.961  43.347  1.00  0.00    -0.265 OA
HETATM   16  H   UNL     1      35.088  53.398  43.103  1.00  0.00     0.169 HD
BRANCH  14  17
HETATM   17  C   UNL     1      37.405  53.264  43.689  1.00  0.00     0.142 A 
HETATM   18  O   UNL     1      37.902  54.053  42.681  1.00  0.00    -0.317 OA
HETATM   19  C   UNL     1      38.563  55.084  43.269  1.00  0.00     0.143 A 
HETATM   20  C   UNL     1      38.508  54.974  44.639  1.00  0.00     0.027 A 
HETATM   21  C   UNL     1      37.765  53.800  44.910  1.00  0.00     0.045 A 
ENDBRANCH  14  17
ENDBRANCH  10  13
ENDBRANCH   3   7
BRANCH   1  22
HETATM   22  C   UNL     1      28.983  49.235  39.529  1.00  0.00     0.130 C 
BRANCH  22  23
HETATM   23  C   UNL     1      27.667  50.027  39.580  1.00  0.00     0.031 C 
HETATM   24  C   UNL     1      27.519  50.927  40.800  1.00  0.00     0.241 C 
HETATM   25  N   UNL     1      27.965  52.316  40.351  1.00  0.00    -0.071 N 
HETATM   26  H   UNL     1      27.135  52.916  40.454  1.00  0.00     0.279 HD
HETATM   27  C   UNL     1      28.285  52.233  38.878  1.00  0.00     0.235 C 
HETATM   28  C   UNL     1      27.540  50.999  38.411  1.00  0.00     0.035 C 
BRANCH  25  29
HETATM   29  C   UNL     1      29.056  52.889  41.215  1.00  0.00     0.234 C 
BRANCH  29  30
HETATM   30  C   UNL     1      30.163  53.537  40.387  1.00  0.00     0.023 C 
HETATM   31  C   UNL     1      31.493  52.802  40.466  1.00  0.00     0.007 C 
ENDBRANCH  29  30
ENDBRANCH  25  29
ENDBRANCH  22  23
ENDBRANCH   1  22
TORSDOF 7
ENDMDL
MODEL 8
REMARK VINA RESULT:      -7.6      5.079      7.238
REMARK  7 active torsions:
REMARK  status: ('A' for Active; 'I' for Inactive)
REMARK    1  A    between atoms: C_2  and  C_3 
REMARK    2  A    between atoms: C_3  and  N_4 
REMARK    3  A    between atoms: C_7  and  C_8 
REMARK    4  A    between atoms: C_8  and  N_9 
REMARK       I    between atoms: N_9  and  C_10 
REMARK       I    between atoms: C_10  and  N_11 
REMARK    5  A    between atoms: N_11  and  C_12 
REMARK    6  A    between atoms: C_15  and  N_16 
REMARK       I    between atoms: N_16  and  C_17 
REMARK    7  A    between atoms: C_17  and  C_18 
ROOT
HETATM    1  N   UNL     1      26.819  41.486  50.723  1.00  0.00    -0.342 N 
HETATM    2  C   UNL     1      27.827  41.856  51.563  1.00  0.00     0.320 C 
HETATM    3  N   UNL     1      27.995  43.189  51.785  1.00  0.00    -0.309 N 
HETATM    4  O   UNL     1      28.580  41.044  52.095  1.00  0.00    -0.247 OA
HETATM    5  H   UNL     1      26.598  42.224  50.063  1.00  0.00     0.164 HD
HETATM    6  H   UNL     1      28.898  43.388  52.203  1.00  0.00     0.170 HD
ENDROOT
BRANCH   3   7
HETATM    7  C   UNL     1      27.182  44.300  51.498  1.00  0.00     0.036 A 
HETATM    8  C   UNL     1      26.214  44.802  52.368  1.00  0.00     0.032 A 
HETATM    9  C   UNL     1      25.395  45.872  51.987  1.00  0.00     0.032 A 
HETATM   10  C   UNL     1      25.540  46.467  50.735  1.00  0.00     0.035 A 
HETATM   11  C   UNL     1      26.562  46.014  49.894  1.00  0.00     0.032 A 
HETATM   12  C   UNL     1      27.384  44.949  50.278  1.00  0.00     0.032 A 
BRANCH  10  13
HETATM   13  N   UNL     1      24.702  47.482  50.245  1.00  0.00    -0.321 N 
HETATM   14  C   UNL     1      23.654  47.370  49.345  1.00  0.00     0.279 C 
HETATM   15  O   UNL     1      23.218  46.315  48.893  1.00  0.00    -0.265 OA
HETATM   16  H   UNL     1      24.916  48.437  50.517  1.00  0.00     0.169 HD
BRANCH  14  17
HETATM   17  C   UNL     1      23.116  48.661  48.955  1.00  0.00     0.142 A 
HETATM   18  O   UNL     1      23.580  49.796  49.571  1.00  0.00    -0.317 OA
HETATM   19  C   UNL     1      22.942  50.851  49.001  1.00  0.00     0.143 A 
HETATM   20  C   UNL     1      22.068  50.419  48.031  1.00  0.00     0.027 A 
HETATM   21  C   UNL     1      22.177  49.008  48.003  1.00  0.00     0.045 A 
ENDBRANCH  14  17
ENDBRANCH  10  13
ENDBRANCH   3   7
BRANCH   1  22
HETATM   22  C   UNL     1      26.640  40.148  50.181  1.00  0.00     0.130 C 
BRANCH  22  23
HETATM   23  C   UNL     1      26.958  39.924  48.694  1.00  0.00     0.031 C 
HETATM   24  C   UNL     1      28.444  39.918  48.361  1.00  0.00     0.241 C 
HETATM   25  N   UNL     1      28.861  38.449  48.341  1.00  0.00    -0.071 N 
HETATM   26  H   UNL     1      29.175  38.267  47.378  1.00  0.00     0.279 HD
HETATM   27  C   UNL     1      27.619  37.624  48.578  1.00  0.00     0.235 C 
HETATM   28  C   UNL     1      26.484  38.558  48.209  1.00  0.00     0.035 C 
BRANCH  25  29
HETATM   29  C   UNL     1      30.015  38.155  49.262  1.00  0.00     0.234 C 
BRANCH  29  30
HETATM   30  C   UNL     1      29.587  38.138  50.728  1.00  0.00     0.023 C 
HETATM   31  C   UNL     1      29.862  36.815  51.429  1.00  0.00     0.007 C 
ENDBRANCH  29  30
ENDBRANCH  25  29
ENDBRANCH  22  23
ENDBRANCH   1  22
TORSDOF 7
ENDMDL
MODEL 9
REMARK VINA RESULT:      -7.5     10.999     12.265
REMARK  7 active torsions:
REMARK  status: ('A' for Active; 'I' for Inactive)
REMARK    1  A    between atoms: C_2  and  C_3 
REMARK    2  A    between atoms: C_3  and  N_4 
REMARK    3  A    between atoms: C_7  and  C_8 
REMARK    4  A    between atoms: C_8  and  N_9 
REMARK       I    between atoms: N_9  and  C_10 
REMARK       I    between atoms: C_10  and  N_11 
REMARK    5  A    between atoms: N_11  and  C_12 
REMARK    6  A    between atoms: C_15  and  N_16 
REMARK       I    between atoms: N_16  and  C_17 
REMARK    7  A    between atoms: C_17  and  C_18 
ROOT
HETATM    1  N   UNL     1      30.765  48.764  41.679  1.00  0.00    -0.342 N 
HETATM    2  C   UNL     1      31.046  47.856  40.702  1.00  0.00     0.320 C 
HETATM    3  N   UNL     1      30.012  47.450  39.913  1.00  0.00    -0.309 N 
HETATM    4  O   UNL     1      32.170  47.392  40.529  1.00  0.00    -0.247 OA
HETATM    5  H   UNL     1      29.793  48.710  41.965  1.00  0.00     0.164 HD
HETATM    6  H   UNL     1      30.244  46.609  39.394  1.00  0.00     0.170 HD
ENDROOT
BRANCH   3   7
HETATM    7  C   UNL     1      28.709  47.951  39.738  1.00  0.00     0.036 A 
HETATM    8  C   UNL     1      28.384  48.989  38.864  1.00  0.00     0.032 A 
HETATM    9  C   UNL     1      27.074  49.479  38.792  1.00  0.00     0.032 A 
HETATM   10  C   UNL     1      26.066  48.931  39.583  1.00  0.00     0.035 A 
HETATM   11  C   UNL     1      26.376  47.840  40.401  1.00  0.00     0.032 A 
HETATM   12  C   UNL     1      27.684  47.346  40.468  1.00  0.00     0.032 A 
BRANCH  10  13
HETATM   13  N   UNL     1      24.752  49.425  39.634  1.00  0.00    -0.321 N 
HETATM   14  C   UNL     1      23.818  49.489  38.613  1.00  0.00     0.279 C 
HETATM   15  O   UNL     1      23.965  49.018  37.488  1.00  0.00    -0.265 OA
HETATM   16  H   UNL     1      24.450  49.860  40.501  1.00  0.00     0.169 HD
BRANCH  14  17
HETATM   17  C   UNL     1      22.617  50.207  39.001  1.00  0.00     0.142 A 
HETATM   18  O   UNL     1      21.529  50.198  38.165  1.00  0.00    -0.317 OA
HETATM   19  C   UNL     1      20.548  50.909  38.777  1.00  0.00     0.143 A 
HETATM   20  C   UNL     1      20.981  51.382  39.993  1.00  0.00     0.027 A 
HETATM   21  C   UNL     1      22.317  50.934  40.136  1.00  0.00     0.045 A 
ENDBRANCH  14  17
ENDBRANCH  10  13
ENDBRANCH   3   7
BRANCH   1  22
HETATM   22  C   UNL     1      31.669  49.127  42.758  1.00  0.00     0.130 C 
BRANCH  22  23
HETATM   23  C   UNL     1      32.617  50.316  42.534  1.00  0.00     0.031 C 
HETATM   24  C   UNL     1      32.405  51.054  41.219  1.00  0.00     0.241 C 
HETATM   25  N   UNL     1      31.507  52.245  41.548  1.00  0.00    -0.071 N 
HETATM   26  H   UNL     1      32.067  53.078  41.325  1.00  0.00     0.279 HD
HETATM   27  C   UNL     1      31.276  52.236  43.040  1.00  0.00     0.235 C 
HETATM   28  C   UNL     1      32.422  51.407  43.583  1.00  0.00     0.035 C 
BRANCH  25  29
HETATM   29  C   UNL     1      30.262  52.290  40.704  1.00  0.00     0.234 C 
BRANCH  29  30
HETATM   30  C   UNL     1      29.059  51.685  41.424  1.00  0.00     0.023 C 
HETATM   31  C   UNL     1      27.795  52.526  41.314  1.00  0.00     0.007 C 
ENDBRANCH  29  30
ENDBRANCH  25  29
ENDBRANCH  22  23
ENDBRANCH   1  22
TORSDOF 7
ENDMDL
MODEL 10
REMARK VINA RESULT:      -7.4     11.954     15.969
REMARK  7 active torsions:
REMARK  status: ('A' for Active; 'I' for Inactive)
REMARK    1  A    between atoms: C_2  and  C_3 
REMARK    2  A    between atoms: C_3  and  N_4 
REMARK    3  A    between atoms: C_7  and  C_8 
REMARK    4  A    between atoms: C_8  and  N_9 
REMARK       I    between atoms: N_9  and  C_10 
REMARK       I    between atoms: C_10  and  N_11 
REMARK    5  A    between atoms: N_11  and  C_12 
REMARK    6  A    between atoms: C_15  and  N_16 
REMARK       I    between atoms: N_16  and  C_17 
REMARK    7  A    between atoms: C_17  and  C_18 
ROOT
HETATM    1  N   UNL     1      28.994  50.665  41.578  1.00  0.00    -0.342 N 
HETATM    2  C   UNL     1      28.949  52.025  41.652  1.00  0.00     0.320 C 
HETATM    3  N   UNL     1      30.031  52.657  42.185  1.00  0.00    -0.309 N 
HETATM    4  O   UNL     1      27.977  52.679  41.280  1.00  0.00    -0.247 OA
HETATM    5  H   UNL     1      29.613  50.277  42.282  1.00  0.00     0.164 HD
HETATM    6  H   UNL     1      29.820  53.618  42.433  1.00  0.00     0.170 HD
ENDROOT
BRANCH   3   7
HETATM    7  C   UNL     1      31.330  52.207  42.484  1.00  0.00     0.036 A 
HETATM    8  C   UNL     1      31.816  52.037  43.781  1.00  0.00     0.032 A 
HETATM    9  C   UNL     1      33.143  51.649  44.002  1.00  0.00     0.032 A 
HETATM   10  C   UNL     1      34.002  51.412  42.930  1.00  0.00     0.035 A 
HETATM   11  C   UNL     1      33.493  51.508  41.631  1.00  0.00     0.032 A 
HETATM   12  C   UNL     1      32.165  51.889  41.410  1.00  0.00     0.032 A 
BRANCH  10  13
HETATM   13  N   UNL     1      35.367  51.109  43.069  1.00  0.00    -0.321 N 
HETATM   14  C   UNL     1      36.453  51.956  42.928  1.00  0.00     0.279 C 
HETATM   15  O   UNL     1      36.388  53.169  42.749  1.00  0.00    -0.265 OA
HETATM   16  H   UNL     1      35.615  50.136  43.223  1.00  0.00     0.169 HD
BRANCH  14  17
HETATM   17  C   UNL     1      37.721  51.250  42.992  1.00  0.00     0.142 A 
HETATM   18  O   UNL     1      38.131  50.714  44.187  1.00  0.00    -0.317 OA
HETATM   19  C   UNL     1      39.317  50.091  43.960  1.00  0.00     0.143 A 
HETATM   20  C   UNL     1      39.684  50.218  42.641  1.00  0.00     0.027 A 
HETATM   21  C   UNL     1      38.659  50.969  42.017  1.00  0.00     0.045 A 
ENDBRANCH  14  17
ENDBRANCH  10  13
ENDBRANCH   3   7
BRANCH   1  22
HETATM   22  C   UNL     1      27.857  49.813  41.271  1.00  0.00     0.130 C 
BRANCH  22  23
HETATM   23  C   UNL     1      27.570  49.498  39.794  1.00  0.00     0.031 C 
HETATM   24  C   UNL     1      28.811  49.219  38.956  1.00  0.00     0.241 C 
HETATM   25  N   UNL     1      28.957  47.699  38.919  1.00  0.00    -0.071 N 
HETATM   26  H   UNL     1      28.865  47.440  37.928  1.00  0.00     0.279 HD
HETATM   27  C   UNL     1      27.775  47.114  39.654  1.00  0.00     0.235 C 
HETATM   28  C   UNL     1      26.745  48.225  39.632  1.00  0.00     0.035 C 
BRANCH  25  29
HETATM   29  C   UNL     1      30.307  47.230  39.393  1.00  0.00     0.234 C 
BRANCH  29  30
HETATM   30  C   UNL     1      31.190  48.389  39.847  1.00  0.00     0.023 C 
HETATM   31  C   UNL     1      32.136  48.027  40.983  1.00  0.00     0.007 C 
ENDBRANCH  29  30
ENDBRANCH  25  29
ENDBRANCH  22  23
ENDBRANCH   1  22
TORSDOF 7
ENDMDL
