MODEL 1
REMARK VINA RESULT:      -8.9      0.000      0.000
REMARK  7 active torsions:
REMARK  status: ('A' for Active; 'I' for Inactive)
REMARK    1  A    between atoms: C_2  and  C_3 
REMARK    2  A    between atoms: C_6  and  C_7 
REMARK    3  A    between atoms: C_7  and  N_8 
REMARK    4  A    between atoms: C_7  and  C_25 
REMARK    5  A    between atoms: N_8  and  C_11 
REMARK    6  A    between atoms: C_11  and  C_12 
REMARK       I    between atoms: C_12  and  N_13 
REMARK    7  A    between atoms: N_13  and  C_14 
ROOT
HETATM    1  N   UNL     1      26.085  42.620  51.490  1.00  0.00    -0.054 N 
HETATM    2  H   UNL     1      26.864  42.487  50.824  1.00  0.00     0.278 HD
HETATM    3  H   UNL     1      26.165  41.797  52.096  1.00  0.00     0.278 HD
ENDROOT
BRANCH   1   4
HETATM    4  C   UNL     1      26.340  43.867  52.265  1.00  0.00     0.259 C 
BRANCH   4   5
HETATM    5  C   UNL     1      27.572  43.804  53.155  1.00  0.00    -0.023 A 
HETATM    6  C   UNL     1      27.779  44.684  54.232  1.00  0.00     0.010 A 
HETATM    7  C   UNL     1      28.900  44.549  55.056  1.00  0.00     0.007 A 
HETATM    8  C   UNL     1      29.831  43.529  54.834  1.00  0.00    -0.059 A 
HETATM    9  C   UNL     1      29.626  42.644  53.772  1.00  0.00     0.007 A 
HETATM   10  C   UNL     1      28.511  42.780  52.942  1.00  0.00     0.010 A 
BRANCH   8  11
HETATM   11  C   UNL     1      31.004  43.347  55.766  1.00  0.00     0.034 C 
HETATM   12  C   UNL     1      31.005  44.388  56.877  1.00  0.00     0.010 C 
ENDBRANCH   8  11
ENDBRANCH   4   5
BRANCH   4  13
HETATM   13  C   UNL     1      26.358  45.042  51.314  1.00  0.00     0.017 A 
HETATM   14  S   UNL     1      25.108  46.219  51.428  1.00  0.00    -0.104 SA
HETATM   15  C   UNL     1      25.750  47.130  50.136  1.00  0.00     0.050 A 
HETATM   16  C   UNL     1      26.884  46.555  49.613  1.00  0.00     0.008 A 
HETATM   17  C   UNL     1      27.235  45.349  50.288  1.00  0.00     0.017 A 
ENDBRANCH   4  13
ENDBRANCH   1   4
BRANCH   1  18
HETATM   18  C   UNL     1      24.814  42.553  50.677  1.00  0.00     0.336 C 
BRANCH  18  19
HETATM   19  C   UNL     1      25.168  42.720  49.207  1.00  0.00     0.248 C 
HETATM   20  N   UNL     1      25.995  41.884  48.532  1.00  0.00    -0.326 N 
HETATM   21  H   UNL     1      26.159  42.223  47.585  1.00  0.00     0.169 HD
HETATM   22  O   UNL     1      24.691  43.700  48.617  1.00  0.00    -0.271 OA
BRANCH  20  23
HETATM   23  C   UNL     1      26.656  40.685  48.860  1.00  0.00     0.037 A 
HETATM   24  C   UNL     1      27.762  40.575  49.709  1.00  0.00     0.061 A 
HETATM   25  C   UNL     1      28.270  39.309  49.919  1.00  0.00     0.065 A 
HETATM   26  C   UNL     1      27.726  38.171  49.331  1.00  0.00     0.063 A 
HETATM   27  N   UNL     1      29.344  38.908  50.706  1.00  0.00    -0.306 N 
HETATM   28  N   UNL     1      28.465  37.072  49.750  1.00  0.00    -0.307 N 
HETATM   29  C   UNL     1      26.638  38.235  48.502  1.00  0.00     0.034 A 
HETATM   30  C   UNL     1      29.478  37.513  50.611  1.00  0.00     0.325 A 
HETATM   31  H   UNL     1      28.323  36.104  49.507  1.00  0.00     0.170 HD
HETATM   32  O   UNL     1      30.314  36.831  51.170  1.00  0.00    -0.247 OA
HETATM   33  C   UNL     1      26.103  39.509  48.275  1.00  0.00     0.032 A 
HETATM   34  H   UNL     1      29.956  39.471  51.274  1.00  0.00     0.170 HD
ENDBRANCH  20  23
ENDBRANCH  18  19
ENDBRANCH   1  18
TORSDOF 7
ENDMDL
MODEL 2
REMARK VINA RESULT:      -8.8      1.908      2.982
REMARK  7 active torsions:
REMARK  status: ('A' for Active; 'I' for Inactive)
REMARK    1  A    between atoms: C_2  and  C_3 
REMARK    2  A    between atoms: C_6  and  C_7 
REMARK    3  A    between atoms: C_7  and  N_8 
REMARK    4  A    between atoms: C_7  and  C_25 
REMARK    5  A    between atoms: N_8  and  C_11 
REMARK    6  A    between atoms: C_11  and  C_12 
REMARK       I    between atoms: C_12  and  N_13 
REMARK    7  A    between atoms: N_13  and  C_14 
ROOT
HETATM    1  N   UNL     1      26.007  44.955  49.768  1.00  0.00    -0.054 N 
HETATM    2  H   UNL     1      26.484  45.378  48.954  1.00  0.00     0.278 HD
HETATM    3  H   UNL     1      26.761  44.428  50.220  1.00  0.00     0.278 HD
ENDROOT
BRANCH   1   4
HETATM    4  C   UNL     1      25.530  46.053  50.654  1.00  0.00     0.259 C 
BRANCH   4   5
HETATM    5  C   UNL     1      26.179  46.066  52.030  1.00  0.00    -0.023 A 
HETATM    6  C   UNL     1      27.060  45.060  52.465  1.00  0.00     0.010 A 
HETATM    7  C   UNL     1      27.676  45.145  53.717  1.00  0.00     0.007 A 
HETATM    8  C   UNL     1      27.439  46.239  54.556  1.00  0.00    -0.059 A 
HETATM    9  C   UNL     1      26.573  47.247  54.125  1.00  0.00     0.007 A 
HETATM   10  C   UNL     1      25.950  47.163  52.878  1.00  0.00     0.010 A 
BRANCH   8  11
HETATM   11  C   UNL     1      28.157  46.359  55.878  1.00  0.00     0.034 C 
HETATM   12  C   UNL     1      29.482  45.611  55.867  1.00  0.00     0.010 C 
ENDBRANCH   8  11
ENDBRANCH   4   5
BRANCH   4  13
HETATM   13  C   UNL     1      25.669  47.370  49.924  1.00  0.00     0.017 A 
HETATM   14  S   UNL     1      24.242  48.200  49.437  1.00  0.00    -0.104 SA
HETATM   15  C   UNL     1      25.137  49.468  48.727  1.00  0.00     0.050 A 
HETATM   16  C   UNL     1      26.493  49.269  48.842  1.00  0.00     0.008 A 
HETATM   17  C   UNL     1      26.802  48.058  49.528  1.00  0.00     0.017 A 
ENDBRANCH   4  13
ENDBRANCH   1   4
BRANCH   1  18
HETATM   18  C   UNL     1      24.968  44.012  49.208  1.00  0.00     0.336 C 
BRANCH  18  19
HETATM   19  C   UNL     1      24.318  43.263  50.363  1.00  0.00     0.248 C 
HETATM   20  N   UNL     1      24.816  42.119  50.894  1.00  0.00    -0.326 N 
HETATM   21  H   UNL     1      24.185  41.743  51.600  1.00  0.00     0.169 HD
HETATM   22  O   UNL     1      23.257  43.721  50.810  1.00  0.00    -0.271 OA
BRANCH  20  23
HETATM   23  C   UNL     1      25.985  41.366  50.675  1.00  0.00     0.037 A 
HETATM   24  C   UNL     1      26.172  40.442  49.640  1.00  0.00     0.061 A 
HETATM   25  C   UNL     1      27.394  39.803  49.582  1.00  0.00     0.065 A 
HETATM   26  C   UNL     1      28.418  40.049  50.492  1.00  0.00     0.063 A 
HETATM   27  N   UNL     1      27.852  38.856  48.673  1.00  0.00    -0.306 N 
HETATM   28  N   UNL     1      29.502  39.252  50.148  1.00  0.00    -0.307 N 
HETATM   29  C   UNL     1      28.278  40.952  51.511  1.00  0.00     0.034 A 
HETATM   30  C   UNL     1      29.168  38.502  49.013  1.00  0.00     0.325 A 
HETATM   31  H   UNL     1      30.400  39.199  50.606  1.00  0.00     0.170 HD
HETATM   32  O   UNL     1      29.871  37.699  48.430  1.00  0.00    -0.247 OA
HETATM   33  C   UNL     1      27.047  41.614  51.591  1.00  0.00     0.032 A 
HETATM   34  H   UNL     1      27.374  38.457  47.882  1.00  0.00     0.170 HD
ENDBRANCH  20  23
ENDBRANCH  18  19
ENDBRANCH   1  18
TORSDOF 7
ENDMDL
MODEL 3
REMARK VINA RESULT:      -8.7     12.262     14.796
REMARK  7 active torsions:
REMARK  status: ('A' for Active; 'I' for Inactive)
REMARK    1  A    between atoms: C_2  and  C_3 
REMARK    2  A    between atoms: C_6  and  C_7 
REMARK    3  A    between atoms: C_7  and  N_8 
REMARK    4  A    between atoms: C_7  and  C_25 
REMARK    5  A    between atoms: N_8  and  C_11 
REMARK    6  A    between atoms: C_11  and  C_12 
REMARK       I    between atoms: C_12  and  N_13 
REMARK    7  A    between atoms: N_13  and  C_14 
ROOT
HETATM    1  N   UNL     1      27.359  48.023  39.210  1.00  0.00    -0.054 N 
HETATM    2  H   UNL     1      26.587  47.358  39.385  1.00  0.00     0.278 HD
HETATM    3  H   UNL     1      27.288  48.664  40.007  1.00  0.00     0.278 HD
ENDROOT
BRANCH   1   4
HETATM    4  C   UNL     1      28.645  47.272  39.254  1.00  0.00     0.259 C 
BRANCH   4   5
HETATM    5  C   UNL     1      29.704  47.907  40.142  1.00  0.00    -0.023 A 
HETATM    6  C   UNL     1      31.068  47.934  39.800  1.00  0.00     0.010 A 
HETATM    7  C   UNL     1      31.996  48.581  40.621  1.00  0.00     0.007 A 
HETATM    8  C   UNL     1      31.585  49.226  41.792  1.00  0.00    -0.059 A 
HETATM    9  C   UNL     1      30.230  49.212  42.133  1.00  0.00     0.007 A 
HETATM   10  C   UNL     1      29.300  48.561  41.319  1.00  0.00     0.010 A 
BRANCH   8  11
HETATM   11  C   UNL     1      32.581  49.978  42.640  1.00  0.00     0.034 C 
HETATM   12  C   UNL     1      31.917  51.103  43.420  1.00  0.00     0.010 C 
ENDBRANCH   8  11
ENDBRANCH   4   5
BRANCH   4  13
HETATM   13  C   UNL     1      28.360  45.831  39.614  1.00  0.00     0.017 A 
HETATM   14  S   UNL     1      29.107  44.585  38.691  1.00  0.00    -0.104 SA
HETATM   15  C   UNL     1      28.353  43.358  39.606  1.00  0.00     0.050 A 
HETATM   16  C   UNL     1      27.539  43.873  40.588  1.00  0.00     0.008 A 
HETATM   17  C   UNL     1      27.539  45.298  40.592  1.00  0.00     0.017 A 
ENDBRANCH   4  13
ENDBRANCH   1   4
BRANCH   1  18
HETATM   18  C   UNL     1      27.017  48.742  37.926  1.00  0.00     0.336 C 
BRANCH  18  19
HETATM   19  C   UNL     1      26.316  50.048  38.272  1.00  0.00     0.248 C 
HETATM   20  N   UNL     1      26.952  51.132  38.779  1.00  0.00    -0.326 N 
HETATM   21  H   UNL     1      26.285  51.866  39.012  1.00  0.00     0.169 HD
HETATM   22  O   UNL     1      25.089  50.093  38.105  1.00  0.00    -0.271 OA
BRANCH  20  23
HETATM   23  C   UNL     1      28.299  51.442  39.044  1.00  0.00     0.037 A 
HETATM   24  C   UNL     1      29.379  51.141  38.207  1.00  0.00     0.061 A 
HETATM   25  C   UNL     1      30.632  51.533  38.633  1.00  0.00     0.065 A 
HETATM   26  C   UNL     1      30.846  52.204  39.833  1.00  0.00     0.063 A 
HETATM   27  N   UNL     1      31.866  51.372  38.011  1.00  0.00    -0.306 N 
HETATM   28  N   UNL     1      32.207  52.453  39.953  1.00  0.00    -0.307 N 
HETATM   29  C   UNL     1      29.815  52.526  40.674  1.00  0.00     0.034 A 
HETATM   30  C   UNL     1      32.859  51.942  38.824  1.00  0.00     0.325 A 
HETATM   31  H   UNL     1      32.684  52.926  40.706  1.00  0.00     0.170 HD
HETATM   32  O   UNL     1      34.051  51.979  38.585  1.00  0.00    -0.247 OA
HETATM   33  C   UNL     1      28.532  52.140  40.264  1.00  0.00     0.032 A 
HETATM   34  H   UNL     1      32.076  50.936  37.128  1.00  0.00     0.170 HD
ENDBRANCH  20  23
ENDBRANCH  18  19
ENDBRANCH   1  18
TORSDOF 7
ENDMDL
MODEL 4
REMARK VINA RESULT:      -8.6      3.401      5.037
REMARK  7 active torsions:
REMARK  status: ('A' for Active; 'I' for Inactive)
REMARK    1  A    between atoms: C_2  and  C_3 
REMARK    2  A    between atoms: C_6  and  C_7 
REMARK    3  A    between atoms: C_7  and  N_8 
REMARK    4  A    between atoms: C_7  and  C_25 
REMARK    5  A    between atoms: N_8  and  C_11 
REMARK    6  A    between atoms: C_11  and  C_12 
REMARK       I    between atoms: C_12  and  N_13 
REMARK    7  A    between atoms: N_13  and  C_14 
ROOT
HETATM    1  N   UNL     1      26.507  44.941  51.483  1.00  0.00    -0.054 N 
HETATM    2  H   UNL     1      25.623  44.405  51.506  1.00  0.00     0.278 HD
HETATM    3  H   UNL     1      26.525  45.382  52.408  1.00  0.00     0.278 HD
ENDROOT
BRANCH   1   4
HETATM    4  C   UNL     1      27.634  43.977  51.340  1.00  0.00     0.259 C 
BRANCH   4   5
HETATM    5  C   UNL     1      28.508  43.856  52.579  1.00  0.00    -0.023 A 
HETATM    6  C   UNL     1      28.182  44.467  53.803  1.00  0.00     0.010 A 
HETATM    7  C   UNL     1      28.988  44.279  54.930  1.00  0.00     0.007 A 
HETATM    8  C   UNL     1      30.127  43.469  54.865  1.00  0.00    -0.059 A 
HETATM    9  C   UNL     1      30.451  42.851  53.655  1.00  0.00     0.007 A 
HETATM   10  C   UNL     1      29.652  43.042  52.525  1.00  0.00     0.010 A 
BRANCH   8  11
HETATM   11  C   UNL     1      30.956  43.216  56.101  1.00  0.00     0.034 C 
HETATM   12  C   UNL     1      30.991  44.434  57.012  1.00  0.00     0.010 C 
ENDBRANCH   8  11
ENDBRANCH   4   5
BRANCH   4  13
HETATM   13  C   UNL     1      27.088  42.648  50.870  1.00  0.00     0.017 A 
HETATM   14  S   UNL     1      26.823  42.411  49.186  1.00  0.00    -0.104 SA
HETATM   15  C   UNL     1      26.238  40.827  49.428  1.00  0.00     0.050 A 
HETATM   16  C   UNL     1      26.229  40.479  50.759  1.00  0.00     0.008 A 
HETATM   17  C   UNL     1      26.715  41.528  51.592  1.00  0.00     0.017 A 
ENDBRANCH   4  13
ENDBRANCH   1   4
BRANCH   1  18
HETATM   18  C   UNL     1      26.343  45.986  50.405  1.00  0.00     0.336 C 
BRANCH  18  19
HETATM   19  C   UNL     1      24.957  46.602  50.532  1.00  0.00     0.248 C 
HETATM   20  N   UNL     1      23.831  46.031  50.038  1.00  0.00    -0.326 N 
HETATM   21  H   UNL     1      23.029  46.646  50.161  1.00  0.00     0.169 HD
HETATM   22  O   UNL     1      24.876  47.705  51.092  1.00  0.00    -0.271 OA
BRANCH  20  23
HETATM   23  C   UNL     1      23.551  44.803  49.408  1.00  0.00     0.037 A 
HETATM   24  C   UNL     1      23.543  44.585  48.026  1.00  0.00     0.061 A 
HETATM   25  C   UNL     1      23.254  43.307  47.593  1.00  0.00     0.065 A 
HETATM   26  C   UNL     1      22.983  42.258  48.466  1.00  0.00     0.063 A 
HETATM   27  N   UNL     1      23.181  42.808  46.297  1.00  0.00    -0.306 N 
HETATM   28  N   UNL     1      22.741  41.117  47.711  1.00  0.00    -0.307 N 
HETATM   29  C   UNL     1      22.992  42.428  49.825  1.00  0.00     0.034 A 
HETATM   30  C   UNL     1      22.862  41.443  46.354  1.00  0.00     0.325 A 
HETATM   31  H   UNL     1      22.520  40.191  48.045  1.00  0.00     0.170 HD
HETATM   32  O   UNL     1      22.720  40.696  45.406  1.00  0.00    -0.247 OA
HETATM   33  C   UNL     1      23.284  43.716  50.289  1.00  0.00     0.032 A 
HETATM   34  H   UNL     1      23.328  43.292  45.425  1.00  0.00     0.170 HD
ENDBRANCH  20  23
ENDBRANCH  18  19
ENDBRANCH   1  18
TORSDOF 7
ENDMDL
MODEL 5
REMARK VINA RESULT:      -8.5      4.461      8.286
REMARK  7 active torsions:
REMARK  status: ('A' for Active; 'I' for Inactive)
REMARK    1  A    between atoms: C_2  and  C_3 
REMARK    2  A    between atoms: C_6  and  C_7 
REMARK    3  A    between atoms: C_7  and  N_8 
REMARK    4  A    between atoms: C_7  and  C_25 
REMARK    5  A    between atoms: N_8  and  C_11 
REMARK    6  A    between atoms: C_11  and  C_12 
REMARK       I    between atoms: C_12  and  N_13 
REMARK    7  A    between atoms: N_13  and  C_14 
ROOT
HETATM    1  N   UNL     1      25.418  46.540  51.099  1.00  0.00    -0.054 N 
HETATM    2  H   UNL     1      24.562  46.664  50.532  1.00  0.00     0.278 HD
HETATM    3  H   UNL     1      25.048  46.484  52.053  1.00  0.00     0.278 HD
ENDROOT
BRANCH   1   4
HETATM    4  C   UNL     1      26.054  45.250  50.708  1.00  0.00     0.259 C 
BRANCH   4   5
HETATM    5  C   UNL     1      27.000  44.683  51.756  1.00  0.00    -0.023 A 
HETATM    6  C   UNL     1      26.872  44.961  53.128  1.00  0.00     0.010 A 
HETATM    7  C   UNL     1      27.731  44.370  54.059  1.00  0.00     0.007 A 
HETATM    8  C   UNL     1      28.728  43.481  53.644  1.00  0.00    -0.059 A 
HETATM    9  C   UNL     1      28.856  43.192  52.283  1.00  0.00     0.007 A 
HETATM   10  C   UNL     1      28.003  43.786  51.349  1.00  0.00     0.010 A 
BRANCH   8  11
HETATM   11  C   UNL     1      29.611  42.795  54.658  1.00  0.00     0.034 C 
HETATM   12  C   UNL     1      30.468  43.793  55.423  1.00  0.00     0.010 C 
ENDBRANCH   8  11
ENDBRANCH   4   5
BRANCH   4  13
HETATM   13  C   UNL     1      24.976  44.274  50.297  1.00  0.00     0.017 A 
HETATM   14  S   UNL     1      24.157  44.527  48.804  1.00  0.00    -0.104 SA
HETATM   15  C   UNL     1      23.169  43.155  49.031  1.00  0.00     0.050 A 
HETATM   16  C   UNL     1      23.439  42.516  50.220  1.00  0.00     0.008 A 
HETATM   17  C   UNL     1      24.477  43.162  50.952  1.00  0.00     0.017 A 
ENDBRANCH   4  13
ENDBRANCH   1   4
BRANCH   1  18
HETATM   18  C   UNL     1      26.232  47.799  50.922  1.00  0.00     0.336 C 
BRANCH  18  19
HETATM   19  C   UNL     1      26.443  48.038  49.434  1.00  0.00     0.248 C 
HETATM   20  N   UNL     1      25.491  48.543  48.611  1.00  0.00    -0.326 N 
HETATM   21  H   UNL     1      25.813  48.545  47.644  1.00  0.00     0.169 HD
HETATM   22  O   UNL     1      27.540  47.714  48.958  1.00  0.00    -0.271 OA
BRANCH  20  23
HETATM   23  C   UNL     1      24.192  49.048  48.810  1.00  0.00     0.037 A 
HETATM   24  C   UNL     1      23.068  48.283  49.140  1.00  0.00     0.061 A 
HETATM   25  C   UNL     1      21.875  48.957  49.303  1.00  0.00     0.065 A 
HETATM   26  C   UNL     1      21.762  50.337  49.159  1.00  0.00     0.063 A 
HETATM   27  N   UNL     1      20.618  48.461  49.632  1.00  0.00    -0.306 N 
HETATM   28  N   UNL     1      20.439  50.690  49.394  1.00  0.00    -0.307 N 
HETATM   29  C   UNL     1      22.840  51.121  48.847  1.00  0.00     0.034 A 
HETATM   30  C   UNL     1      19.711  49.531  49.693  1.00  0.00     0.325 A 
HETATM   31  H   UNL     1      20.034  51.613  49.372  1.00  0.00     0.170 HD
HETATM   32  O   UNL     1      18.526  49.457  49.954  1.00  0.00    -0.247 OA
HETATM   33  C   UNL     1      24.063  50.460  48.677  1.00  0.00     0.032 A 
HETATM   34  H   UNL     1      20.342  47.509  49.814  1.00  0.00     0.170 HD
ENDBRANCH  20  23
ENDBRANCH  18  19
ENDBRANCH   1  18
TORSDOF 7
ENDMDL
MODEL 6
REMARK VINA RESULT:      -8.5      2.277      3.558
REMARK  7 active torsions:
REMARK  status: ('A' for Active; 'I' for Inactive)
REMARK    1  A    between atoms: C_2  and  C_3 
REMARK    2  A    between atoms: C_6  and  C_7 
REMARK    3  A    between atoms: C_7  and  N_8 
REMARK    4  A    between atoms: C_7  and  C_25 
REMARK    5  A    between atoms: N_8  and  C_11 
REMARK    6  A    between atoms: C_11  and  C_12 
REMARK       I    between atoms: C_12  and  N_13 
REMARK    7  A    between atoms: N_13  and  C_14 
ROOT
HETATM    1  N   UNL     1      27.746  42.655  51.276  1.00  0.00    -0.054 N 
HETATM    2  H   UNL     1      27.468  43.024  50.351  1.00  0.00     0.278 HD
HETATM    3  H   UNL     1      28.770  42.696  51.235  1.00  0.00     0.278 HD
ENDROOT
BRANCH   1   4
HETATM    4  C   UNL     1      27.227  43.578  52.323  1.00  0.00     0.259 C 
BRANCH   4   5
HETATM    5  C   UNL     1      28.224  43.885  53.430  1.00  0.00    -0.023 A 
HETATM    6  C   UNL     1      27.985  44.851  54.424  1.00  0.00     0.010 A 
HETATM    7  C   UNL     1      28.908  45.056  55.454  1.00  0.00     0.007 A 
HETATM    8  C   UNL     1      30.080  44.296  55.523  1.00  0.00    -0.059 A 
HETATM    9  C   UNL     1      30.319  43.328  54.545  1.00  0.00     0.007 A 
HETATM   10  C   UNL     1      29.403  43.124  53.510  1.00  0.00     0.010 A 
BRANCH   8  11
HETATM   11  C   UNL     1      31.042  44.476  56.673  1.00  0.00     0.034 C 
HETATM   12  C   UNL     1      31.677  43.157  57.085  1.00  0.00     0.010 C 
ENDBRANCH   8  11
ENDBRANCH   4   5
BRANCH   4  13
HETATM   13  C   UNL     1      26.683  44.822  51.657  1.00  0.00     0.017 A 
HETATM   14  S   UNL     1      27.066  45.110  50.004  1.00  0.00    -0.104 SA
HETATM   15  C   UNL     1      26.189  46.573  49.981  1.00  0.00     0.050 A 
HETATM   16  C   UNL     1      25.623  46.853  51.203  1.00  0.00     0.008 A 
HETATM   17  C   UNL     1      25.909  45.847  52.171  1.00  0.00     0.017 A 
ENDBRANCH   4  13
ENDBRANCH   1   4
BRANCH   1  18
HETATM   18  C   UNL     1      27.278  41.220  51.319  1.00  0.00     0.336 C 
BRANCH  18  19
HETATM   19  C   UNL     1      28.499  40.310  51.317  1.00  0.00     0.248 C 
HETATM   20  N   UNL     1      28.933  39.636  50.223  1.00  0.00    -0.326 N 
HETATM   21  H   UNL     1      29.714  39.026  50.461  1.00  0.00     0.169 HD
HETATM   22  O   UNL     1      29.097  40.162  52.392  1.00  0.00    -0.271 OA
BRANCH  20  23
HETATM   23  C   UNL     1      28.540  39.606  48.871  1.00  0.00     0.037 A 
HETATM   24  C   UNL     1      28.299  40.729  48.073  1.00  0.00     0.061 A 
HETATM   25  C   UNL     1      27.928  40.501  46.763  1.00  0.00     0.065 A 
HETATM   26  C   UNL     1      27.797  39.223  46.228  1.00  0.00     0.063 A 
HETATM   27  N   UNL     1      27.635  41.414  45.756  1.00  0.00    -0.306 N 
HETATM   28  N   UNL     1      27.420  39.347  44.897  1.00  0.00    -0.307 N 
HETATM   29  C   UNL     1      28.034  38.099  46.974  1.00  0.00     0.034 A 
HETATM   30  C   UNL     1      27.316  40.709  44.585  1.00  0.00     0.325 A 
HETATM   31  H   UNL     1      27.249  38.608  44.232  1.00  0.00     0.170 HD
HETATM   32  O   UNL     1      27.010  41.194  43.513  1.00  0.00    -0.247 OA
HETATM   33  C   UNL     1      28.413  38.305  48.306  1.00  0.00     0.032 A 
HETATM   34  H   UNL     1      27.639  42.420  45.796  1.00  0.00     0.170 HD
ENDBRANCH  20  23
ENDBRANCH  18  19
ENDBRANCH   1  18
TORSDOF 7
ENDMDL
MODEL 7
REMARK VINA RESULT:      -8.5     12.675     14.808
REMARK  7 active torsions:
REMARK  status: ('A' for Active; 'I' for Inactive)
REMARK    1  A    between atoms: C_2  and  C_3 
REMARK    2  A    between atoms: C_6  and  C_7 
REMARK    3  A    between atoms: C_7  and  N_8 
REMARK    4  A    between atoms: C_7  and  C_25 
REMARK    5  A    between atoms: N_8  and  C_11 
REMARK    6  A    between atoms: C_11  and  C_12 
REMARK       I    between atoms: C_12  and  N_13 
REMARK    7  A    between atoms: N_13  and  C_14 
ROOT
HETATM    1  N   UNL     1      27.461  47.819  39.672  1.00  0.00    -0.054 N 
HETATM    2  H   UNL     1      26.877  46.976  39.547  1.00  0.00     0.278 HD
HETATM    3  H   UNL     1      27.907  47.920  38.755  1.00  0.00     0.278 HD
ENDROOT
BRANCH   1   4
HETATM    4  C   UNL     1      26.562  48.975  39.947  1.00  0.00     0.259 C 
BRANCH   4   5
HETATM    5  C   UNL     1      27.272  50.320  39.972  1.00  0.00    -0.023 A 
HETATM    6  C   UNL     1      27.580  50.996  41.166  1.00  0.00     0.010 A 
HETATM    7  C   UNL     1      28.285  52.203  41.140  1.00  0.00     0.007 A 
HETATM    8  C   UNL     1      28.708  52.756  39.927  1.00  0.00    -0.059 A 
HETATM    9  C   UNL     1      28.414  52.085  38.737  1.00  0.00     0.007 A 
HETATM   10  C   UNL     1      27.704  50.882  38.759  1.00  0.00     0.010 A 
BRANCH   8  11
HETATM   11  C   UNL     1      29.525  54.025  39.908  1.00  0.00     0.034 C 
HETATM   12  C   UNL     1      30.738  53.926  40.822  1.00  0.00     0.010 C 
ENDBRANCH   8  11
ENDBRANCH   4   5
BRANCH   4  13
HETATM   13  C   UNL     1      25.402  48.938  38.979  1.00  0.00     0.017 A 
HETATM   14  S   UNL     1      25.479  47.863  37.636  1.00  0.00    -0.104 SA
HETATM   15  C   UNL     1      23.956  48.367  37.055  1.00  0.00     0.050 A 
HETATM   16  C   UNL     1      23.396  49.339  37.850  1.00  0.00     0.008 A 
HETATM   17  C   UNL     1      24.230  49.672  38.958  1.00  0.00     0.017 A 
ENDBRANCH   4  13
ENDBRANCH   1   4
BRANCH   1  18
HETATM   18  C   UNL     1      28.490  47.472  40.722  1.00  0.00     0.336 C 
BRANCH  18  19
HETATM   19  C   UNL     1      29.581  46.632  40.074  1.00  0.00     0.248 C 
HETATM   20  N   UNL     1      30.845  47.074  39.859  1.00  0.00    -0.326 N 
HETATM   21  H   UNL     1      31.387  46.383  39.344  1.00  0.00     0.169 HD
HETATM   22  O   UNL     1      29.270  45.493  39.698  1.00  0.00    -0.271 OA
BRANCH  20  23
HETATM   23  C   UNL     1      31.538  48.254  40.190  1.00  0.00     0.037 A 
HETATM   24  C   UNL     1      32.522  48.366  41.178  1.00  0.00     0.061 A 
HETATM   25  C   UNL     1      33.099  49.607  41.353  1.00  0.00     0.065 A 
HETATM   26  C   UNL     1      32.744  50.718  40.593  1.00  0.00     0.063 A 
HETATM   27  N   UNL     1      34.091  50.002  42.244  1.00  0.00    -0.306 N 
HETATM   28  N   UNL     1      33.511  51.795  41.018  1.00  0.00    -0.307 N 
HETATM   29  C   UNL     1      31.793  50.647  39.611  1.00  0.00     0.034 A 
HETATM   30  C   UNL     1      34.359  51.366  42.047  1.00  0.00     0.325 A 
HETATM   31  H   UNL     1      33.496  52.740  40.665  1.00  0.00     0.170 HD
HETATM   32  O   UNL     1      35.170  52.036  42.656  1.00  0.00    -0.247 OA
HETATM   33  C   UNL     1      31.194  49.397  39.412  1.00  0.00     0.032 A 
HETATM   34  H   UNL     1      34.576  49.451  42.933  1.00  0.00     0.170 HD
ENDBRANCH  20  23
ENDBRANCH  18  19
ENDBRANCH   1  18
TORSDOF 7
ENDMDL
MODEL 8
REMARK VINA RESULT:      -8.4      3.035      6.139
REMARK  7 active torsions:
REMARK  status: ('A' for Active; 'I' for Inactive)
REMARK    1  A    between atoms: C_2  and  C_3 
REMARK    2  A    between atoms: C_6  and  C_7 
REMARK    3  A    between atoms: C_7  and  N_8 
REMARK    4  A    between atoms: C_7  and  C_25 
REMARK    5  A    between atoms: N_8  and  C_11 
REMARK    6  A    between atoms: C_11  and  C_12 
REMARK       I    between atoms: C_12  and  N_13 
REMARK    7  A    between atoms: N_13  and  C_14 
ROOT
HETATM    1  N   UNL     1      26.055  42.197  50.588  1.00  0.00    -0.054 N 
HETATM    2  H   UNL     1      25.694  41.257  50.354  1.00  0.00     0.278 HD
HETATM    3  H   UNL     1      25.717  42.335  51.546  1.00  0.00     0.278 HD
ENDROOT
BRANCH   1   4
HETATM    4  C   UNL     1      27.543  42.147  50.559  1.00  0.00     0.259 C 
BRANCH   4   5
HETATM    5  C   UNL     1      28.197  42.362  51.915  1.00  0.00    -0.023 A 
HETATM    6  C   UNL     1      27.805  41.661  53.069  1.00  0.00     0.010 A 
HETATM    7  C   UNL     1      28.475  41.851  54.281  1.00  0.00     0.007 A 
HETATM    8  C   UNL     1      29.557  42.734  54.367  1.00  0.00    -0.059 A 
HETATM    9  C   UNL     1      29.959  43.426  53.222  1.00  0.00     0.007 A 
HETATM   10  C   UNL     1      29.288  43.244  52.010  1.00  0.00     0.010 A 
BRANCH   8  11
HETATM   11  C   UNL     1      30.319  42.887  55.661  1.00  0.00     0.034 C 
HETATM   12  C   UNL     1      31.041  44.224  55.732  1.00  0.00     0.010 C 
ENDBRANCH   8  11
ENDBRANCH   4   5
BRANCH   4  13
HETATM   13  C   UNL     1      27.980  40.864  49.890  1.00  0.00     0.017 A 
HETATM   14  S   UNL     1      27.936  40.770  48.171  1.00  0.00    -0.104 SA
HETATM   15  C   UNL     1      28.503  39.161  48.174  1.00  0.00     0.050 A 
HETATM   16  C   UNL     1      28.714  38.690  49.449  1.00  0.00     0.008 A 
HETATM   17  C   UNL     1      28.409  39.669  50.439  1.00  0.00     0.017 A 
ENDBRANCH   4  13
ENDBRANCH   1   4
BRANCH   1  18
HETATM   18  C   UNL     1      25.372  43.160  49.646  1.00  0.00     0.336 C 
BRANCH  18  19
HETATM   19  C   UNL     1      24.039  43.572  50.253  1.00  0.00     0.248 C 
HETATM   20  N   UNL     1      23.923  44.359  51.351  1.00  0.00    -0.326 N 
HETATM   21  H   UNL     1      22.948  44.444  51.634  1.00  0.00     0.169 HD
HETATM   22  O   UNL     1      23.012  43.126  49.722  1.00  0.00    -0.271 OA
BRANCH  20  23
HETATM   23  C   UNL     1      24.842  45.059  52.156  1.00  0.00     0.037 A 
HETATM   24  C   UNL     1      25.468  44.552  53.300  1.00  0.00     0.061 A 
HETATM   25  C   UNL     1      26.350  45.387  53.956  1.00  0.00     0.065 A 
HETATM   26  C   UNL     1      26.630  46.679  53.522  1.00  0.00     0.063 A 
HETATM   27  N   UNL     1      27.106  45.150  55.099  1.00  0.00    -0.306 N 
HETATM   28  N   UNL     1      27.552  47.239  54.397  1.00  0.00    -0.307 N 
HETATM   29  C   UNL     1      26.046  47.208  52.403  1.00  0.00     0.034 A 
HETATM   30  C   UNL     1      27.863  46.297  55.387  1.00  0.00     0.325 A 
HETATM   31  H   UNL     1      27.962  48.160  54.356  1.00  0.00     0.170 HD
HETATM   32  O   UNL     1      28.634  46.437  56.316  1.00  0.00    -0.247 OA
HETATM   33  C   UNL     1      25.148  46.380  51.717  1.00  0.00     0.032 A 
HETATM   34  H   UNL     1      27.152  44.317  55.664  1.00  0.00     0.170 HD
ENDBRANCH  20  23
ENDBRANCH  18  19
ENDBRANCH   1  18
TORSDOF 7
ENDMDL
MODEL 9
REMARK VINA RESULT:      -8.2     11.330     14.251
REMARK  7 active torsions:
REMARK  status: ('A' for Active; 'I' for Inactive)
REMARK    1  A    between atoms: C_2  and  C_3 
REMARK    2  A    between atoms: C_6  and  C_7 
REMARK    3  A    between atoms: C_7  and  N_8 
REMARK    4  A    between atoms: C_7  and  C_25 
REMARK    5  A    between atoms: N_8  and  C_11 
REMARK    6  A    between atoms: C_11  and  C_12 
REMARK       I    between atoms: C_12  and  N_13 
REMARK    7  A    between atoms: N_13  and  C_14 
ROOT
HETATM    1  N   UNL     1      15.493  53.277  47.375  1.00  0.00    -0.054 N 
HETATM    2  H   UNL     1      14.808  54.043  47.492  1.00  0.00     0.278 HD
HETATM    3  H   UNL     1      16.330  53.773  47.052  1.00  0.00     0.278 HD
ENDROOT
BRANCH   1   4
HETATM    4  C   UNL     1      15.733  52.657  48.709  1.00  0.00     0.259 C 
BRANCH   4   5
HETATM    5  C   UNL     1      17.159  52.172  48.919  1.00  0.00    -0.023 A 
HETATM    6  C   UNL     1      18.269  52.781  48.307  1.00  0.00     0.010 A 
HETATM    7  C   UNL     1      19.566  52.335  48.576  1.00  0.00     0.007 A 
HETATM    8  C   UNL     1      19.787  51.281  49.469  1.00  0.00    -0.059 A 
HETATM    9  C   UNL     1      18.689  50.677  50.089  1.00  0.00     0.007 A 
HETATM   10  C   UNL     1      17.391  51.116  49.817  1.00  0.00     0.010 A 
BRANCH   8  11
HETATM   11  C   UNL     1      21.192  50.846  49.807  1.00  0.00     0.034 C 
HETATM   12  C   UNL     1      22.140  51.054  48.636  1.00  0.00     0.010 C 
ENDBRANCH   8  11
ENDBRANCH   4   5
BRANCH   4  13
HETATM   13  C   UNL     1      15.270  53.611  49.786  1.00  0.00     0.017 A 
HETATM   14  S   UNL     1      13.640  53.514  50.332  1.00  0.00    -0.104 SA
HETATM   15  C   UNL     1      13.857  54.800  51.431  1.00  0.00     0.050 A 
HETATM   16  C   UNL     1      15.134  55.309  51.384  1.00  0.00     0.008 A 
HETATM   17  C   UNL     1      15.949  54.628  50.434  1.00  0.00     0.017 A 
ENDBRANCH   4  13
ENDBRANCH   1   4
BRANCH   1  18
HETATM   18  C   UNL     1      14.954  52.387  46.281  1.00  0.00     0.336 C 
BRANCH  18  19
HETATM   19  C   UNL     1      15.926  52.414  45.109  1.00  0.00     0.248 C 
HETATM   20  N   UNL     1      16.930  51.519  44.944  1.00  0.00    -0.326 N 
HETATM   21  H   UNL     1      17.507  51.766  44.142  1.00  0.00     0.169 HD
HETATM   22  O   UNL     1      15.798  53.333  44.288  1.00  0.00    -0.271 OA
BRANCH  20  23
HETATM   23  C   UNL     1      17.328  50.356  45.631  1.00  0.00     0.037 A 
HETATM   24  C   UNL     1      16.476  49.324  46.040  1.00  0.00     0.061 A 
HETATM   25  C   UNL     1      17.052  48.256  46.696  1.00  0.00     0.065 A 
HETATM   26  C   UNL     1      18.418  48.175  46.951  1.00  0.00     0.063 A 
HETATM   27  N   UNL     1      16.457  47.106  47.203  1.00  0.00    -0.306 N 
HETATM   28  N   UNL     1      18.663  46.981  47.617  1.00  0.00    -0.307 N 
HETATM   29  C   UNL     1      19.286  49.158  46.559  1.00  0.00     0.034 A 
HETATM   30  C   UNL     1      17.450  46.299  47.781  1.00  0.00     0.325 A 
HETATM   31  H   UNL     1      19.550  46.624  47.937  1.00  0.00     0.170 HD
HETATM   32  O   UNL     1      17.281  45.222  48.318  1.00  0.00    -0.247 OA
HETATM   33  C   UNL     1      18.726  50.253  45.889  1.00  0.00     0.032 A 
HETATM   34  H   UNL     1      15.486  46.837  47.185  1.00  0.00     0.170 HD
ENDBRANCH  20  23
ENDBRANCH  18  19
ENDBRANCH   1  18
TORSDOF 7
ENDMDL
MODEL 10
REMARK VINA RESULT:      -8.1      4.421      7.281
REMARK  7 active torsions:
REMARK  status: ('A' for Active; 'I' for Inactive)
REMARK    1  A    between atoms: C_2  and  C_3 
REMARK    2  A    between atoms: C_6  and  C_7 
REMARK    3  A    between atoms: C_7  and  N_8 
REMARK    4  A    between atoms: C_7  and  C_25 
REMARK    5  A    between atoms: N_8  and  C_11 
REMARK    6  A    between atoms: C_11  and  C_12 
REMARK       I    between atoms: C_12  and  N_13 
REMARK    7  A    between atoms: N_13  and  C_14 
ROOT
HETATM    1  N   UNL     1      26.173  46.330  51.832  1.00  0.00    -0.054 N 
HETATM    2  H   UNL     1      25.998  46.258  52.849  1.00  0.00     0.278 HD
HETATM    3  H   UNL     1      26.814  47.127  51.771  1.00  0.00     0.278 HD
ENDROOT
BRANCH   1   4
HETATM    4  C   UNL     1      26.849  45.079  51.385  1.00  0.00     0.259 C 
BRANCH   4   5
HETATM    5  C   UNL     1      27.776  44.470  52.425  1.00  0.00    -0.023 A 
HETATM    6  C   UNL     1      28.761  43.518  52.104  1.00  0.00     0.010 A 
HETATM    7  C   UNL     1      29.628  43.030  53.085  1.00  0.00     0.007 A 
HETATM    8  C   UNL     1      29.541  43.487  54.405  1.00  0.00    -0.059 A 
HETATM    9  C   UNL     1      28.572  44.439  54.730  1.00  0.00     0.007 A 
HETATM   10  C   UNL     1      27.699  44.925  53.753  1.00  0.00     0.010 A 
BRANCH   8  11
HETATM   11  C   UNL     1      30.521  43.005  55.447  1.00  0.00     0.034 C 
HETATM   12  C   UNL     1      31.112  44.163  56.238  1.00  0.00     0.010 C 
ENDBRANCH   8  11
ENDBRANCH   4   5
BRANCH   4  13
HETATM   13  C   UNL     1      25.804  44.108  50.884  1.00  0.00     0.017 A 
HETATM   14  S   UNL     1      25.582  43.935  49.186  1.00  0.00    -0.104 SA
HETATM   15  C   UNL     1      24.339  42.785  49.394  1.00  0.00     0.050 A 
HETATM   16  C   UNL     1      24.081  42.540  50.723  1.00  0.00     0.008 A 
HETATM   17  C   UNL     1      24.921  43.304  51.583  1.00  0.00     0.017 A 
ENDBRANCH   4  13
ENDBRANCH   1   4
BRANCH   1  18
HETATM   18  C   UNL     1      24.847  46.671  51.195  1.00  0.00     0.336 C 
BRANCH  18  19
HETATM   19  C   UNL     1      25.080  47.722  50.119  1.00  0.00     0.248 C 
HETATM   20  N   UNL     1      24.172  48.035  49.163  1.00  0.00    -0.326 N 
HETATM   21  H   UNL     1      24.561  48.703  48.499  1.00  0.00     0.169 HD
HETATM   22  O   UNL     1      26.182  48.290  50.112  1.00  0.00    -0.271 OA
BRANCH  20  23
HETATM   23  C   UNL     1      22.846  47.638  48.905  1.00  0.00     0.037 A 
HETATM   24  C   UNL     1      22.445  46.353  48.521  1.00  0.00     0.061 A 
HETATM   25  C   UNL     1      21.095  46.150  48.320  1.00  0.00     0.065 A 
HETATM   26  C   UNL     1      20.147  47.156  48.489  1.00  0.00     0.063 A 
HETATM   27  N   UNL     1      20.422  44.993  47.944  1.00  0.00    -0.306 N 
HETATM   28  N   UNL     1      18.895  46.621  48.214  1.00  0.00    -0.307 N 
HETATM   29  C   UNL     1      20.498  48.422  48.873  1.00  0.00     0.034 A 
HETATM   30  C   UNL     1      19.048  45.270  47.874  1.00  0.00     0.325 A 
HETATM   31  H   UNL     1      18.003  47.089  48.251  1.00  0.00     0.170 HD
HETATM   32  O   UNL     1      18.168  44.486  47.576  1.00  0.00    -0.247 OA
HETATM   33  C   UNL     1      21.863  48.653  49.085  1.00  0.00     0.032 A 
HETATM   34  H   UNL     1      20.799  44.079  47.748  1.00  0.00     0.170 HD
ENDBRANCH  20  23
ENDBRANCH  18  19
ENDBRANCH   1  18
TORSDOF 7
ENDMDL
